(PID.TID 0000.0001) 
(PID.TID 0000.0001) // ======================================================
(PID.TID 0000.0001) //                      MITgcm UV
(PID.TID 0000.0001) //                      =========
(PID.TID 0000.0001) // ======================================================
(PID.TID 0000.0001) // execution environment starting up...
(PID.TID 0000.0001) 
(PID.TID 0000.0001) // MITgcmUV version:  checkpoint65a
(PID.TID 0000.0001) // Build user:        jmc
(PID.TID 0000.0001) // Build host:        baudelaire
(PID.TID 0000.0001) // Build date:        Tue Jul 29 15:25:32 EDT 2014
(PID.TID 0000.0001) 
(PID.TID 0000.0001) // =======================================================
(PID.TID 0000.0001) // Execution Environment parameter file "eedata"
(PID.TID 0000.0001) // =======================================================
(PID.TID 0000.0001) ># Example "eedata" file
(PID.TID 0000.0001) ># Lines beginning "#" are comments
(PID.TID 0000.0001) ># nTx - No. threads per process in X
(PID.TID 0000.0001) ># nTy - No. threads per process in Y
(PID.TID 0000.0001) > &EEPARMS
(PID.TID 0000.0001) > /
(PID.TID 0000.0001) ># Note: Some systems use & as the
(PID.TID 0000.0001) ># namelist terminator. Other systems
(PID.TID 0000.0001) ># use a / character (as shown here).
(PID.TID 0000.0001) 
(PID.TID 0000.0001) // =======================================================
(PID.TID 0000.0001) // Computational Grid Specification ( see files "SIZE.h" )
(PID.TID 0000.0001) //                                  ( and "eedata"       )
(PID.TID 0000.0001) // =======================================================
(PID.TID 0000.0001)      nPx =    1 ; /* No. processes in X */
(PID.TID 0000.0001)      nPy =    1 ; /* No. processes in Y */
(PID.TID 0000.0001)      nSx =    2 ; /* No. tiles in X per process */
(PID.TID 0000.0001)      nSy =    4 ; /* No. tiles in Y per process */
(PID.TID 0000.0001)      sNx =   25 ; /* Tile size in X */
(PID.TID 0000.0001)      sNy =   25 ; /* Tile size in Y */
(PID.TID 0000.0001)      OLx =    3 ; /* Tile overlap distance in X */
(PID.TID 0000.0001)      OLy =    3 ; /* Tile overlap distance in Y */
(PID.TID 0000.0001)      nTx =    1 ; /* No. threads in X per process */
(PID.TID 0000.0001)      nTy =    1 ; /* No. threads in Y per process */
(PID.TID 0000.0001)       Nr =   30 ; /* No. levels in the vertical   */
(PID.TID 0000.0001)       Nx =   50 ; /* Total domain size in X ( = nPx*nSx*sNx ) */
(PID.TID 0000.0001)       Ny =  100 ; /* Total domain size in Y ( = nPy*nSy*sNy ) */
(PID.TID 0000.0001)   nTiles =    8 ; /* Total no. tiles per process ( = nSx*nSy ) */
(PID.TID 0000.0001)   nProcs =    1 ; /* Total no. processes ( = nPx*nPy ) */
(PID.TID 0000.0001) nThreads =    1 ; /* Total no. threads per process ( = nTx*nTy ) */
(PID.TID 0000.0001) usingMPI =    F ; /* Flag used to control whether MPI is in use */
(PID.TID 0000.0001)                   /*  note: To execute a program with MPI calls */
(PID.TID 0000.0001)                   /*  it must be launched appropriately e.g     */
(PID.TID 0000.0001)                   /*  "mpirun -np 64 ......"                    */
(PID.TID 0000.0001) useCoupler=    F ;/* Flag used to control communications with   */
(PID.TID 0000.0001)                   /*  other model components, through a coupler */
(PID.TID 0000.0001) debugMode =    F ; /* print debug msg. (sequence of S/R calls)  */
(PID.TID 0000.0001) printMapIncludesZeros=    F ; /* print zeros in Std.Output maps */
(PID.TID 0000.0001) maxLengthPrt1D=   65 /* maxLength of 1D array printed to StdOut */
(PID.TID 0000.0001) 
(PID.TID 0000.0001) // ======================================================
(PID.TID 0000.0001) // Mapping of tiles to threads
(PID.TID 0000.0001) // ======================================================
(PID.TID 0000.0001) // -o- Thread   1, tiles (   1:   2,   1:   4)
(PID.TID 0000.0001) 
(PID.TID 0000.0001) // ======================================================
(PID.TID 0000.0001) // Tile <-> Tile connectvity table
(PID.TID 0000.0001) // ======================================================
(PID.TID 0000.0001) // Tile number: 000001 (process no. = 000000)
(PID.TID 0000.0001) //        WEST: Tile = 000002, Process = 000000, Comm = put
(PID.TID 0000.0001) //                bi = 000002, bj = 000001
(PID.TID 0000.0001) //        EAST: Tile = 000002, Process = 000000, Comm = put
(PID.TID 0000.0001) //                bi = 000002, bj = 000001
(PID.TID 0000.0001) //       SOUTH: Tile = 000007, Process = 000000, Comm = put
(PID.TID 0000.0001) //                bi = 000001, bj = 000004
(PID.TID 0000.0001) //       NORTH: Tile = 000003, Process = 000000, Comm = put
(PID.TID 0000.0001) //                bi = 000001, bj = 000002
(PID.TID 0000.0001) // Tile number: 000002 (process no. = 000000)
(PID.TID 0000.0001) //        WEST: Tile = 000001, Process = 000000, Comm = put
(PID.TID 0000.0001) //                bi = 000001, bj = 000001
(PID.TID 0000.0001) //        EAST: Tile = 000001, Process = 000000, Comm = put
(PID.TID 0000.0001) //                bi = 000001, bj = 000001
(PID.TID 0000.0001) //       SOUTH: Tile = 000008, Process = 000000, Comm = put
(PID.TID 0000.0001) //                bi = 000002, bj = 000004
(PID.TID 0000.0001) //       NORTH: Tile = 000004, Process = 000000, Comm = put
(PID.TID 0000.0001) //                bi = 000002, bj = 000002
(PID.TID 0000.0001) // Tile number: 000003 (process no. = 000000)
(PID.TID 0000.0001) //        WEST: Tile = 000004, Process = 000000, Comm = put
(PID.TID 0000.0001) //                bi = 000002, bj = 000002
(PID.TID 0000.0001) //        EAST: Tile = 000004, Process = 000000, Comm = put
(PID.TID 0000.0001) //                bi = 000002, bj = 000002
(PID.TID 0000.0001) //       SOUTH: Tile = 000001, Process = 000000, Comm = put
(PID.TID 0000.0001) //                bi = 000001, bj = 000001
(PID.TID 0000.0001) //       NORTH: Tile = 000005, Process = 000000, Comm = put
(PID.TID 0000.0001) //                bi = 000001, bj = 000003
(PID.TID 0000.0001) // Tile number: 000004 (process no. = 000000)
(PID.TID 0000.0001) //        WEST: Tile = 000003, Process = 000000, Comm = put
(PID.TID 0000.0001) //                bi = 000001, bj = 000002
(PID.TID 0000.0001) //        EAST: Tile = 000003, Process = 000000, Comm = put
(PID.TID 0000.0001) //                bi = 000001, bj = 000002
(PID.TID 0000.0001) //       SOUTH: Tile = 000002, Process = 000000, Comm = put
(PID.TID 0000.0001) //                bi = 000002, bj = 000001
(PID.TID 0000.0001) //       NORTH: Tile = 000006, Process = 000000, Comm = put
(PID.TID 0000.0001) //                bi = 000002, bj = 000003
(PID.TID 0000.0001) // Tile number: 000005 (process no. = 000000)
(PID.TID 0000.0001) //        WEST: Tile = 000006, Process = 000000, Comm = put
(PID.TID 0000.0001) //                bi = 000002, bj = 000003
(PID.TID 0000.0001) //        EAST: Tile = 000006, Process = 000000, Comm = put
(PID.TID 0000.0001) //                bi = 000002, bj = 000003
(PID.TID 0000.0001) //       SOUTH: Tile = 000003, Process = 000000, Comm = put
(PID.TID 0000.0001) //                bi = 000001, bj = 000002
(PID.TID 0000.0001) //       NORTH: Tile = 000007, Process = 000000, Comm = put
(PID.TID 0000.0001) //                bi = 000001, bj = 000004
(PID.TID 0000.0001) // Tile number: 000006 (process no. = 000000)
(PID.TID 0000.0001) //        WEST: Tile = 000005, Process = 000000, Comm = put
(PID.TID 0000.0001) //                bi = 000001, bj = 000003
(PID.TID 0000.0001) //        EAST: Tile = 000005, Process = 000000, Comm = put
(PID.TID 0000.0001) //                bi = 000001, bj = 000003
(PID.TID 0000.0001) //       SOUTH: Tile = 000004, Process = 000000, Comm = put
(PID.TID 0000.0001) //                bi = 000002, bj = 000002
(PID.TID 0000.0001) //       NORTH: Tile = 000008, Process = 000000, Comm = put
(PID.TID 0000.0001) //                bi = 000002, bj = 000004
(PID.TID 0000.0001) // Tile number: 000007 (process no. = 000000)
(PID.TID 0000.0001) //        WEST: Tile = 000008, Process = 000000, Comm = put
(PID.TID 0000.0001) //                bi = 000002, bj = 000004
(PID.TID 0000.0001) //        EAST: Tile = 000008, Process = 000000, Comm = put
(PID.TID 0000.0001) //                bi = 000002, bj = 000004
(PID.TID 0000.0001) //       SOUTH: Tile = 000005, Process = 000000, Comm = put
(PID.TID 0000.0001) //                bi = 000001, bj = 000003
(PID.TID 0000.0001) //       NORTH: Tile = 000001, Process = 000000, Comm = put
(PID.TID 0000.0001) //                bi = 000001, bj = 000001
(PID.TID 0000.0001) // Tile number: 000008 (process no. = 000000)
(PID.TID 0000.0001) //        WEST: Tile = 000007, Process = 000000, Comm = put
(PID.TID 0000.0001) //                bi = 000001, bj = 000004
(PID.TID 0000.0001) //        EAST: Tile = 000007, Process = 000000, Comm = put
(PID.TID 0000.0001) //                bi = 000001, bj = 000004
(PID.TID 0000.0001) //       SOUTH: Tile = 000006, Process = 000000, Comm = put
(PID.TID 0000.0001) //                bi = 000002, bj = 000003
(PID.TID 0000.0001) //       NORTH: Tile = 000002, Process = 000000, Comm = put
(PID.TID 0000.0001) //                bi = 000002, bj = 000001
(PID.TID 0000.0001) 
(PID.TID 0000.0001)  INI_PARMS: opening model parameter file "data"
(PID.TID 0000.0001)  OPEN_COPY_DATA_FILE: opening file data
(PID.TID 0000.0001) // =======================================================
(PID.TID 0000.0001) // Parameter file "data"
(PID.TID 0000.0001) // =======================================================
(PID.TID 0000.0001) ># ====================
(PID.TID 0000.0001) ># | Model parameters |
(PID.TID 0000.0001) ># ====================
(PID.TID 0000.0001) >#
(PID.TID 0000.0001) ># Continuous equation parameters
(PID.TID 0000.0001) > &PARM01
(PID.TID 0000.0001) > Tref = 30*-1.9,
(PID.TID 0000.0001) > Sref = 30*34.4,
(PID.TID 0000.0001) > viscAz=1.E-3,
(PID.TID 0000.0001) > viscAh=600.0,
(PID.TID 0000.0001) > no_slip_sides=.FALSE.,
(PID.TID 0000.0001) > diffKhT=100.0,
(PID.TID 0000.0001) > diffKzT=5.E-5,
(PID.TID 0000.0001) > diffKhS=100.0,
(PID.TID 0000.0001) > diffKzS=5.E-5,
(PID.TID 0000.0001) > bottomDragQuadratic=2.5E-3,
(PID.TID 0000.0001) > eosType='JMD95Z',
(PID.TID 0000.0001) > HeatCapacity_cp = 3974.0,
(PID.TID 0000.0001) > rhoConst=1030.,
(PID.TID 0000.0001) > rhoNil=1030.,
(PID.TID 0000.0001) > gravity=9.81,
(PID.TID 0000.0001) > convertFW2Salt = 33.4,
(PID.TID 0000.0001) > rigidLid=.FALSE.,
(PID.TID 0000.0001) > implicitFreeSurface=.TRUE.,
(PID.TID 0000.0001) > exactConserv=.TRUE.,
(PID.TID 0000.0001) > nonlinFreeSurf=4,
(PID.TID 0000.0001) > hFacInf=0.02,
(PID.TID 0000.0001) > hFacMin=0.05,
(PID.TID 0000.0001) > nonHydrostatic=.FALSE.,
(PID.TID 0000.0001) > useCDScheme = .TRUE.,
(PID.TID 0000.0001) > readBinaryPrec=64,
(PID.TID 0000.0001) > /
(PID.TID 0000.0001) >
(PID.TID 0000.0001) ># Elliptic solver parameters
(PID.TID 0000.0001) > &PARM02
(PID.TID 0000.0001) > cg2dMaxIters=1000,
(PID.TID 0000.0001) > cg2dTargetResidual=1.E-13,
(PID.TID 0000.0001) > cg3dMaxIters=400,
(PID.TID 0000.0001) > cg3dTargetResidual=1.E-13,
(PID.TID 0000.0001) > /
(PID.TID 0000.0001) >
(PID.TID 0000.0001) ># Time stepping parameters
(PID.TID 0000.0001) > &PARM03
(PID.TID 0000.0001) > nIter0=0,
(PID.TID 0000.0001) > nTimeSteps=20,
(PID.TID 0000.0001) > deltaT=1800.0,
(PID.TID 0000.0001) > abEps=0.1,
(PID.TID 0000.0001) > cAdjFreq = -1.,
(PID.TID 0000.0001) > tauCD = 400000.,
(PID.TID 0000.0001) > pChkptFreq=0.0,
(PID.TID 0000.0001) > chkptFreq=0.0,
(PID.TID 0000.0001) > dumpFreq=0.0,
(PID.TID 0000.0001) > taveFreq=0.0,
(PID.TID 0000.0001) > monitorFreq=1.,
(PID.TID 0000.0001) > monitorSelect=2,
(PID.TID 0000.0001) > /
(PID.TID 0000.0001) >
(PID.TID 0000.0001) ># Gridding parameters
(PID.TID 0000.0001) > &PARM04
(PID.TID 0000.0001) > usingSphericalPolarGrid=.TRUE.,
(PID.TID 0000.0001) > ygOrigin = -80.0,
(PID.TID 0000.0001) > delX=50*0.3,
(PID.TID 0000.0001) > delY=100*0.1,
(PID.TID 0000.0001) > delZ=30*30.0,
(PID.TID 0000.0001) > /
(PID.TID 0000.0001) >
(PID.TID 0000.0001) ># Input datasets
(PID.TID 0000.0001) > &PARM05
(PID.TID 0000.0001) > bathyFile='bathy.box',
(PID.TID 0000.0001) > /
(PID.TID 0000.0001) 
(PID.TID 0000.0001)  INI_PARMS ; starts to read PARM01
(PID.TID 0000.0001)  INI_PARMS ; read PARM01 : OK
(PID.TID 0000.0001)  INI_PARMS ; starts to read PARM02
(PID.TID 0000.0001)  INI_PARMS ; read PARM02 : OK
(PID.TID 0000.0001)  INI_PARMS ; starts to read PARM03
(PID.TID 0000.0001)  INI_PARMS ; read PARM03 : OK
(PID.TID 0000.0001)  INI_PARMS ; starts to read PARM04
(PID.TID 0000.0001)  INI_PARMS ; read PARM04 : OK
(PID.TID 0000.0001)  INI_PARMS ; starts to read PARM05
(PID.TID 0000.0001)  INI_PARMS ; read PARM05 : OK
(PID.TID 0000.0001)  INI_PARMS: finished reading file "data"
(PID.TID 0000.0001)  PACKAGES_BOOT: opening data.pkg
(PID.TID 0000.0001)  OPEN_COPY_DATA_FILE: opening file data.pkg
(PID.TID 0000.0001) // =======================================================
(PID.TID 0000.0001) // Parameter file "data.pkg"
(PID.TID 0000.0001) // =======================================================
(PID.TID 0000.0001) ># Packages
(PID.TID 0000.0001) > &PACKAGES
(PID.TID 0000.0001) > useShelfIce=.TRUE.,
(PID.TID 0000.0001) >#useDiagnostics=.TRUE.,
(PID.TID 0000.0001) > useMNC=.TRUE.,
(PID.TID 0000.0001) > /
(PID.TID 0000.0001) 
(PID.TID 0000.0001)  PACKAGES_BOOT: finished reading data.pkg
(PID.TID 0000.0001)  PACKAGES_BOOT: On/Off package Summary
 --------  pkgs with a standard "usePKG" On/Off switch in "data.pkg":  --------
 pkg/kpp                  compiled but not used ( useKPP                   = F )
 pkg/shelfice             compiled   and   used ( useShelfIce              = T )
 pkg/icefront             compiled but not used ( useICEFRONT              = F )
 pkg/diagnostics          compiled but not used ( useDiagnostics           = F )
 pkg/mnc                  compiled   and   used ( useMNC                   = T )
 -------- pkgs without standard "usePKG" On/Off switch in "data.pkg":  --------
 pkg/generic_advdiff      compiled   and   used ( useGAD                   = T )
 pkg/mom_common           compiled   and   used ( momStepping              = T )
 pkg/mom_vecinv           compiled but not used ( +vectorInvariantMomentum = F )
 pkg/mom_fluxform         compiled   and   used ( & not vectorInvariantMom = T )
 pkg/cd_code              compiled   and   used ( useCDscheme              = T )
 pkg/monitor              compiled   and   used ( monitorFreq > 0.         = T )
 pkg/timeave              compiled but not used ( taveFreq > 0.            = F )
 pkg/debug                compiled but not used ( debugMode                = F )
 pkg/rw                   compiled   and   used
 pkg/mdsio                compiled   and   used
(PID.TID 0000.0001)  PACKAGES_BOOT: End of package Summary
(PID.TID 0000.0001) 
(PID.TID 0000.0001)  MNC_READPARMS: opening file 'data.mnc'
(PID.TID 0000.0001)  OPEN_COPY_DATA_FILE: opening file data.mnc
(PID.TID 0000.0001) // =======================================================
(PID.TID 0000.0001) // Parameter file "data.mnc"
(PID.TID 0000.0001) // =======================================================
(PID.TID 0000.0001) ># Example "data.mnc" file
(PID.TID 0000.0001) ># Lines beginning "#" are comments
(PID.TID 0000.0001) > &MNC_01
(PID.TID 0000.0001) ># mnc_echo_gvtypes=.FALSE.,
(PID.TID 0000.0001) ># mnc_use_indir=.FALSE.,
(PID.TID 0000.0001) > mnc_use_outdir=.TRUE.,
(PID.TID 0000.0001) > mnc_outdir_str='mnc_test_',
(PID.TID 0000.0001) >#mnc_outdir_date=.TRUE.,
(PID.TID 0000.0001) > monitor_mnc=.FALSE.,
(PID.TID 0000.0001) >#snapshot_mnc=.FALSE.,
(PID.TID 0000.0001) >#timeave_mnc=.FALSE.,
(PID.TID 0000.0001) > pickup_read_mnc=.FALSE.,
(PID.TID 0000.0001) > pickup_write_mnc=.FALSE.,
(PID.TID 0000.0001) > /
(PID.TID 0000.0001) ># Note: Some systems use & as the
(PID.TID 0000.0001) ># namelist terminator. Other systems
(PID.TID 0000.0001) ># use a / character (as shown here).
(PID.TID 0000.0001) 
(PID.TID 0000.0001)  MNC_READPARMS: finished reading data.mnc
(PID.TID 0000.0001)  SHELFICE_READPARMS: opening data.shelfice
(PID.TID 0000.0001)  OPEN_COPY_DATA_FILE: opening file data.shelfice
(PID.TID 0000.0001) // =======================================================
(PID.TID 0000.0001) // Parameter file "data.shelfice"
(PID.TID 0000.0001) // =======================================================
(PID.TID 0000.0001) ># ===================================
(PID.TID 0000.0001) ># | Parameters for SHELFICE package |
(PID.TID 0000.0001) ># ===================================
(PID.TID 0000.0001) > &SHELFICE_PARM01
(PID.TID 0000.0001) > SHELFICEconserve = .TRUE.,
(PID.TID 0000.0001) > SHELFICEboundaryLayer = .TRUE.,
(PID.TID 0000.0001) > SHELFICEtopoFile='icetopo.exp1',
(PID.TID 0000.0001) > SHELFICEloadAnomalyFile = 'phi0surf.exp1.jmd95z',
(PID.TID 0000.0001) > no_slip_shelfice = .false.,
(PID.TID 0000.0001) > SHELFICEwriteState = .TRUE.,
(PID.TID 0000.0001) > SHELFICEuseGammaFrict = .FALSE.,
(PID.TID 0000.0001) > /
(PID.TID 0000.0001) 
(PID.TID 0000.0001)  SHELFICE_READPARMS: finished reading data.shelfice
(PID.TID 0000.0001) SET_PARMS: done
(PID.TID 0000.0001) Enter INI_VERTICAL_GRID: setInterFDr=    T ; setCenterDr=    F
(PID.TID 0000.0001) %MON XC_max                       =   1.4850000000000E+01
(PID.TID 0000.0001) %MON XC_min                       =   1.5000000000000E-01
(PID.TID 0000.0001) %MON XC_mean                      =   7.5000000000000E+00
(PID.TID 0000.0001) %MON XC_sd                        =   4.3292609068985E+00
(PID.TID 0000.0001) %MON XG_max                       =   1.4700000000000E+01
(PID.TID 0000.0001) %MON XG_min                       =   1.1102230246252E-16
(PID.TID 0000.0001) %MON XG_mean                      =   7.3500000000000E+00
(PID.TID 0000.0001) %MON XG_sd                        =   4.3292609068985E+00
(PID.TID 0000.0001) %MON DXC_max                      =   1.1380125394806E+04
(PID.TID 0000.0001) %MON DXC_min                      =   5.8203914905589E+03
(PID.TID 0000.0001) %MON DXC_mean                     =   8.6215028627207E+03
(PID.TID 0000.0001) %MON DXC_sd                       =   1.6219001271572E+03
(PID.TID 0000.0001) %MON DXF_max                      =   1.1380125394806E+04
(PID.TID 0000.0001) %MON DXF_min                      =   5.8203914905589E+03
(PID.TID 0000.0001) %MON DXF_mean                     =   8.6215028627207E+03
(PID.TID 0000.0001) %MON DXF_sd                       =   1.6219001271572E+03
(PID.TID 0000.0001) %MON DXG_max                      =   1.1352761512017E+04
(PID.TID 0000.0001) %MON DXG_min                      =   5.7917296935586E+03
(PID.TID 0000.0001) %MON DXG_mean                     =   8.5934208253080E+03
(PID.TID 0000.0001) %MON DXG_sd                       =   1.6222785520817E+03
(PID.TID 0000.0001) %MON DXV_max                      =   1.1352761512017E+04
(PID.TID 0000.0001) %MON DXV_min                      =   5.7917296935586E+03
(PID.TID 0000.0001) %MON DXV_mean                     =   8.5934208253080E+03
(PID.TID 0000.0001) %MON DXV_sd                       =   1.6222785520817E+03
(PID.TID 0000.0001) %MON YC_max                       =  -7.0050000000001E+01
(PID.TID 0000.0001) %MON YC_min                       =  -7.9950000000000E+01
(PID.TID 0000.0001) %MON YC_mean                      =  -7.5000000000000E+01
(PID.TID 0000.0001) %MON YC_sd                        =   2.8866070047720E+00
(PID.TID 0000.0001) %MON YG_max                       =  -7.0100000000001E+01
(PID.TID 0000.0001) %MON YG_min                       =  -8.0000000000000E+01
(PID.TID 0000.0001) %MON YG_mean                      =  -7.5050000000000E+01
(PID.TID 0000.0001) %MON YG_sd                        =   2.8866070047721E+00
(PID.TID 0000.0001) %MON DYC_max                      =   1.1117747335204E+04
(PID.TID 0000.0001) %MON DYC_min                      =   1.1117747335204E+04
(PID.TID 0000.0001) %MON DYC_mean                     =   1.1117747335204E+04
(PID.TID 0000.0001) %MON DYC_sd                       =   4.1836756281555E-11
(PID.TID 0000.0001) %MON DYF_max                      =   1.1117747335204E+04
(PID.TID 0000.0001) %MON DYF_min                      =   1.1117747335204E+04
(PID.TID 0000.0001) %MON DYF_mean                     =   1.1117747335204E+04
(PID.TID 0000.0001) %MON DYF_sd                       =   4.1836756281555E-11
(PID.TID 0000.0001) %MON DYG_max                      =   1.1117747335204E+04
(PID.TID 0000.0001) %MON DYG_min                      =   1.1117747335204E+04
(PID.TID 0000.0001) %MON DYG_mean                     =   1.1117747335204E+04
(PID.TID 0000.0001) %MON DYG_sd                       =   4.1836756281555E-11
(PID.TID 0000.0001) %MON DYU_max                      =   1.1117747335204E+04
(PID.TID 0000.0001) %MON DYU_min                      =   1.1117747335204E+04
(PID.TID 0000.0001) %MON DYU_mean                     =   1.1117747335204E+04
(PID.TID 0000.0001) %MON DYU_sd                       =   4.1836756281555E-11
(PID.TID 0000.0001) %MON RA_max                       =   1.2652134272379E+08
(PID.TID 0000.0001) %MON RA_min                       =   6.4709633770803E+07
(PID.TID 0000.0001) %MON RA_mean                      =   9.5851678311587E+07
(PID.TID 0000.0001) %MON RA_sd                        =   1.8031873527992E+07
(PID.TID 0000.0001) %MON RAW_max                      =   1.2652134272379E+08
(PID.TID 0000.0001) %MON RAW_min                      =   6.4709633770803E+07
(PID.TID 0000.0001) %MON RAW_mean                     =   9.5851678311587E+07
(PID.TID 0000.0001) %MON RAW_sd                       =   1.8031873527992E+07
(PID.TID 0000.0001) %MON RAS_max                      =   1.2621711802744E+08
(PID.TID 0000.0001) %MON RAS_min                      =   6.4390979194019E+07
(PID.TID 0000.0001) %MON RAS_mean                     =   9.5539469354603E+07
(PID.TID 0000.0001) %MON RAS_sd                       =   1.8036080760153E+07
(PID.TID 0000.0001) %MON RAZ_max                      =   1.2621711802744E+08
(PID.TID 0000.0001) %MON RAZ_min                      =   6.4390979194019E+07
(PID.TID 0000.0001) %MON RAZ_mean                     =   9.5539469354603E+07
(PID.TID 0000.0001) %MON RAZ_sd                       =   1.8036080760153E+07
(PID.TID 0000.0001) %MON AngleCS_max                  =   1.0000000000000E+00
(PID.TID 0000.0001) %MON AngleCS_min                  =   1.0000000000000E+00
(PID.TID 0000.0001) %MON AngleCS_mean                 =   1.0000000000000E+00
(PID.TID 0000.0001) %MON AngleCS_sd                   =   0.0000000000000E+00
(PID.TID 0000.0001) %MON AngleSN_max                  =   0.0000000000000E+00
(PID.TID 0000.0001) %MON AngleSN_min                  =   0.0000000000000E+00
(PID.TID 0000.0001) %MON AngleSN_mean                 =   0.0000000000000E+00
(PID.TID 0000.0001) %MON AngleSN_sd                   =   0.0000000000000E+00
(PID.TID 0000.0001)  MDS_READ_FIELD: opening global file: bathy.box
(PID.TID 0000.0001)  MDS_READ_FIELD: opening global file: icetopo.exp1
(PID.TID 0000.0001) // =======================================================
(PID.TID 0000.0001) // Field Model R_low (ini_masks_etc)
(PID.TID 0000.0001) // CMIN =         -9.000000000000000E+02
(PID.TID 0000.0001) // CMAX =         -9.000000000000000E+02
(PID.TID 0000.0001) // CINT =          0.000000000000000E+00
(PID.TID 0000.0001) // SYMBOLS (CMIN->CMAX): -abcdefghijklmnopqrstuvwxyz+
(PID.TID 0000.0001) //                  0.0: .
(PID.TID 0000.0001) // RANGE I (Lo:Hi:Step):(    -2:    53:     1)
(PID.TID 0000.0001) // RANGE J (Lo:Hi:Step):(   103:    -2:    -1)
(PID.TID 0000.0001) // RANGE K (Lo:Hi:Step):(   1:   1:   1)
(PID.TID 0000.0001) // =======================================================
(PID.TID 0000.0001) // =======================================================
(PID.TID 0000.0001) // END OF FIELD                                          =
(PID.TID 0000.0001) // =======================================================
(PID.TID 0000.0001) 
(PID.TID 0000.0001) // =======================================================
(PID.TID 0000.0001) // Field Model Ro_surf (ini_masks_etc)
(PID.TID 0000.0001) // CMIN =         -6.812500000000010E+02
(PID.TID 0000.0001) // CMAX =         -2.000000000000000E+02
(PID.TID 0000.0001) // CINT =          1.782407407407411E+01
(PID.TID 0000.0001) // SYMBOLS (CMIN->CMAX): -abcdefghijklmnopqrstuvwxyz+
(PID.TID 0000.0001) //                  0.0: .
(PID.TID 0000.0001) // RANGE I (Lo:Hi:Step):(    -2:    53:     1)
(PID.TID 0000.0001) // RANGE J (Lo:Hi:Step):(   103:    -2:    -1)
(PID.TID 0000.0001) // RANGE K (Lo:Hi:Step):(   1:   1:   1)
(PID.TID 0000.0001) // =======================================================
(PID.TID 0000.0001) K =   1
(PID.TID 0000.0001) //                I=7       I=17      I=27      I=31      I=41      I=51
(PID.TID 0000.0001) // |--J--|210123456|890123456|890123456|834567890|234567890|234567890|23
(PID.TID 0000.0001) //    103 aaa.aaaaaaaaaaaaaaaaaaaaaaaaaaaaaaaaaaaaaaaaaaaaaaaaaaaaaaa.aa
(PID.TID 0000.0001) //    102 ---.-------------------------------------------------------.--
(PID.TID 0000.0001) //    101 ..............................................................
(PID.TID 0000.0001) //    100 +++.+++++++++++++++++++++++++++++++++++++++++++++++++++++++.++
(PID.TID 0000.0001) //     99 +++.+++++++++++++++++++++++++++++++++++++++++++++++++++++++.++
(PID.TID 0000.0001) //     98 +++.+++++++++++++++++++++++++++++++++++++++++++++++++++++++.++
(PID.TID 0000.0001) //     97 +++.+++++++++++++++++++++++++++++++++++++++++++++++++++++++.++
(PID.TID 0000.0001) //     96 +++.+++++++++++++++++++++++++++++++++++++++++++++++++++++++.++
(PID.TID 0000.0001) //     95 +++.+++++++++++++++++++++++++++++++++++++++++++++++++++++++.++
(PID.TID 0000.0001) //     94 +++.+++++++++++++++++++++++++++++++++++++++++++++++++++++++.++
(PID.TID 0000.0001) //     93 +++.+++++++++++++++++++++++++++++++++++++++++++++++++++++++.++
(PID.TID 0000.0001) //     92 +++.+++++++++++++++++++++++++++++++++++++++++++++++++++++++.++
(PID.TID 0000.0001) //     91 +++.+++++++++++++++++++++++++++++++++++++++++++++++++++++++.++
(PID.TID 0000.0001) //     90 +++.+++++++++++++++++++++++++++++++++++++++++++++++++++++++.++
(PID.TID 0000.0001) //     89 +++.+++++++++++++++++++++++++++++++++++++++++++++++++++++++.++
(PID.TID 0000.0001) //     88 +++.+++++++++++++++++++++++++++++++++++++++++++++++++++++++.++
(PID.TID 0000.0001) //     87 +++.+++++++++++++++++++++++++++++++++++++++++++++++++++++++.++
(PID.TID 0000.0001) //     86 +++.+++++++++++++++++++++++++++++++++++++++++++++++++++++++.++
(PID.TID 0000.0001) //     85 +++.+++++++++++++++++++++++++++++++++++++++++++++++++++++++.++
(PID.TID 0000.0001) //     84 +++.+++++++++++++++++++++++++++++++++++++++++++++++++++++++.++
(PID.TID 0000.0001) //     83 +++.+++++++++++++++++++++++++++++++++++++++++++++++++++++++.++
(PID.TID 0000.0001) //     82 +++.+++++++++++++++++++++++++++++++++++++++++++++++++++++++.++
(PID.TID 0000.0001) //     81 +++.+++++++++++++++++++++++++++++++++++++++++++++++++++++++.++
(PID.TID 0000.0001) //     80 +++.+++++++++++++++++++++++++++++++++++++++++++++++++++++++.++
(PID.TID 0000.0001) //     79 +++.+++++++++++++++++++++++++++++++++++++++++++++++++++++++.++
(PID.TID 0000.0001) //     78 +++.+++++++++++++++++++++++++++++++++++++++++++++++++++++++.++
(PID.TID 0000.0001) //     77 +++.+++++++++++++++++++++++++++++++++++++++++++++++++++++++.++
(PID.TID 0000.0001) //     76 +++.+++++++++++++++++++++++++++++++++++++++++++++++++++++++.++
(PID.TID 0000.0001) //     75 +++.+++++++++++++++++++++++++++++++++++++++++++++++++++++++.++
(PID.TID 0000.0001) //     74 +++.+++++++++++++++++++++++++++++++++++++++++++++++++++++++.++
(PID.TID 0000.0001) //     73 +++.+++++++++++++++++++++++++++++++++++++++++++++++++++++++.++
(PID.TID 0000.0001) //     78 +++.+++++++++++++++++++++++++++++++++++++++++++++++++++++++.++
(PID.TID 0000.0001) //     77 +++.+++++++++++++++++++++++++++++++++++++++++++++++++++++++.++
(PID.TID 0000.0001) //     76 +++.+++++++++++++++++++++++++++++++++++++++++++++++++++++++.++
(PID.TID 0000.0001) //     75 +++.+++++++++++++++++++++++++++++++++++++++++++++++++++++++.++
(PID.TID 0000.0001) //     74 +++.+++++++++++++++++++++++++++++++++++++++++++++++++++++++.++
(PID.TID 0000.0001) //     73 +++.+++++++++++++++++++++++++++++++++++++++++++++++++++++++.++
(PID.TID 0000.0001) //     72 +++.+++++++++++++++++++++++++++++++++++++++++++++++++++++++.++
(PID.TID 0000.0001) //     71 +++.+++++++++++++++++++++++++++++++++++++++++++++++++++++++.++
(PID.TID 0000.0001) //     70 +++.+++++++++++++++++++++++++++++++++++++++++++++++++++++++.++
(PID.TID 0000.0001) //     69 +++.+++++++++++++++++++++++++++++++++++++++++++++++++++++++.++
(PID.TID 0000.0001) //     68 +++.+++++++++++++++++++++++++++++++++++++++++++++++++++++++.++
(PID.TID 0000.0001) //     67 +++.+++++++++++++++++++++++++++++++++++++++++++++++++++++++.++
(PID.TID 0000.0001) //     66 +++.+++++++++++++++++++++++++++++++++++++++++++++++++++++++.++
(PID.TID 0000.0001) //     65 +++.+++++++++++++++++++++++++++++++++++++++++++++++++++++++.++
(PID.TID 0000.0001) //     64 +++.+++++++++++++++++++++++++++++++++++++++++++++++++++++++.++
(PID.TID 0000.0001) //     63 +++.+++++++++++++++++++++++++++++++++++++++++++++++++++++++.++
(PID.TID 0000.0001) //     62 +++.+++++++++++++++++++++++++++++++++++++++++++++++++++++++.++
(PID.TID 0000.0001) //     61 +++.+++++++++++++++++++++++++++++++++++++++++++++++++++++++.++
(PID.TID 0000.0001) //     60 +++.+++++++++++++++++++++++++++++++++++++++++++++++++++++++.++
(PID.TID 0000.0001) //     59 +++.+++++++++++++++++++++++++++++++++++++++++++++++++++++++.++
(PID.TID 0000.0001) //     58 +++.+++++++++++++++++++++++++++++++++++++++++++++++++++++++.++
(PID.TID 0000.0001) //     57 +++.+++++++++++++++++++++++++++++++++++++++++++++++++++++++.++
(PID.TID 0000.0001) //     56 +++.+++++++++++++++++++++++++++++++++++++++++++++++++++++++.++
(PID.TID 0000.0001) //     55 +++.+++++++++++++++++++++++++++++++++++++++++++++++++++++++.++
(PID.TID 0000.0001) //     54 +++.+++++++++++++++++++++++++++++++++++++++++++++++++++++++.++
(PID.TID 0000.0001) //     53 +++.+++++++++++++++++++++++++++++++++++++++++++++++++++++++.++
(PID.TID 0000.0001) //     52 +++.+++++++++++++++++++++++++++++++++++++++++++++++++++++++.++
(PID.TID 0000.0001) //     51 +++.+++++++++++++++++++++++++++++++++++++++++++++++++++++++.++
(PID.TID 0000.0001) //     50 +++.+++++++++++++++++++++++++++++++++++++++++++++++++++++++.++
(PID.TID 0000.0001) //     49 +++.+++++++++++++++++++++++++++++++++++++++++++++++++++++++.++
(PID.TID 0000.0001) //     48 +++.+++++++++++++++++++++++++++++++++++++++++++++++++++++++.++
(PID.TID 0000.0001) //     53 +++.+++++++++++++++++++++++++++++++++++++++++++++++++++++++.++
(PID.TID 0000.0001) //     52 +++.+++++++++++++++++++++++++++++++++++++++++++++++++++++++.++
(PID.TID 0000.0001) //     51 +++.+++++++++++++++++++++++++++++++++++++++++++++++++++++++.++
(PID.TID 0000.0001) //     50 +++.+++++++++++++++++++++++++++++++++++++++++++++++++++++++.++
(PID.TID 0000.0001) //     49 +++.+++++++++++++++++++++++++++++++++++++++++++++++++++++++.++
(PID.TID 0000.0001) //     48 +++.+++++++++++++++++++++++++++++++++++++++++++++++++++++++.++
(PID.TID 0000.0001) //     47 +++.+++++++++++++++++++++++++++++++++++++++++++++++++++++++.++
(PID.TID 0000.0001) //     46 +++.+++++++++++++++++++++++++++++++++++++++++++++++++++++++.++
(PID.TID 0000.0001) //     45 +++.+++++++++++++++++++++++++++++++++++++++++++++++++++++++.++
(PID.TID 0000.0001) //     44 +++.+++++++++++++++++++++++++++++++++++++++++++++++++++++++.++
(PID.TID 0000.0001) //     43 +++.+++++++++++++++++++++++++++++++++++++++++++++++++++++++.++
(PID.TID 0000.0001) //     42 +++.+++++++++++++++++++++++++++++++++++++++++++++++++++++++.++
(PID.TID 0000.0001) //     41 +++.+++++++++++++++++++++++++++++++++++++++++++++++++++++++.++
(PID.TID 0000.0001) //     40 +++.+++++++++++++++++++++++++++++++++++++++++++++++++++++++.++
(PID.TID 0000.0001) //     39 zzz.zzzzzzzzzzzzzzzzzzzzzzzzzzzzzzzzzzzzzzzzzzzzzzzzzzzzzzz.zz
(PID.TID 0000.0001) //     38 yyy.yyyyyyyyyyyyyyyyyyyyyyyyyyyyyyyyyyyyyyyyyyyyyyyyyyyyyyy.yy
(PID.TID 0000.0001) //     37 yyy.yyyyyyyyyyyyyyyyyyyyyyyyyyyyyyyyyyyyyyyyyyyyyyyyyyyyyyy.yy
(PID.TID 0000.0001) //     36 xxx.xxxxxxxxxxxxxxxxxxxxxxxxxxxxxxxxxxxxxxxxxxxxxxxxxxxxxxx.xx
(PID.TID 0000.0001) //     35 www.wwwwwwwwwwwwwwwwwwwwwwwwwwwwwwwwwwwwwwwwwwwwwwwwwwwwwww.ww
(PID.TID 0000.0001) //     34 vvv.vvvvvvvvvvvvvvvvvvvvvvvvvvvvvvvvvvvvvvvvvvvvvvvvvvvvvvv.vv
(PID.TID 0000.0001) //     33 vvv.vvvvvvvvvvvvvvvvvvvvvvvvvvvvvvvvvvvvvvvvvvvvvvvvvvvvvvv.vv
(PID.TID 0000.0001) //     32 uuu.uuuuuuuuuuuuuuuuuuuuuuuuuuuuuuuuuuuuuuuuuuuuuuuuuuuuuuu.uu
(PID.TID 0000.0001) //     31 ttt.ttttttttttttttttttttttttttttttttttttttttttttttttttttttt.tt
(PID.TID 0000.0001) //     30 ttt.ttttttttttttttttttttttttttttttttttttttttttttttttttttttt.tt
(PID.TID 0000.0001) //     29 sss.sssssssssssssssssssssssssssssssssssssssssssssssssssssss.ss
(PID.TID 0000.0001) //     28 rrr.rrrrrrrrrrrrrrrrrrrrrrrrrrrrrrrrrrrrrrrrrrrrrrrrrrrrrrr.rr
(PID.TID 0000.0001) //     27 rrr.rrrrrrrrrrrrrrrrrrrrrrrrrrrrrrrrrrrrrrrrrrrrrrrrrrrrrrr.rr
(PID.TID 0000.0001) //     26 qqq.qqqqqqqqqqqqqqqqqqqqqqqqqqqqqqqqqqqqqqqqqqqqqqqqqqqqqqq.qq
(PID.TID 0000.0001) //     25 ppp.ppppppppppppppppppppppppppppppppppppppppppppppppppppppp.pp
(PID.TID 0000.0001) //     24 ooo.ooooooooooooooooooooooooooooooooooooooooooooooooooooooo.oo
(PID.TID 0000.0001) //     23 ooo.ooooooooooooooooooooooooooooooooooooooooooooooooooooooo.oo
(PID.TID 0000.0001) //     28 rrr.rrrrrrrrrrrrrrrrrrrrrrrrrrrrrrrrrrrrrrrrrrrrrrrrrrrrrrr.rr
(PID.TID 0000.0001) //     27 rrr.rrrrrrrrrrrrrrrrrrrrrrrrrrrrrrrrrrrrrrrrrrrrrrrrrrrrrrr.rr
(PID.TID 0000.0001) //     26 qqq.qqqqqqqqqqqqqqqqqqqqqqqqqqqqqqqqqqqqqqqqqqqqqqqqqqqqqqq.qq
(PID.TID 0000.0001) //     25 ppp.ppppppppppppppppppppppppppppppppppppppppppppppppppppppp.pp
(PID.TID 0000.0001) //     24 ooo.ooooooooooooooooooooooooooooooooooooooooooooooooooooooo.oo
(PID.TID 0000.0001) //     23 ooo.ooooooooooooooooooooooooooooooooooooooooooooooooooooooo.oo
(PID.TID 0000.0001) //     22 nnn.nnnnnnnnnnnnnnnnnnnnnnnnnnnnnnnnnnnnnnnnnnnnnnnnnnnnnnn.nn
(PID.TID 0000.0001) //     21 mmm.mmmmmmmmmmmmmmmmmmmmmmmmmmmmmmmmmmmmmmmmmmmmmmmmmmmmmmm.mm
(PID.TID 0000.0001) //     20 mmm.mmmmmmmmmmmmmmmmmmmmmmmmmmmmmmmmmmmmmmmmmmmmmmmmmmmmmmm.mm
(PID.TID 0000.0001) //     19 lll.lllllllllllllllllllllllllllllllllllllllllllllllllllllll.ll
(PID.TID 0000.0001) //     18 kkk.kkkkkkkkkkkkkkkkkkkkkkkkkkkkkkkkkkkkkkkkkkkkkkkkkkkkkkk.kk
(PID.TID 0000.0001) //     17 kkk.kkkkkkkkkkkkkkkkkkkkkkkkkkkkkkkkkkkkkkkkkkkkkkkkkkkkkkk.kk
(PID.TID 0000.0001) //     16 jjj.jjjjjjjjjjjjjjjjjjjjjjjjjjjjjjjjjjjjjjjjjjjjjjjjjjjjjjj.jj
(PID.TID 0000.0001) //     15 iii.iiiiiiiiiiiiiiiiiiiiiiiiiiiiiiiiiiiiiiiiiiiiiiiiiiiiiii.ii
(PID.TID 0000.0001) //     14 hhh.hhhhhhhhhhhhhhhhhhhhhhhhhhhhhhhhhhhhhhhhhhhhhhhhhhhhhhh.hh
(PID.TID 0000.0001) //     13 hhh.hhhhhhhhhhhhhhhhhhhhhhhhhhhhhhhhhhhhhhhhhhhhhhhhhhhhhhh.hh
(PID.TID 0000.0001) //     12 ggg.ggggggggggggggggggggggggggggggggggggggggggggggggggggggg.gg
(PID.TID 0000.0001) //     11 fff.fffffffffffffffffffffffffffffffffffffffffffffffffffffff.ff
(PID.TID 0000.0001) //     10 fff.fffffffffffffffffffffffffffffffffffffffffffffffffffffff.ff
(PID.TID 0000.0001) //      9 eee.eeeeeeeeeeeeeeeeeeeeeeeeeeeeeeeeeeeeeeeeeeeeeeeeeeeeeee.ee
(PID.TID 0000.0001) //      8 ddd.ddddddddddddddddddddddddddddddddddddddddddddddddddddddd.dd
(PID.TID 0000.0001) //      7 ddd.ddddddddddddddddddddddddddddddddddddddddddddddddddddddd.dd
(PID.TID 0000.0001) //      6 ccc.ccccccccccccccccccccccccccccccccccccccccccccccccccccccc.cc
(PID.TID 0000.0001) //      5 bbb.bbbbbbbbbbbbbbbbbbbbbbbbbbbbbbbbbbbbbbbbbbbbbbbbbbbbbbb.bb
(PID.TID 0000.0001) //      4 aaa.aaaaaaaaaaaaaaaaaaaaaaaaaaaaaaaaaaaaaaaaaaaaaaaaaaaaaaa.aa
(PID.TID 0000.0001) //      3 aaa.aaaaaaaaaaaaaaaaaaaaaaaaaaaaaaaaaaaaaaaaaaaaaaaaaaaaaaa.aa
(PID.TID 0000.0001) //      2 ---.-------------------------------------------------------.--
(PID.TID 0000.0001) //      1 ..............................................................
(PID.TID 0000.0001) //      0 +++.+++++++++++++++++++++++++++++++++++++++++++++++++++++++.++
(PID.TID 0000.0001) //     -1 +++.+++++++++++++++++++++++++++++++++++++++++++++++++++++++.++
(PID.TID 0000.0001) //     -2 +++.+++++++++++++++++++++++++++++++++++++++++++++++++++++++.++
(PID.TID 0000.0001) // =======================================================
(PID.TID 0000.0001) // END OF FIELD                                          =
(PID.TID 0000.0001) // =======================================================
(PID.TID 0000.0001) 
(PID.TID 0000.0001) // =======================================================
(PID.TID 0000.0001) // Field hFacC at iteration          0
(PID.TID 0000.0001) // CMIN =          1.000000000000000E+32
(PID.TID 0000.0001) // CMAX =         -1.000000000000000E+32
(PID.TID 0000.0001) // CINT =          0.000000000000000E+00
(PID.TID 0000.0001) // SYMBOLS (CMIN->CMAX): -abcdefghijklmnopqrstuvwxyz+
(PID.TID 0000.0001) //                  0.0: .
(PID.TID 0000.0001) // RANGE I (Lo:Hi:Step):(    -2:    53:     1)
(PID.TID 0000.0001) // RANGE J (Lo:Hi:Step):(   103:    -2:    -1)
(PID.TID 0000.0001) // RANGE K (Lo:Hi:Step):(   1:   1:   1)
(PID.TID 0000.0001) // =======================================================
(PID.TID 0000.0001) // =======================================================
(PID.TID 0000.0001) // END OF FIELD                                          =
(PID.TID 0000.0001) // =======================================================
(PID.TID 0000.0001) 
(PID.TID 0000.0001) // =======================================================
(PID.TID 0000.0001) // Field hFacW at iteration          0
(PID.TID 0000.0001) // CMIN =          1.000000000000000E+32
(PID.TID 0000.0001) // CMAX =         -1.000000000000000E+32
(PID.TID 0000.0001) // CINT =          0.000000000000000E+00
(PID.TID 0000.0001) // SYMBOLS (CMIN->CMAX): -abcdefghijklmnopqrstuvwxyz+
(PID.TID 0000.0001) //                  0.0: .
(PID.TID 0000.0001) // RANGE I (Lo:Hi:Step):(    -2:    53:     1)
(PID.TID 0000.0001) // RANGE J (Lo:Hi:Step):(   103:    -2:    -1)
(PID.TID 0000.0001) // RANGE K (Lo:Hi:Step):(   1:   1:   1)
(PID.TID 0000.0001) // =======================================================
(PID.TID 0000.0001) // =======================================================
(PID.TID 0000.0001) // END OF FIELD                                          =
(PID.TID 0000.0001) // =======================================================
(PID.TID 0000.0001) 
(PID.TID 0000.0001) // =======================================================
(PID.TID 0000.0001) // Field hFacS at iteration          0
(PID.TID 0000.0001) // CMIN =          1.000000000000000E+32
(PID.TID 0000.0001) // CMAX =         -1.000000000000000E+32
(PID.TID 0000.0001) // CINT =          0.000000000000000E+00
(PID.TID 0000.0001) // SYMBOLS (CMIN->CMAX): -abcdefghijklmnopqrstuvwxyz+
(PID.TID 0000.0001) //                  0.0: .
(PID.TID 0000.0001) // RANGE I (Lo:Hi:Step):(    -2:    53:     1)
(PID.TID 0000.0001) // RANGE J (Lo:Hi:Step):(   103:    -2:    -1)
(PID.TID 0000.0001) // RANGE K (Lo:Hi:Step):(   1:   1:   1)
(PID.TID 0000.0001) // =======================================================
(PID.TID 0000.0001) // =======================================================
(PID.TID 0000.0001) // END OF FIELD                                          =
(PID.TID 0000.0001) // =======================================================
(PID.TID 0000.0001) 
(PID.TID 0000.0001) GAD_INIT_FIXED: GAD_OlMinSize=  1  0  1
(PID.TID 0000.0001) 
(PID.TID 0000.0001) // ===================================
(PID.TID 0000.0001) // GAD parameters :
(PID.TID 0000.0001) // ===================================
(PID.TID 0000.0001) tempAdvScheme =   /* Temp. Horiz.Advection scheme selector */
(PID.TID 0000.0001)                       2
(PID.TID 0000.0001)     ;
(PID.TID 0000.0001) tempVertAdvScheme =   /* Temp. Vert. Advection scheme selector */
(PID.TID 0000.0001)                       2
(PID.TID 0000.0001)     ;
(PID.TID 0000.0001) tempMultiDimAdvec =   /* use Muti-Dim Advec method for Temp */
(PID.TID 0000.0001)                   F
(PID.TID 0000.0001)     ;
(PID.TID 0000.0001) tempSOM_Advection = /* use 2nd Order Moment Advection for Temp */
(PID.TID 0000.0001)                   F
(PID.TID 0000.0001)     ;
(PID.TID 0000.0001) AdamsBashforthGt = /* apply Adams-Bashforth extrapolation on Gt */
(PID.TID 0000.0001)                   T
(PID.TID 0000.0001)     ;
(PID.TID 0000.0001) AdamsBashforth_T = /* apply Adams-Bashforth extrapolation on Temp */
(PID.TID 0000.0001)                   F
(PID.TID 0000.0001)     ;
(PID.TID 0000.0001) saltAdvScheme =   /* Salt. Horiz.advection scheme selector */
(PID.TID 0000.0001)                       2
(PID.TID 0000.0001)     ;
(PID.TID 0000.0001) saltVertAdvScheme =   /* Salt. Vert. Advection scheme selector */
(PID.TID 0000.0001)                       2
(PID.TID 0000.0001)     ;
(PID.TID 0000.0001) saltMultiDimAdvec =   /* use Muti-Dim Advec method for Salt */
(PID.TID 0000.0001)                   F
(PID.TID 0000.0001)     ;
(PID.TID 0000.0001) saltSOM_Advection = /* use 2nd Order Moment Advection for Salt */
(PID.TID 0000.0001)                   F
(PID.TID 0000.0001)     ;
(PID.TID 0000.0001) AdamsBashforthGs = /* apply Adams-Bashforth extrapolation on Gs */
(PID.TID 0000.0001)                   T
(PID.TID 0000.0001)     ;
(PID.TID 0000.0001) AdamsBashforth_S = /* apply Adams-Bashforth extrapolation on Salt */
(PID.TID 0000.0001)                   F
(PID.TID 0000.0001)     ;
(PID.TID 0000.0001) // ===================================
(PID.TID 0000.0001)  MDS_READ_FIELD: opening global file: phi0surf.exp1.jmd95z
(PID.TID 0000.0001) %MON fCori_max                    =  -1.3709057042516E-04
(PID.TID 0000.0001) %MON fCori_min                    =  -1.4360464034757E-04
(PID.TID 0000.0001) %MON fCori_mean                   =  -1.4069429304698E-04
(PID.TID 0000.0001) %MON fCori_sd                     =   1.9069739624987E-06
(PID.TID 0000.0001) %MON fCoriG_max                   =  -1.3713394327439E-04
(PID.TID 0000.0001) %MON fCoriG_min                   =  -1.4362679550910E-04
(PID.TID 0000.0001) %MON fCoriG_mean                  =  -1.4072713798624E-04
(PID.TID 0000.0001) %MON fCoriG_sd                    =   1.9008093726821E-06
(PID.TID 0000.0001) %MON fCoriCos_max                 =   4.9761447480159E-05
(PID.TID 0000.0001) %MON fCoriCos_min                 =   2.5450607565678E-05
(PID.TID 0000.0001) %MON fCoriCos_mean                =   3.7698922201606E-05
(PID.TID 0000.0001) %MON fCoriCos_sd                  =   7.0920218535055E-06
(PID.TID 0000.0001) INI_CG2D: CG2D normalisation factor =  1.0404366262810520E-03
(PID.TID 0000.0001) 
(PID.TID 0000.0001) // =======================================================
(PID.TID 0000.0001) // Model configuration
(PID.TID 0000.0001) // =======================================================
(PID.TID 0000.0001) //
(PID.TID 0000.0001) // "Physical" paramters ( PARM01 in namelist )
(PID.TID 0000.0001) //
(PID.TID 0000.0001) buoyancyRelation = /* Type of relation to get Buoyancy */
(PID.TID 0000.0001)               'OCEANIC'
(PID.TID 0000.0001)     ;
(PID.TID 0000.0001) fluidIsAir   =  /* fluid major constituent is Air */
(PID.TID 0000.0001)                   F
(PID.TID 0000.0001)     ;
(PID.TID 0000.0001) fluidIsWater =  /* fluid major constituent is Water */
(PID.TID 0000.0001)                   T
(PID.TID 0000.0001)     ;
(PID.TID 0000.0001) usingPCoords =  /* use p (or p*) vertical coordinate */
(PID.TID 0000.0001)                   F
(PID.TID 0000.0001)     ;
(PID.TID 0000.0001) usingZCoords =  /* use z (or z*) vertical coordinate */
(PID.TID 0000.0001)                   T
(PID.TID 0000.0001)     ;
(PID.TID 0000.0001) tRef =   /* Reference temperature profile ( oC or K ) */
(PID.TID 0000.0001)    30 @ -1.900000000000000E+00              /* K =  1: 30 */
(PID.TID 0000.0001)     ;
(PID.TID 0000.0001) sRef =   /* Reference salinity profile ( psu ) */
(PID.TID 0000.0001)    30 @  3.440000000000000E+01              /* K =  1: 30 */
(PID.TID 0000.0001)     ;
(PID.TID 0000.0001) useStrainTensionVisc= /* Use StrainTension Form of Viscous Operator */
(PID.TID 0000.0001)                   F
(PID.TID 0000.0001)     ;
(PID.TID 0000.0001) useVariableVisc = /* Use variable horizontal viscosity */
(PID.TID 0000.0001)                   F
(PID.TID 0000.0001)     ;
(PID.TID 0000.0001) useHarmonicVisc = /* Use harmonic horizontal viscosity */
(PID.TID 0000.0001)                   T
(PID.TID 0000.0001)     ;
(PID.TID 0000.0001) useBiharmonicVisc= /* Use biharmonic horiz.  viscosity */
(PID.TID 0000.0001)                   F
(PID.TID 0000.0001)     ;
(PID.TID 0000.0001) useSmag3D = /* Use isotropic 3-D Smagorinsky viscosity */
(PID.TID 0000.0001)                   F
(PID.TID 0000.0001)     ;
(PID.TID 0000.0001) viscAh  =   /* Lateral harmonic viscosity ( m^2/s ) */
(PID.TID 0000.0001)                 6.000000000000000E+02
(PID.TID 0000.0001)     ;
(PID.TID 0000.0001) viscA4  =   /* Lateral biharmonic viscosity ( m^4/s ) */
(PID.TID 0000.0001)                 0.000000000000000E+00
(PID.TID 0000.0001)     ;
(PID.TID 0000.0001) no_slip_sides =  /* Viscous BCs: No-slip sides */
(PID.TID 0000.0001)                   F
(PID.TID 0000.0001)     ;
(PID.TID 0000.0001) sideDragFactor = /* side-drag scaling factor (non-dim) */
(PID.TID 0000.0001)                 2.000000000000000E+00
(PID.TID 0000.0001)     ;
(PID.TID 0000.0001) viscArNr = /* vertical profile of vertical viscosity ( m^2/s )*/
(PID.TID 0000.0001)    30 @  1.000000000000000E-03              /* K =  1: 30 */
(PID.TID 0000.0001)     ;
(PID.TID 0000.0001) no_slip_bottom =  /* Viscous BCs: No-slip bottom */
(PID.TID 0000.0001)                   T
(PID.TID 0000.0001)     ;
(PID.TID 0000.0001) bottomDragLinear = /* linear bottom-drag coefficient ( m/s ) */
(PID.TID 0000.0001)                 0.000000000000000E+00
(PID.TID 0000.0001)     ;
(PID.TID 0000.0001) bottomDragQuadratic = /* quadratic bottom-drag coefficient (-) */
(PID.TID 0000.0001)                 2.500000000000000E-03
(PID.TID 0000.0001)     ;
(PID.TID 0000.0001) diffKhT =   /* Laplacian diffusion of heat laterally ( m^2/s ) */
(PID.TID 0000.0001)                 1.000000000000000E+02
(PID.TID 0000.0001)     ;
(PID.TID 0000.0001) diffK4T =   /* Biharmonic diffusion of heat laterally ( m^4/s ) */
(PID.TID 0000.0001)                 0.000000000000000E+00
(PID.TID 0000.0001)     ;
(PID.TID 0000.0001) diffKhS =   /* Laplacian diffusion of salt laterally ( m^2/s ) */
(PID.TID 0000.0001)                 1.000000000000000E+02
(PID.TID 0000.0001)     ;
(PID.TID 0000.0001) diffK4S =   /* Biharmonic diffusion of salt laterally ( m^4/s ) */
(PID.TID 0000.0001)                 0.000000000000000E+00
(PID.TID 0000.0001)     ;
(PID.TID 0000.0001) diffKrNrT = /* vertical profile of vertical diffusion of Temp ( m^2/s )*/
(PID.TID 0000.0001)    30 @  5.000000000000000E-05              /* K =  1: 30 */
(PID.TID 0000.0001)     ;
(PID.TID 0000.0001) diffKrNrS = /* vertical profile of vertical diffusion of Salt ( m^2/s )*/
(PID.TID 0000.0001)    30 @  5.000000000000000E-05              /* K =  1: 30 */
(PID.TID 0000.0001)     ;
(PID.TID 0000.0001) diffKrBL79surf = /* Surface diffusion for Bryan and Lewis 79 ( m^2/s ) */
(PID.TID 0000.0001)                 0.000000000000000E+00
(PID.TID 0000.0001)     ;
(PID.TID 0000.0001) diffKrBL79deep = /* Deep diffusion for Bryan and Lewis 1979 ( m^2/s ) */
(PID.TID 0000.0001)                 0.000000000000000E+00
(PID.TID 0000.0001)     ;
(PID.TID 0000.0001) diffKrBL79scl = /* Depth scale for Bryan and Lewis 1979 ( m ) */
(PID.TID 0000.0001)                 2.000000000000000E+02
(PID.TID 0000.0001)     ;
(PID.TID 0000.0001) diffKrBL79Ho = /* Turning depth for Bryan and Lewis 1979 ( m ) */
(PID.TID 0000.0001)                -2.000000000000000E+03
(PID.TID 0000.0001)     ;
(PID.TID 0000.0001) ivdc_kappa = /* Implicit Vertical Diffusivity for Convection ( m^2/s) */
(PID.TID 0000.0001)                 0.000000000000000E+00
(PID.TID 0000.0001)     ;
(PID.TID 0000.0001) hMixCriteria=  /* Criteria for mixed-layer diagnostic */
(PID.TID 0000.0001)                -8.000000000000000E-01
(PID.TID 0000.0001)     ;
(PID.TID 0000.0001) dRhoSmall =  /* Parameter for mixed-layer diagnostic */
(PID.TID 0000.0001)                 1.000000000000000E-06
(PID.TID 0000.0001)     ;
(PID.TID 0000.0001) hMixSmooth=  /* Smoothing parameter for mixed-layer diagnostic */
(PID.TID 0000.0001)                 0.000000000000000E+00
(PID.TID 0000.0001)     ;
(PID.TID 0000.0001) eosType =  /* Type of Equation of State */
(PID.TID 0000.0001)               'JMD95Z'
(PID.TID 0000.0001)     ;
(PID.TID 0000.0001) HeatCapacity_Cp =  /* Specific heat capacity ( J/kg/K ) */
(PID.TID 0000.0001)                 3.974000000000000E+03
(PID.TID 0000.0001)     ;
(PID.TID 0000.0001) celsius2K = /* 0 degree Celsius converted to Kelvin ( K ) */
(PID.TID 0000.0001)                 2.731500000000000E+02
(PID.TID 0000.0001)     ;
(PID.TID 0000.0001) rhoConst  = /* Reference density (Boussinesq)  ( kg/m^3 ) */
(PID.TID 0000.0001)                 1.030000000000000E+03
(PID.TID 0000.0001)     ;
(PID.TID 0000.0001) rhoFacC = /* normalized Reference density @ cell-Center (-) */
(PID.TID 0000.0001)    30 @  1.000000000000000E+00              /* K =  1: 30 */
(PID.TID 0000.0001)     ;
(PID.TID 0000.0001) rhoFacF = /* normalized Reference density @ W-Interface (-) */
(PID.TID 0000.0001)    31 @  1.000000000000000E+00              /* K =  1: 31 */
(PID.TID 0000.0001)     ;
(PID.TID 0000.0001) rhoConstFresh = /* Fresh-water reference density ( kg/m^3 ) */
(PID.TID 0000.0001)                 1.030000000000000E+03
(PID.TID 0000.0001)     ;
(PID.TID 0000.0001) gravity =   /* Gravitational acceleration ( m/s^2 ) */
(PID.TID 0000.0001)                 9.810000000000000E+00
(PID.TID 0000.0001)     ;
(PID.TID 0000.0001) gBaro =   /* Barotropic gravity ( m/s^2 ) */
(PID.TID 0000.0001)                 9.810000000000000E+00
(PID.TID 0000.0001)     ;
(PID.TID 0000.0001) rotationPeriod =   /* Rotation Period ( s ) */
(PID.TID 0000.0001)                 8.616400000000000E+04
(PID.TID 0000.0001)     ;
(PID.TID 0000.0001) omega =   /* Angular velocity ( rad/s ) */
(PID.TID 0000.0001)                 7.292123516990375E-05
(PID.TID 0000.0001)     ;
(PID.TID 0000.0001) f0 =   /* Reference coriolis parameter ( 1/s ) */
(PID.TID 0000.0001)                 1.000000000000000E-04
(PID.TID 0000.0001)     ;
(PID.TID 0000.0001) beta =   /* Beta ( 1/(m.s) ) */
(PID.TID 0000.0001)                 9.999999999999999E-12
(PID.TID 0000.0001)     ;
(PID.TID 0000.0001) fPrime =   /* Second coriolis parameter ( 1/s ) */
(PID.TID 0000.0001)                 0.000000000000000E+00
(PID.TID 0000.0001)     ;
(PID.TID 0000.0001) rigidLid =   /* Rigid lid on/off flag */
(PID.TID 0000.0001)                   F
(PID.TID 0000.0001)     ;
(PID.TID 0000.0001) implicitFreeSurface =   /* Implicit free surface on/off flag */
(PID.TID 0000.0001)                   T
(PID.TID 0000.0001)     ;
(PID.TID 0000.0001) freeSurfFac =   /* Implicit free surface factor */
(PID.TID 0000.0001)                 1.000000000000000E+00
(PID.TID 0000.0001)     ;
(PID.TID 0000.0001) implicSurfPress =  /* Surface Pressure implicit factor (0-1)*/
(PID.TID 0000.0001)                 1.000000000000000E+00
(PID.TID 0000.0001)     ;
(PID.TID 0000.0001) implicDiv2Dflow =  /* Barot. Flow Div. implicit factor (0-1)*/
(PID.TID 0000.0001)                 1.000000000000000E+00
(PID.TID 0000.0001)     ;
(PID.TID 0000.0001) uniformLin_PhiSurf = /* use uniform Bo_surf on/off flag*/
(PID.TID 0000.0001)                   T
(PID.TID 0000.0001)     ;
(PID.TID 0000.0001) uniformFreeSurfLev = /* free-surface level-index is uniform */
(PID.TID 0000.0001)                   F
(PID.TID 0000.0001)     ;
(PID.TID 0000.0001) hFacMin =   /* minimum partial cell factor (hFac) */
(PID.TID 0000.0001)                 5.000000000000000E-02
(PID.TID 0000.0001)     ;
(PID.TID 0000.0001) hFacMinDr = /* minimum partial cell thickness ( m) */
(PID.TID 0000.0001)                 0.000000000000000E+00
(PID.TID 0000.0001)     ;
(PID.TID 0000.0001) exactConserv =  /* Exact Volume Conservation on/off flag*/
(PID.TID 0000.0001)                   T
(PID.TID 0000.0001)     ;
(PID.TID 0000.0001) linFSConserveTr = /* Tracer correction for Lin Free Surface on/off flag*/
(PID.TID 0000.0001)                   F
(PID.TID 0000.0001)     ;
(PID.TID 0000.0001) nonlinFreeSurf = /* Non-linear Free Surf. options (-1,0,1,2,3)*/
(PID.TID 0000.0001)                       4
(PID.TID 0000.0001)      -1,0= Off ; 1,2,3= On, 2=+rescale gU,gV, 3=+update cg2d solv.
(PID.TID 0000.0001)     ;
(PID.TID 0000.0001) hFacInf =   /* lower threshold for hFac (nonlinFreeSurf only)*/
(PID.TID 0000.0001)                 2.000000000000000E-02
(PID.TID 0000.0001)     ;
(PID.TID 0000.0001) hFacSup =   /* upper threshold for hFac (nonlinFreeSurf only)*/
(PID.TID 0000.0001)                 2.000000000000000E+00
(PID.TID 0000.0001)     ;
(PID.TID 0000.0001) select_rStar = /* r* Vertical coord. options (=0 r coord.; >0 uses r*)*/
(PID.TID 0000.0001)                       0
(PID.TID 0000.0001)     ;
(PID.TID 0000.0001) useRealFreshWaterFlux = /* Real Fresh Water Flux on/off flag*/
(PID.TID 0000.0001)                   F
(PID.TID 0000.0001)     ;
(PID.TID 0000.0001) temp_EvPrRn = /* Temp. of Evap/Prec/R (UNSET=use local T)(oC)*/
(PID.TID 0000.0001)                 1.234567000000000E+05
(PID.TID 0000.0001)     ;
(PID.TID 0000.0001) salt_EvPrRn = /* Salin. of Evap/Prec/R (UNSET=use local S)(psu)*/
(PID.TID 0000.0001)                 0.000000000000000E+00
(PID.TID 0000.0001)     ;
(PID.TID 0000.0001) selectAddFluid = /* option for mass source/sink of fluid (=0: off) */
(PID.TID 0000.0001)                       0
(PID.TID 0000.0001)     ;
(PID.TID 0000.0001) temp_addMass = /* Temp. of addMass array (UNSET=use local T)(oC)*/
(PID.TID 0000.0001)                 1.234567000000000E+05
(PID.TID 0000.0001)     ;
(PID.TID 0000.0001) salt_addMass = /* Salin. of addMass array (UNSET=use local S)(psu)*/
(PID.TID 0000.0001)                 0.000000000000000E+00
(PID.TID 0000.0001)     ;
(PID.TID 0000.0001) convertFW2Salt = /* convert F.W. Flux to Salt Flux (-1=use local S)(psu)*/
(PID.TID 0000.0001)                 3.340000000000000E+01
(PID.TID 0000.0001)     ;
(PID.TID 0000.0001) use3Dsolver = /* use 3-D pressure solver on/off flag */
(PID.TID 0000.0001)                   F
(PID.TID 0000.0001)     ;
(PID.TID 0000.0001) nonHydrostatic =  /* Non-Hydrostatic on/off flag */
(PID.TID 0000.0001)                   F
(PID.TID 0000.0001)     ;
(PID.TID 0000.0001) nh_Am2 = /* Non-Hydrostatic terms scaling factor */
(PID.TID 0000.0001)                 1.000000000000000E+00
(PID.TID 0000.0001)     ;
(PID.TID 0000.0001) implicitNHPress = /* Non-Hyd Pressure implicit factor (0-1)*/
(PID.TID 0000.0001)                 1.000000000000000E+00
(PID.TID 0000.0001)     ;
(PID.TID 0000.0001) selectNHfreeSurf = /* Non-Hyd (free-)Surface option */
(PID.TID 0000.0001)                       0
(PID.TID 0000.0001)     ;
(PID.TID 0000.0001) quasiHydrostatic = /* Quasi-Hydrostatic on/off flag */
(PID.TID 0000.0001)                   F
(PID.TID 0000.0001)     ;
(PID.TID 0000.0001) calc_wVelocity = /* vertical velocity calculation on/off flag */
(PID.TID 0000.0001)                   T
(PID.TID 0000.0001)     ;
(PID.TID 0000.0001) momStepping =  /* Momentum equation on/off flag */
(PID.TID 0000.0001)                   T
(PID.TID 0000.0001)     ;
(PID.TID 0000.0001) vectorInvariantMomentum= /* Vector-Invariant Momentum on/off */
(PID.TID 0000.0001)                   F
(PID.TID 0000.0001)     ;
(PID.TID 0000.0001) momAdvection =  /* Momentum advection on/off flag */
(PID.TID 0000.0001)                   T
(PID.TID 0000.0001)     ;
(PID.TID 0000.0001) momViscosity =  /* Momentum viscosity on/off flag */
(PID.TID 0000.0001)                   T
(PID.TID 0000.0001)     ;
(PID.TID 0000.0001) momImplVertAdv= /* Momentum implicit vert. advection on/off*/
(PID.TID 0000.0001)                   F
(PID.TID 0000.0001)     ;
(PID.TID 0000.0001) implicitViscosity = /* Implicit viscosity on/off flag */
(PID.TID 0000.0001)                   F
(PID.TID 0000.0001)     ;
(PID.TID 0000.0001) metricTerms =  /* metric-Terms on/off flag */
(PID.TID 0000.0001)                   T
(PID.TID 0000.0001)     ;
(PID.TID 0000.0001) useNHMTerms = /* Non-Hydrostatic Metric-Terms on/off */
(PID.TID 0000.0001)                   F
(PID.TID 0000.0001)     ;
(PID.TID 0000.0001) selectCoriMap = /* Coriolis Map options (0,1,2,3)*/
(PID.TID 0000.0001)                       2
(PID.TID 0000.0001)     0= f-Plane ; 1= Beta-Plane ; 2= Spherical ; 3= read from file
(PID.TID 0000.0001)     ;
(PID.TID 0000.0001) use3dCoriolis = /* 3-D Coriolis on/off flag */
(PID.TID 0000.0001)                   F
(PID.TID 0000.0001)     ;
(PID.TID 0000.0001) useCoriolis =  /* Coriolis on/off flag */
(PID.TID 0000.0001)                   T
(PID.TID 0000.0001)     ;
(PID.TID 0000.0001) useCDscheme =  /* CD scheme on/off flag */
(PID.TID 0000.0001)                   T
(PID.TID 0000.0001)     ;
(PID.TID 0000.0001) useEnergyConservingCoriolis= /* Flx-Form Coriolis scheme flag */
(PID.TID 0000.0001)                   F
(PID.TID 0000.0001)     ;
(PID.TID 0000.0001) useJamartWetPoints= /* Coriolis WetPoints method flag */
(PID.TID 0000.0001)                   F
(PID.TID 0000.0001)     ;
(PID.TID 0000.0001) useJamartMomAdv= /* V.I Non-linear terms Jamart flag */
(PID.TID 0000.0001)                   F
(PID.TID 0000.0001)     ;
(PID.TID 0000.0001) useAbsVorticity= /* V.I Works with f+zeta in Coriolis */
(PID.TID 0000.0001)                   F
(PID.TID 0000.0001)     ;
(PID.TID 0000.0001) selectVortScheme= /* V.I Scheme selector for Vorticity-Term */
(PID.TID 0000.0001)               123456789
(PID.TID 0000.0001)    = 0 : enstrophy (Shallow-Water Eq.) conserving scheme by Sadourny, JAS 75
(PID.TID 0000.0001)    = 1 : same as 0 with modified hFac
(PID.TID 0000.0001)    = 2 : energy conserving scheme (used by Sadourny in JAS 75 paper)
(PID.TID 0000.0001)    = 3 : energy (general) and enstrophy (2D, nonDiv.) conserving scheme
(PID.TID 0000.0001)          from Sadourny (Burridge & Haseler, ECMWF Rep.4, 1977)
(PID.TID 0000.0001)     ;
(PID.TID 0000.0001) upwindVorticity= /* V.I Upwind bias vorticity flag */
(PID.TID 0000.0001)                   F
(PID.TID 0000.0001)     ;
(PID.TID 0000.0001) highOrderVorticity= /* V.I High order vort. advect. flag */
(PID.TID 0000.0001)                   F
(PID.TID 0000.0001)     ;
(PID.TID 0000.0001) upwindShear= /* V.I Upwind vertical Shear advection flag */
(PID.TID 0000.0001)                   F
(PID.TID 0000.0001)     ;
(PID.TID 0000.0001) selectKEscheme= /* V.I Kinetic Energy scheme selector */
(PID.TID 0000.0001)                       0
(PID.TID 0000.0001)     ;
(PID.TID 0000.0001) momForcing =  /* Momentum forcing on/off flag */
(PID.TID 0000.0001)                   T
(PID.TID 0000.0001)     ;
(PID.TID 0000.0001) momPressureForcing =  /* Momentum pressure term on/off flag */
(PID.TID 0000.0001)                   T
(PID.TID 0000.0001)     ;
(PID.TID 0000.0001) implicitIntGravWave= /* Implicit Internal Gravity Wave flag */
(PID.TID 0000.0001)                   F
(PID.TID 0000.0001)     ;
(PID.TID 0000.0001) staggerTimeStep =    /* Stagger time stepping on/off flag */
(PID.TID 0000.0001)                   F
(PID.TID 0000.0001)     ;
(PID.TID 0000.0001) doResetHFactors = /* reset thickness factors @ each time-step */
(PID.TID 0000.0001)                   F
(PID.TID 0000.0001)     ;
(PID.TID 0000.0001) multiDimAdvection =  /* enable/disable Multi-Dim Advection */
(PID.TID 0000.0001)                   T
(PID.TID 0000.0001)     ;
(PID.TID 0000.0001) useMultiDimAdvec =   /* Multi-Dim Advection is/is-not used */
(PID.TID 0000.0001)                   F
(PID.TID 0000.0001)     ;
(PID.TID 0000.0001) implicitDiffusion = /* Implicit Diffusion on/off flag */
(PID.TID 0000.0001)                   F
(PID.TID 0000.0001)     ;
(PID.TID 0000.0001) tempStepping =  /* Temperature equation on/off flag */
(PID.TID 0000.0001)                   T
(PID.TID 0000.0001)     ;
(PID.TID 0000.0001) tempAdvection = /* Temperature advection on/off flag */
(PID.TID 0000.0001)                   T
(PID.TID 0000.0001)     ;
(PID.TID 0000.0001) tempImplVertAdv = /* Temp. implicit vert. advection on/off */
(PID.TID 0000.0001)                   F
(PID.TID 0000.0001)     ;
(PID.TID 0000.0001) tempForcing  =  /* Temperature forcing on/off flag */
(PID.TID 0000.0001)                   T
(PID.TID 0000.0001)     ;
(PID.TID 0000.0001) doThetaClimRelax = /* apply SST relaxation on/off flag */
(PID.TID 0000.0001)                   F
(PID.TID 0000.0001)     ;
(PID.TID 0000.0001) tempIsActiveTr = /* Temp. is a dynamically Active Tracer */
(PID.TID 0000.0001)                   T
(PID.TID 0000.0001)     ;
(PID.TID 0000.0001) saltStepping =  /* Salinity equation on/off flag */
(PID.TID 0000.0001)                   T
(PID.TID 0000.0001)     ;
(PID.TID 0000.0001) saltAdvection = /* Salinity advection on/off flag */
(PID.TID 0000.0001)                   T
(PID.TID 0000.0001)     ;
(PID.TID 0000.0001) saltImplVertAdv = /* Sali. implicit vert. advection on/off */
(PID.TID 0000.0001)                   F
(PID.TID 0000.0001)     ;
(PID.TID 0000.0001) saltForcing  =  /* Salinity forcing on/off flag */
(PID.TID 0000.0001)                   T
(PID.TID 0000.0001)     ;
(PID.TID 0000.0001) doSaltClimRelax = /* apply SSS relaxation on/off flag */
(PID.TID 0000.0001)                   F
(PID.TID 0000.0001)     ;
(PID.TID 0000.0001) saltIsActiveTr = /* Salt  is a dynamically Active Tracer */
(PID.TID 0000.0001)                   T
(PID.TID 0000.0001)     ;
(PID.TID 0000.0001)  readBinaryPrec = /* Precision used for reading binary files */
(PID.TID 0000.0001)                      64
(PID.TID 0000.0001)     ;
(PID.TID 0000.0001) writeBinaryPrec = /* Precision used for writing binary files */
(PID.TID 0000.0001)                      32
(PID.TID 0000.0001)     ;
(PID.TID 0000.0001)  globalFiles = /* write "global" (=not per tile) files */
(PID.TID 0000.0001)                   F
(PID.TID 0000.0001)     ;
(PID.TID 0000.0001)  useSingleCpuIO = /* only master MPI process does I/O */
(PID.TID 0000.0001)                   F
(PID.TID 0000.0001)     ;
(PID.TID 0000.0001)  useSingleCpuInput = /* only master process reads input */
(PID.TID 0000.0001)                   F
(PID.TID 0000.0001)     ;
(PID.TID 0000.0001) /* debLev[*]  : level of debug & auxiliary message printing */
(PID.TID 0000.0001) debLevZero =  0 ; /* level of disabled aux. msg printing */
(PID.TID 0000.0001)    debLevA =  1 ; /* level of minimum  aux. msg printing */
(PID.TID 0000.0001)    debLevB =  2 ; /* level of low aux. print (report read-file opening)*/
(PID.TID 0000.0001)    debLevC =  3 ; /* level of moderate debug prt (most pkgs debug msg) */
(PID.TID 0000.0001)    debLevD =  4 ; /* level of enhanced debug prt (add DEBUG_STATS prt) */
(PID.TID 0000.0001)    debLevE =  5 ; /* level of extensive debug printing */
(PID.TID 0000.0001) debugLevel =  /* select debug printing level */
(PID.TID 0000.0001)                       2
(PID.TID 0000.0001)     ;
(PID.TID 0000.0001) //
(PID.TID 0000.0001) // Elliptic solver(s) paramters ( PARM02 in namelist )
(PID.TID 0000.0001) //
(PID.TID 0000.0001) cg2dMaxIters =   /* Upper limit on 2d con. grad iterations  */
(PID.TID 0000.0001)                    1000
(PID.TID 0000.0001)     ;
(PID.TID 0000.0001) cg2dChkResFreq =   /* 2d con. grad convergence test frequency */
(PID.TID 0000.0001)                       1
(PID.TID 0000.0001)     ;
(PID.TID 0000.0001) cg2dUseMinResSol= /* use cg2d last-iter(=0) / min-resid.(=1) solution */
(PID.TID 0000.0001)                       0
(PID.TID 0000.0001)     ;
(PID.TID 0000.0001) cg2dTargetResidual =   /* 2d con. grad target residual  */
(PID.TID 0000.0001)                 1.000000000000000E-13
(PID.TID 0000.0001)     ;
(PID.TID 0000.0001) cg2dTargetResWunit =   /* CG2d target residual [W units] */
(PID.TID 0000.0001)                -1.000000000000000E+00
(PID.TID 0000.0001)     ;
(PID.TID 0000.0001) cg2dPreCondFreq =   /* Freq. for updating cg2d preconditioner */
(PID.TID 0000.0001)                       1
(PID.TID 0000.0001)     ;
(PID.TID 0000.0001) useSRCGSolver =  /* use single reduction CG solver(s) */
(PID.TID 0000.0001)                   F
(PID.TID 0000.0001)     ;
(PID.TID 0000.0001) printResidualFreq = /* Freq. for printing CG residual */
(PID.TID 0000.0001)                       0
(PID.TID 0000.0001)     ;
(PID.TID 0000.0001) //
(PID.TID 0000.0001) // Time stepping paramters ( PARM03 in namelist )
(PID.TID 0000.0001) //
(PID.TID 0000.0001) deltaTMom =   /* Momentum equation timestep ( s ) */
(PID.TID 0000.0001)                 1.800000000000000E+03
(PID.TID 0000.0001)     ;
(PID.TID 0000.0001) deltaTFreeSurf = /* FreeSurface equation timestep ( s ) */
(PID.TID 0000.0001)                 1.800000000000000E+03
(PID.TID 0000.0001)     ;
(PID.TID 0000.0001) dTtracerLev =  /* Tracer equation timestep ( s ) */
(PID.TID 0000.0001)    30 @  1.800000000000000E+03              /* K =  1: 30 */
(PID.TID 0000.0001)     ;
(PID.TID 0000.0001) deltaTClock  =   /* Model clock timestep ( s ) */
(PID.TID 0000.0001)                 1.800000000000000E+03
(PID.TID 0000.0001)     ;
(PID.TID 0000.0001) cAdjFreq =   /* Convective adjustment interval ( s ) */
(PID.TID 0000.0001)                 1.800000000000000E+03
(PID.TID 0000.0001)     ;
(PID.TID 0000.0001) momForcingOutAB = /* =1: take Momentum Forcing out of Adams-Bash. stepping */
(PID.TID 0000.0001)                       0
(PID.TID 0000.0001)     ;
(PID.TID 0000.0001) tracForcingOutAB = /* =1: take T,S,pTr Forcing out of Adams-Bash. stepping */
(PID.TID 0000.0001)                       0
(PID.TID 0000.0001)     ;
(PID.TID 0000.0001) momDissip_In_AB = /* put Dissipation Tendency in Adams-Bash. stepping */
(PID.TID 0000.0001)                   T
(PID.TID 0000.0001)     ;
(PID.TID 0000.0001) doAB_onGtGs = /* apply AB on Tendencies (rather than on T,S)*/
(PID.TID 0000.0001)                   T
(PID.TID 0000.0001)     ;
(PID.TID 0000.0001) abEps =   /* Adams-Bashforth-2 stabilizing weight */
(PID.TID 0000.0001)                 1.000000000000000E-01
(PID.TID 0000.0001)     ;
(PID.TID 0000.0001) tauCD =   /* CD coupling time-scale ( s ) */
(PID.TID 0000.0001)                 4.000000000000000E+05
(PID.TID 0000.0001)     ;
(PID.TID 0000.0001) rCD =   /* Normalised CD coupling parameter */
(PID.TID 0000.0001)                 9.955000000000001E-01
(PID.TID 0000.0001)     ;
(PID.TID 0000.0001) epsAB_CD = /* AB-2 stabilizing weight for CD-scheme*/
(PID.TID 0000.0001)                 1.000000000000000E-01
(PID.TID 0000.0001)     ;
(PID.TID 0000.0001) pickupStrictlyMatch= /* stop if pickup do not strictly match */
(PID.TID 0000.0001)                   T
(PID.TID 0000.0001)     ;
(PID.TID 0000.0001) nIter0   =   /* Run starting timestep number */
(PID.TID 0000.0001)                       0
(PID.TID 0000.0001)     ;
(PID.TID 0000.0001) nTimeSteps = /* Number of timesteps */
(PID.TID 0000.0001)                      20
(PID.TID 0000.0001)     ;
(PID.TID 0000.0001) nEndIter =   /* Run ending timestep number */
(PID.TID 0000.0001)                      20
(PID.TID 0000.0001)     ;
(PID.TID 0000.0001) baseTime =   /* Model base time ( s ) */
(PID.TID 0000.0001)                 0.000000000000000E+00
(PID.TID 0000.0001)     ;
(PID.TID 0000.0001) startTime =  /* Run start time ( s ) */
(PID.TID 0000.0001)                 0.000000000000000E+00
(PID.TID 0000.0001)     ;
(PID.TID 0000.0001) endTime  =   /* Integration ending time ( s ) */
(PID.TID 0000.0001)                 3.600000000000000E+04
(PID.TID 0000.0001)     ;
(PID.TID 0000.0001) pChkPtFreq = /* Permanent restart/pickup file interval ( s ) */
(PID.TID 0000.0001)                 0.000000000000000E+00
(PID.TID 0000.0001)     ;
(PID.TID 0000.0001) chkPtFreq  = /* Rolling restart/pickup file interval ( s ) */
(PID.TID 0000.0001)                 0.000000000000000E+00
(PID.TID 0000.0001)     ;
(PID.TID 0000.0001) pickup_write_mdsio =   /* Model IO flag. */
(PID.TID 0000.0001)                   T
(PID.TID 0000.0001)     ;
(PID.TID 0000.0001) pickup_read_mdsio =   /* Model IO flag. */
(PID.TID 0000.0001)                   T
(PID.TID 0000.0001)     ;
(PID.TID 0000.0001) pickup_write_mnc =   /* Model IO flag. */
(PID.TID 0000.0001)                   F
(PID.TID 0000.0001)     ;
(PID.TID 0000.0001) pickup_read_mnc =   /* Model IO flag. */
(PID.TID 0000.0001)                   F
(PID.TID 0000.0001)     ;
(PID.TID 0000.0001) pickup_write_immed =   /* Model IO flag. */
(PID.TID 0000.0001)                   F
(PID.TID 0000.0001)     ;
(PID.TID 0000.0001) writePickupAtEnd =   /* Model IO flag. */
(PID.TID 0000.0001)                   T
(PID.TID 0000.0001)     ;
(PID.TID 0000.0001) dumpFreq =   /* Model state write out interval ( s ). */
(PID.TID 0000.0001)                 0.000000000000000E+00
(PID.TID 0000.0001)     ;
(PID.TID 0000.0001) dumpInitAndLast= /* write out Initial & Last iter. model state */
(PID.TID 0000.0001)                   T
(PID.TID 0000.0001)     ;
(PID.TID 0000.0001) snapshot_mdsio =   /* Model IO flag. */
(PID.TID 0000.0001)                   F
(PID.TID 0000.0001)     ;
(PID.TID 0000.0001) snapshot_mnc =   /* Model IO flag. */
(PID.TID 0000.0001)                   T
(PID.TID 0000.0001)     ;
(PID.TID 0000.0001) monitorFreq =   /* Monitor output interval ( s ). */
(PID.TID 0000.0001)                 1.000000000000000E+00
(PID.TID 0000.0001)     ;
(PID.TID 0000.0001) monitorSelect = /* select group of variables to monitor */
(PID.TID 0000.0001)                       2
(PID.TID 0000.0001)     ;
(PID.TID 0000.0001) monitor_stdio =   /* Model IO flag. */
(PID.TID 0000.0001)                   T
(PID.TID 0000.0001)     ;
(PID.TID 0000.0001) monitor_mnc =   /* Model IO flag. */
(PID.TID 0000.0001)                   F
(PID.TID 0000.0001)     ;
(PID.TID 0000.0001) externForcingPeriod =   /* forcing period (s) */
(PID.TID 0000.0001)                 0.000000000000000E+00
(PID.TID 0000.0001)     ;
(PID.TID 0000.0001) externForcingCycle =   /* period of the cyle (s). */
(PID.TID 0000.0001)                 0.000000000000000E+00
(PID.TID 0000.0001)     ;
(PID.TID 0000.0001) tauThetaClimRelax =   /* relaxation time scale (s) */
(PID.TID 0000.0001)                 0.000000000000000E+00
(PID.TID 0000.0001)     ;
(PID.TID 0000.0001) tauSaltClimRelax =   /* relaxation time scale (s) */
(PID.TID 0000.0001)                 0.000000000000000E+00
(PID.TID 0000.0001)     ;
(PID.TID 0000.0001) latBandClimRelax =   /* max. Lat. where relaxation */
(PID.TID 0000.0001)                 1.800000000000000E+02
(PID.TID 0000.0001)     ;
(PID.TID 0000.0001) //
(PID.TID 0000.0001) // Gridding paramters ( PARM04 in namelist )
(PID.TID 0000.0001) //
(PID.TID 0000.0001) usingCartesianGrid = /* Cartesian coordinates flag ( True/False ) */
(PID.TID 0000.0001)                   F
(PID.TID 0000.0001)     ;
(PID.TID 0000.0001) usingCylindricalGrid = /* Cylindrical coordinates flag ( True/False ) */
(PID.TID 0000.0001)                   F
(PID.TID 0000.0001)     ;
(PID.TID 0000.0001) usingSphericalPolarGrid = /* Spherical coordinates flag ( True/False ) */
(PID.TID 0000.0001)                   T
(PID.TID 0000.0001)     ;
(PID.TID 0000.0001) usingCurvilinearGrid = /* Curvilinear coordinates flag ( True/False ) */
(PID.TID 0000.0001)                   F
(PID.TID 0000.0001)     ;
(PID.TID 0000.0001) selectSigmaCoord = /* Hybrid-Sigma Vert. Coordinate option */
(PID.TID 0000.0001)                       0
(PID.TID 0000.0001)     ;
(PID.TID 0000.0001) Ro_SeaLevel = /* r(1) ( units of r ==  m ) */
(PID.TID 0000.0001)                 0.000000000000000E+00
(PID.TID 0000.0001)     ;
(PID.TID 0000.0001) rSigmaBnd = /* r/sigma transition ( units of r ==  m ) */
(PID.TID 0000.0001)                 1.234567000000000E+05
(PID.TID 0000.0001)     ;
(PID.TID 0000.0001) rkSign =   /* index orientation relative to vertical coordinate */
(PID.TID 0000.0001)                -1.000000000000000E+00
(PID.TID 0000.0001)     ;
(PID.TID 0000.0001) gravitySign = /* gravity orientation relative to vertical coordinate */
(PID.TID 0000.0001)                -1.000000000000000E+00
(PID.TID 0000.0001)     ;
(PID.TID 0000.0001) mass2rUnit = /* convert mass per unit area [kg/m2] to r-units [m] */
(PID.TID 0000.0001)                 9.708737864077669E-04
(PID.TID 0000.0001)     ;
(PID.TID 0000.0001) rUnit2mass = /* convert r-units [m] to mass per unit area [kg/m2] */
(PID.TID 0000.0001)                 1.030000000000000E+03
(PID.TID 0000.0001)     ;
(PID.TID 0000.0001) drC =   /* C spacing ( units of r ) */
(PID.TID 0000.0001)                 1.500000000000000E+01,      /* K =  1 */
(PID.TID 0000.0001)    29 @  3.000000000000000E+01,             /* K =  2: 30 */
(PID.TID 0000.0001)                 1.500000000000000E+01       /* K = 31 */
(PID.TID 0000.0001)     ;
(PID.TID 0000.0001) drF =   /* W spacing ( units of r ) */
(PID.TID 0000.0001)    30 @  3.000000000000000E+01              /* K =  1: 30 */
(PID.TID 0000.0001)     ;
(PID.TID 0000.0001) delX = /* U spacing ( m - cartesian, degrees - spherical ) */
(PID.TID 0000.0001)    50 @  3.000000000000000E-01              /* I =  1: 50 */
(PID.TID 0000.0001)     ;
(PID.TID 0000.0001) delY = /* V spacing ( m - cartesian, degrees - spherical ) */
(PID.TID 0000.0001)   100 @  1.000000000000000E-01              /* J =  1:100 */
(PID.TID 0000.0001)     ;
(PID.TID 0000.0001) xgOrigin = /* X-axis origin of West  edge (cartesian: m, lat-lon: deg) */
(PID.TID 0000.0001)                 0.000000000000000E+00
(PID.TID 0000.0001)     ;
(PID.TID 0000.0001) ygOrigin = /* Y-axis origin of South edge (cartesian: m, lat-lon: deg) */
(PID.TID 0000.0001)                -8.000000000000000E+01
(PID.TID 0000.0001)     ;
(PID.TID 0000.0001) rSphere =  /* Radius ( ignored - cartesian, m - spherical ) */
(PID.TID 0000.0001)                 6.370000000000000E+06
(PID.TID 0000.0001)     ;
(PID.TID 0000.0001) deepAtmosphere = /* Deep/Shallow Atmosphere flag (True/False) */
(PID.TID 0000.0001)                   F
(PID.TID 0000.0001)     ;
(PID.TID 0000.0001) xC =  /* xC(:,1,:,1) : P-point X coord ( deg. or m if cartesian) */
(PID.TID 0000.0001)                 1.500000000000001E-01,      /* I =  1 */
(PID.TID 0000.0001)                 4.500000000000001E-01,      /* I =  2 */
(PID.TID 0000.0001)                 7.500000000000002E-01,      /* I =  3 */
(PID.TID 0000.0001)                 1.050000000000000E+00,      /* I =  4 */
(PID.TID 0000.0001)                 1.350000000000000E+00,      /* I =  5 */
(PID.TID 0000.0001)                 1.650000000000000E+00,      /* I =  6 */
(PID.TID 0000.0001)                 1.950000000000000E+00,      /* I =  7 */
(PID.TID 0000.0001)                 2.250000000000000E+00,      /* I =  8 */
(PID.TID 0000.0001)                 2.550000000000000E+00,      /* I =  9 */
(PID.TID 0000.0001)                 2.850000000000000E+00,      /* I = 10 */
(PID.TID 0000.0001)                 3.149999999999999E+00,      /* I = 11 */
(PID.TID 0000.0001)                 3.449999999999999E+00,      /* I = 12 */
(PID.TID 0000.0001)                 3.749999999999999E+00,      /* I = 13 */
(PID.TID 0000.0001)                 4.049999999999999E+00,      /* I = 14 */
(PID.TID 0000.0001)                 4.350000000000000E+00,      /* I = 15 */
(PID.TID 0000.0001)                 4.649999999999999E+00,      /* I = 16 */
(PID.TID 0000.0001)                 4.949999999999999E+00,      /* I = 17 */
(PID.TID 0000.0001)                 5.249999999999998E+00,      /* I = 18 */
(PID.TID 0000.0001)                 5.549999999999999E+00,      /* I = 19 */
(PID.TID 0000.0001)                 5.849999999999998E+00,      /* I = 20 */
(PID.TID 0000.0001)                 6.149999999999999E+00,      /* I = 21 */
(PID.TID 0000.0001)                 6.449999999999998E+00,      /* I = 22 */
(PID.TID 0000.0001)                 6.749999999999998E+00,      /* I = 23 */
(PID.TID 0000.0001)                 7.049999999999997E+00,      /* I = 24 */
(PID.TID 0000.0001)                 7.349999999999997E+00,      /* I = 25 */
(PID.TID 0000.0001)                 7.649999999999997E+00,      /* I = 26 */
(PID.TID 0000.0001)                 7.949999999999998E+00,      /* I = 27 */
(PID.TID 0000.0001)                 8.249999999999998E+00,      /* I = 28 */
(PID.TID 0000.0001)                 8.549999999999999E+00,      /* I = 29 */
(PID.TID 0000.0001)                 8.850000000000000E+00,      /* I = 30 */
(PID.TID 0000.0001)                 9.150000000000000E+00,      /* I = 31 */
(PID.TID 0000.0001)                 9.450000000000001E+00,      /* I = 32 */
(PID.TID 0000.0001)                 9.750000000000002E+00,      /* I = 33 */
(PID.TID 0000.0001)                 1.005000000000000E+01,      /* I = 34 */
(PID.TID 0000.0001)                 1.035000000000000E+01,      /* I = 35 */
(PID.TID 0000.0001)                 1.065000000000000E+01,      /* I = 36 */
(PID.TID 0000.0001)                 1.095000000000001E+01,      /* I = 37 */
(PID.TID 0000.0001)                 1.125000000000001E+01,      /* I = 38 */
(PID.TID 0000.0001)                 1.155000000000000E+01,      /* I = 39 */
(PID.TID 0000.0001)                 1.185000000000001E+01,      /* I = 40 */
(PID.TID 0000.0001)                 1.215000000000001E+01,      /* I = 41 */
(PID.TID 0000.0001)                 1.245000000000001E+01,      /* I = 42 */
(PID.TID 0000.0001)                 1.275000000000001E+01,      /* I = 43 */
(PID.TID 0000.0001)                 1.305000000000001E+01,      /* I = 44 */
(PID.TID 0000.0001)                 1.335000000000001E+01,      /* I = 45 */
(PID.TID 0000.0001)                 1.365000000000001E+01,      /* I = 46 */
(PID.TID 0000.0001)                 1.395000000000001E+01,      /* I = 47 */
(PID.TID 0000.0001)                 1.425000000000001E+01,      /* I = 48 */
(PID.TID 0000.0001)                 1.455000000000001E+01,      /* I = 49 */
(PID.TID 0000.0001)                 1.485000000000001E+01       /* I = 50 */
(PID.TID 0000.0001)     ;
(PID.TID 0000.0001) yC =  /* yC(1,:,1,:) : P-point Y coord ( deg. or m if cartesian) */
(PID.TID 0000.0001)                -7.995000000000000E+01,      /* J =  1 */
(PID.TID 0000.0001)                -7.985000000000001E+01,      /* J =  2 */
(PID.TID 0000.0001)                -7.975000000000001E+01,      /* J =  3 */
(PID.TID 0000.0001)      . . .
(PID.TID 0000.0001)                -7.775000000000013E+01,      /* J = 23 */
(PID.TID 0000.0001)                -7.765000000000013E+01,      /* J = 24 */
(PID.TID 0000.0001)                -7.755000000000014E+01,      /* J = 25 */
(PID.TID 0000.0001)                -7.745000000000014E+01,      /* J = 26 */
(PID.TID 0000.0001)                -7.735000000000015E+01,      /* J = 27 */
(PID.TID 0000.0001)                -7.725000000000016E+01,      /* J = 28 */
(PID.TID 0000.0001)      . . .
(PID.TID 0000.0001)                -7.525000000000027E+01,      /* J = 48 */
(PID.TID 0000.0001)                -7.515000000000028E+01,      /* J = 49 */
(PID.TID 0000.0001)                -7.505000000000028E+01,      /* J = 50 */
(PID.TID 0000.0001)                -7.495000000000029E+01,      /* J = 51 */
(PID.TID 0000.0001)                -7.485000000000029E+01,      /* J = 52 */
(PID.TID 0000.0001)                -7.475000000000030E+01,      /* J = 53 */
(PID.TID 0000.0001)      . . .
(PID.TID 0000.0001)                -7.275000000000041E+01,      /* J = 73 */
(PID.TID 0000.0001)                -7.265000000000042E+01,      /* J = 74 */
(PID.TID 0000.0001)                -7.255000000000042E+01,      /* J = 75 */
(PID.TID 0000.0001)                -7.245000000000043E+01,      /* J = 76 */
(PID.TID 0000.0001)                -7.235000000000043E+01,      /* J = 77 */
(PID.TID 0000.0001)                -7.225000000000044E+01,      /* J = 78 */
(PID.TID 0000.0001)      . . .
(PID.TID 0000.0001)                -7.025000000000055E+01,      /* J = 98 */
(PID.TID 0000.0001)                -7.015000000000056E+01,      /* J = 99 */
(PID.TID 0000.0001)                -7.005000000000057E+01       /* J =100 */
(PID.TID 0000.0001)     ;
(PID.TID 0000.0001) rcoord = /* P-point R coordinate (  units of r ) */
(PID.TID 0000.0001)                -1.500000000000000E+01,      /* K =  1 */
(PID.TID 0000.0001)                -4.500000000000000E+01,      /* K =  2 */
(PID.TID 0000.0001)                -7.500000000000000E+01,      /* K =  3 */
(PID.TID 0000.0001)                -1.050000000000000E+02,      /* K =  4 */
(PID.TID 0000.0001)                -1.350000000000000E+02,      /* K =  5 */
(PID.TID 0000.0001)                -1.650000000000000E+02,      /* K =  6 */
(PID.TID 0000.0001)                -1.950000000000000E+02,      /* K =  7 */
(PID.TID 0000.0001)                -2.250000000000000E+02,      /* K =  8 */
(PID.TID 0000.0001)                -2.550000000000000E+02,      /* K =  9 */
(PID.TID 0000.0001)                -2.850000000000000E+02,      /* K = 10 */
(PID.TID 0000.0001)                -3.150000000000000E+02,      /* K = 11 */
(PID.TID 0000.0001)                -3.450000000000000E+02,      /* K = 12 */
(PID.TID 0000.0001)                -3.750000000000000E+02,      /* K = 13 */
(PID.TID 0000.0001)                -4.050000000000000E+02,      /* K = 14 */
(PID.TID 0000.0001)                -4.350000000000000E+02,      /* K = 15 */
(PID.TID 0000.0001)                -4.650000000000000E+02,      /* K = 16 */
(PID.TID 0000.0001)                -4.950000000000000E+02,      /* K = 17 */
(PID.TID 0000.0001)                -5.250000000000000E+02,      /* K = 18 */
(PID.TID 0000.0001)                -5.550000000000000E+02,      /* K = 19 */
(PID.TID 0000.0001)                -5.850000000000000E+02,      /* K = 20 */
(PID.TID 0000.0001)                -6.150000000000000E+02,      /* K = 21 */
(PID.TID 0000.0001)                -6.450000000000000E+02,      /* K = 22 */
(PID.TID 0000.0001)                -6.750000000000000E+02,      /* K = 23 */
(PID.TID 0000.0001)                -7.050000000000000E+02,      /* K = 24 */
(PID.TID 0000.0001)                -7.350000000000000E+02,      /* K = 25 */
(PID.TID 0000.0001)                -7.650000000000000E+02,      /* K = 26 */
(PID.TID 0000.0001)                -7.950000000000000E+02,      /* K = 27 */
(PID.TID 0000.0001)                -8.250000000000000E+02,      /* K = 28 */
(PID.TID 0000.0001)                -8.550000000000000E+02,      /* K = 29 */
(PID.TID 0000.0001)                -8.850000000000000E+02       /* K = 30 */
(PID.TID 0000.0001)     ;
(PID.TID 0000.0001) rF =   /* W-Interf. R coordinate (  units of r ) */
(PID.TID 0000.0001)                 0.000000000000000E+00,      /* K =  1 */
(PID.TID 0000.0001)                -3.000000000000000E+01,      /* K =  2 */
(PID.TID 0000.0001)                -6.000000000000000E+01,      /* K =  3 */
(PID.TID 0000.0001)                -9.000000000000000E+01,      /* K =  4 */
(PID.TID 0000.0001)                -1.200000000000000E+02,      /* K =  5 */
(PID.TID 0000.0001)                -1.500000000000000E+02,      /* K =  6 */
(PID.TID 0000.0001)                -1.800000000000000E+02,      /* K =  7 */
(PID.TID 0000.0001)                -2.100000000000000E+02,      /* K =  8 */
(PID.TID 0000.0001)                -2.400000000000000E+02,      /* K =  9 */
(PID.TID 0000.0001)                -2.700000000000000E+02,      /* K = 10 */
(PID.TID 0000.0001)                -3.000000000000000E+02,      /* K = 11 */
(PID.TID 0000.0001)                -3.300000000000000E+02,      /* K = 12 */
(PID.TID 0000.0001)                -3.600000000000000E+02,      /* K = 13 */
(PID.TID 0000.0001)                -3.900000000000000E+02,      /* K = 14 */
(PID.TID 0000.0001)                -4.200000000000000E+02,      /* K = 15 */
(PID.TID 0000.0001)                -4.500000000000000E+02,      /* K = 16 */
(PID.TID 0000.0001)                -4.800000000000000E+02,      /* K = 17 */
(PID.TID 0000.0001)                -5.100000000000000E+02,      /* K = 18 */
(PID.TID 0000.0001)                -5.400000000000000E+02,      /* K = 19 */
(PID.TID 0000.0001)                -5.700000000000000E+02,      /* K = 20 */
(PID.TID 0000.0001)                -6.000000000000000E+02,      /* K = 21 */
(PID.TID 0000.0001)                -6.300000000000000E+02,      /* K = 22 */
(PID.TID 0000.0001)                -6.600000000000000E+02,      /* K = 23 */
(PID.TID 0000.0001)                -6.900000000000000E+02,      /* K = 24 */
(PID.TID 0000.0001)                -7.200000000000000E+02,      /* K = 25 */
(PID.TID 0000.0001)                -7.500000000000000E+02,      /* K = 26 */
(PID.TID 0000.0001)                -7.800000000000000E+02,      /* K = 27 */
(PID.TID 0000.0001)                -8.100000000000000E+02,      /* K = 28 */
(PID.TID 0000.0001)                -8.400000000000000E+02,      /* K = 29 */
(PID.TID 0000.0001)                -8.700000000000000E+02,      /* K = 30 */
(PID.TID 0000.0001)                -9.000000000000000E+02       /* K = 31 */
(PID.TID 0000.0001)     ;
(PID.TID 0000.0001) deepFacC = /* deep-model grid factor @ cell-Center (-) */
(PID.TID 0000.0001)    30 @  1.000000000000000E+00              /* K =  1: 30 */
(PID.TID 0000.0001)     ;
(PID.TID 0000.0001) deepFacF = /* deep-model grid factor @ W-Interface (-) */
(PID.TID 0000.0001)    31 @  1.000000000000000E+00              /* K =  1: 31 */
(PID.TID 0000.0001)     ;
(PID.TID 0000.0001) rVel2wUnit = /* convert units: rVel -> wSpeed (=1 if z-coord)*/
(PID.TID 0000.0001)    31 @  1.000000000000000E+00              /* K =  1: 31 */
(PID.TID 0000.0001)     ;
(PID.TID 0000.0001) wUnit2rVel = /* convert units: wSpeed -> rVel (=1 if z-coord)*/
(PID.TID 0000.0001)    31 @  1.000000000000000E+00              /* K =  1: 31 */
(PID.TID 0000.0001)     ;
(PID.TID 0000.0001) dBdrRef = /* Vertical grad. of reference buoyancy [(m/s/r)^2] */
(PID.TID 0000.0001)    30 @  0.000000000000000E+00              /* K =  1: 30 */
(PID.TID 0000.0001)     ;
(PID.TID 0000.0001) rotateGrid = /* use rotated grid ( True/False ) */
(PID.TID 0000.0001)                   F
(PID.TID 0000.0001)     ;
(PID.TID 0000.0001) phiEuler = /* Euler angle, rotation about original z-coordinate [rad] */
(PID.TID 0000.0001)                 0.000000000000000E+00
(PID.TID 0000.0001)     ;
(PID.TID 0000.0001) thetaEuler = /* Euler angle, rotation about new x-coordinate [rad] */
(PID.TID 0000.0001)                 0.000000000000000E+00
(PID.TID 0000.0001)     ;
(PID.TID 0000.0001) psiEuler = /* Euler angle, rotation about new z-coordinate [rad] */
(PID.TID 0000.0001)                 0.000000000000000E+00
(PID.TID 0000.0001)     ;
(PID.TID 0000.0001) dxF =  /* dxF(:,1,:,1) ( units: m ) */
(PID.TID 0000.0001)    50 @  5.820391490558872E+03              /* I =  1: 50 */
(PID.TID 0000.0001)     ;
(PID.TID 0000.0001) dxF =  /* dxF(1,:,1,:) ( units: m ) */
(PID.TID 0000.0001)                 5.820391490558872E+03,      /* J =  1 */
(PID.TID 0000.0001)                 5.877701765291692E+03,      /* J =  2 */
(PID.TID 0000.0001)                 5.934994135525598E+03,      /* J =  3 */
(PID.TID 0000.0001)      . . .
(PID.TID 0000.0001)                 7.076813247621209E+03,      /* J = 23 */
(PID.TID 0000.0001)                 7.133689397375063E+03,      /* J = 24 */
(PID.TID 0000.0001)                 7.190543816673855E+03,      /* J = 25 */
(PID.TID 0000.0001)                 7.247376332329164E+03,      /* J = 26 */
(PID.TID 0000.0001)                 7.304186771219292E+03,      /* J = 27 */
(PID.TID 0000.0001)                 7.360974960289787E+03,      /* J = 28 */
(PID.TID 0000.0001)      . . .
(PID.TID 0000.0001)                 8.491800393599013E+03,      /* J = 48 */
(PID.TID 0000.0001)                 8.548081485571185E+03,      /* J = 49 */
(PID.TID 0000.0001)                 8.604336538604706E+03,      /* J = 50 */
(PID.TID 0000.0001)                 8.660565381336924E+03,      /* J = 51 */
(PID.TID 0000.0001)                 8.716767842485036E+03,      /* J = 52 */
(PID.TID 0000.0001)                 8.772943750846600E+03,      /* J = 53 */
(PID.TID 0000.0001)      . . .
(PID.TID 0000.0001)                 9.890622914885218E+03,      /* J = 73 */
(PID.TID 0000.0001)                 9.946201814818334E+03,      /* J = 74 */
(PID.TID 0000.0001)                 1.000175041689580E+04,      /* J = 75 */
(PID.TID 0000.0001)                 1.005726855190695E+04,      /* J = 76 */
(PID.TID 0000.0001)                 1.011275605073392E+04,      /* J = 77 */
(PID.TID 0000.0001)                 1.016821274435215E+04,      /* J = 78 */
(PID.TID 0000.0001)      . . .
(PID.TID 0000.0001)                 1.127061807330668E+04,      /* J = 98 */
(PID.TID 0000.0001)                 1.132538898360582E+04,      /* J = 99 */
(PID.TID 0000.0001)                 1.138012539480601E+04       /* J =100 */
(PID.TID 0000.0001)     ;
(PID.TID 0000.0001) dyF =  /* dyF(:,1,:,1) ( units: m ) */
(PID.TID 0000.0001)    50 @  1.111774733520388E+04              /* I =  1: 50 */
(PID.TID 0000.0001)     ;
(PID.TID 0000.0001) dyF =  /* dyF(1,:,1,:) ( units: m ) */
(PID.TID 0000.0001)   100 @  1.111774733520388E+04              /* J =  1:100 */
(PID.TID 0000.0001)     ;
(PID.TID 0000.0001) dxG =  /* dxG(:,1,:,1) ( units: m ) */
(PID.TID 0000.0001)    50 @  5.791729693558576E+03              /* I =  1: 50 */
(PID.TID 0000.0001)     ;
(PID.TID 0000.0001) dxG =  /* dxG(1,:,1,:) ( units: m ) */
(PID.TID 0000.0001)                 5.791729693558576E+03,      /* J =  1 */
(PID.TID 0000.0001)                 5.849048855077854E+03,      /* J =  2 */
(PID.TID 0000.0001)                 5.906350199379949E+03,      /* J =  3 */
(PID.TID 0000.0001)      . . .
(PID.TID 0000.0001)                 7.048367077963129E+03,      /* J = 23 */
(PID.TID 0000.0001)                 7.105254027978149E+03,      /* J = 24 */
(PID.TID 0000.0001)                 7.162119334157175E+03,      /* J = 25 */
(PID.TID 0000.0001)                 7.218962823278620E+03,      /* J = 26 */
(PID.TID 0000.0001)                 7.275784322187360E+03,      /* J = 27 */
(PID.TID 0000.0001)                 7.332583657795253E+03,      /* J = 28 */
(PID.TID 0000.0001)      . . .
(PID.TID 0000.0001)                 8.463650136583461E+03,      /* J = 48 */
(PID.TID 0000.0001)                 8.519944183739159E+03,      /* J = 49 */
(PID.TID 0000.0001)                 8.576212277667308E+03,      /* J = 50 */
(PID.TID 0000.0001)                 8.632454246965530E+03,      /* J = 51 */
(PID.TID 0000.0001)                 8.688669920311038E+03,      /* J = 52 */
(PID.TID 0000.0001)                 8.744859126461139E+03,      /* J = 53 */
(PID.TID 0000.0001)      . . .
(PID.TID 0000.0001)                 9.862822156126382E+03,      /* J = 73 */
(PID.TID 0000.0001)                 9.918416141504455E+03,      /* J = 74 */
(PID.TID 0000.0001)                 9.973979913666863E+03,      /* J = 75 */
(PID.TID 0000.0001)                 1.002951330335672E+04,      /* J = 76 */
(PID.TID 0000.0001)                 1.008501614140969E+04,      /* J = 77 */
(PID.TID 0000.0001)                 1.014048825875450E+04,      /* J = 78 */
(PID.TID 0000.0001)      . . .
(PID.TID 0000.0001)                 1.124321973312895E+04,      /* J = 98 */
(PID.TID 0000.0001)                 1.129800783041847E+04,      /* J = 99 */
(PID.TID 0000.0001)                 1.135276151201679E+04       /* J =100 */
(PID.TID 0000.0001)     ;
(PID.TID 0000.0001) dyG =  /* dyG(:,1,:,1) ( units: m ) */
(PID.TID 0000.0001)    50 @  1.111774733520388E+04              /* I =  1: 50 */
(PID.TID 0000.0001)     ;
(PID.TID 0000.0001) dyG =  /* dyG(1,:,1,:) ( units: m ) */
(PID.TID 0000.0001)   100 @  1.111774733520388E+04              /* J =  1:100 */
(PID.TID 0000.0001)     ;
(PID.TID 0000.0001) dxC =  /* dxC(:,1,:,1) ( units: m ) */
(PID.TID 0000.0001)    50 @  5.820391490558872E+03              /* I =  1: 50 */
(PID.TID 0000.0001)     ;
(PID.TID 0000.0001) dxC =  /* dxC(1,:,1,:) ( units: m ) */
(PID.TID 0000.0001)                 5.820391490558872E+03,      /* J =  1 */
(PID.TID 0000.0001)                 5.877701765291692E+03,      /* J =  2 */
(PID.TID 0000.0001)                 5.934994135525598E+03,      /* J =  3 */
(PID.TID 0000.0001)      . . .
(PID.TID 0000.0001)                 7.076813247621209E+03,      /* J = 23 */
(PID.TID 0000.0001)                 7.133689397375063E+03,      /* J = 24 */
(PID.TID 0000.0001)                 7.190543816673855E+03,      /* J = 25 */
(PID.TID 0000.0001)                 7.247376332329164E+03,      /* J = 26 */
(PID.TID 0000.0001)                 7.304186771219292E+03,      /* J = 27 */
(PID.TID 0000.0001)                 7.360974960289787E+03,      /* J = 28 */
(PID.TID 0000.0001)      . . .
(PID.TID 0000.0001)                 8.491800393599013E+03,      /* J = 48 */
(PID.TID 0000.0001)                 8.548081485571185E+03,      /* J = 49 */
(PID.TID 0000.0001)                 8.604336538604706E+03,      /* J = 50 */
(PID.TID 0000.0001)                 8.660565381336924E+03,      /* J = 51 */
(PID.TID 0000.0001)                 8.716767842485036E+03,      /* J = 52 */
(PID.TID 0000.0001)                 8.772943750846600E+03,      /* J = 53 */
(PID.TID 0000.0001)      . . .
(PID.TID 0000.0001)                 9.890622914885218E+03,      /* J = 73 */
(PID.TID 0000.0001)                 9.946201814818334E+03,      /* J = 74 */
(PID.TID 0000.0001)                 1.000175041689580E+04,      /* J = 75 */
(PID.TID 0000.0001)                 1.005726855190695E+04,      /* J = 76 */
(PID.TID 0000.0001)                 1.011275605073392E+04,      /* J = 77 */
(PID.TID 0000.0001)                 1.016821274435215E+04,      /* J = 78 */
(PID.TID 0000.0001)      . . .
(PID.TID 0000.0001)                 1.127061807330668E+04,      /* J = 98 */
(PID.TID 0000.0001)                 1.132538898360582E+04,      /* J = 99 */
(PID.TID 0000.0001)                 1.138012539480601E+04       /* J =100 */
(PID.TID 0000.0001)     ;
(PID.TID 0000.0001) dyC =  /* dyC(:,1,:,1) ( units: m ) */
(PID.TID 0000.0001)    50 @  1.111774733520388E+04              /* I =  1: 50 */
(PID.TID 0000.0001)     ;
(PID.TID 0000.0001) dyC =  /* dyC(1,:,1,:) ( units: m ) */
(PID.TID 0000.0001)   100 @  1.111774733520388E+04              /* J =  1:100 */
(PID.TID 0000.0001)     ;
(PID.TID 0000.0001) dxV =  /* dxV(:,1,:,1) ( units: m ) */
(PID.TID 0000.0001)    50 @  5.791729693558576E+03              /* I =  1: 50 */
(PID.TID 0000.0001)     ;
(PID.TID 0000.0001) dxV =  /* dxV(1,:,1,:) ( units: m ) */
(PID.TID 0000.0001)                 5.791729693558576E+03,      /* J =  1 */
(PID.TID 0000.0001)                 5.849048855077854E+03,      /* J =  2 */
(PID.TID 0000.0001)                 5.906350199379949E+03,      /* J =  3 */
(PID.TID 0000.0001)      . . .
(PID.TID 0000.0001)                 7.048367077963129E+03,      /* J = 23 */
(PID.TID 0000.0001)                 7.105254027978149E+03,      /* J = 24 */
(PID.TID 0000.0001)                 7.162119334157175E+03,      /* J = 25 */
(PID.TID 0000.0001)                 7.218962823278620E+03,      /* J = 26 */
(PID.TID 0000.0001)                 7.275784322187360E+03,      /* J = 27 */
(PID.TID 0000.0001)                 7.332583657795253E+03,      /* J = 28 */
(PID.TID 0000.0001)      . . .
(PID.TID 0000.0001)                 8.463650136583461E+03,      /* J = 48 */
(PID.TID 0000.0001)                 8.519944183739159E+03,      /* J = 49 */
(PID.TID 0000.0001)                 8.576212277667308E+03,      /* J = 50 */
(PID.TID 0000.0001)                 8.632454246965530E+03,      /* J = 51 */
(PID.TID 0000.0001)                 8.688669920311038E+03,      /* J = 52 */
(PID.TID 0000.0001)                 8.744859126461139E+03,      /* J = 53 */
(PID.TID 0000.0001)      . . .
(PID.TID 0000.0001)                 9.862822156126382E+03,      /* J = 73 */
(PID.TID 0000.0001)                 9.918416141504455E+03,      /* J = 74 */
(PID.TID 0000.0001)                 9.973979913666863E+03,      /* J = 75 */
(PID.TID 0000.0001)                 1.002951330335672E+04,      /* J = 76 */
(PID.TID 0000.0001)                 1.008501614140969E+04,      /* J = 77 */
(PID.TID 0000.0001)                 1.014048825875450E+04,      /* J = 78 */
(PID.TID 0000.0001)      . . .
(PID.TID 0000.0001)                 1.124321973312895E+04,      /* J = 98 */
(PID.TID 0000.0001)                 1.129800783041847E+04,      /* J = 99 */
(PID.TID 0000.0001)                 1.135276151201679E+04       /* J =100 */
(PID.TID 0000.0001)     ;
(PID.TID 0000.0001) dyU =  /* dyU(:,1,:,1) ( units: m ) */
(PID.TID 0000.0001)    50 @  1.111774733520388E+04              /* I =  1: 50 */
(PID.TID 0000.0001)     ;
(PID.TID 0000.0001) dyU =  /* dyU(1,:,1,:) ( units: m ) */
(PID.TID 0000.0001)   100 @  1.111774733520388E+04              /* J =  1:100 */
(PID.TID 0000.0001)     ;
(PID.TID 0000.0001) rA  =  /* rA (:,1,:,1) ( units: m^2 ) */
(PID.TID 0000.0001)    50 @  6.470963377080289E+07              /* I =  1: 50 */
(PID.TID 0000.0001)     ;
(PID.TID 0000.0001) rA  =  /* rA (1,:,1,:) ( units: m^2 ) */
(PID.TID 0000.0001)                 6.470963377080289E+07,      /* J =  1 */
(PID.TID 0000.0001)                 6.534679484410104E+07,      /* J =  2 */
(PID.TID 0000.0001)                 6.598375685977945E+07,      /* J =  3 */
(PID.TID 0000.0001)      . . .
(PID.TID 0000.0001)                 7.867821163932665E+07,      /* J = 23 */
(PID.TID 0000.0001)                 7.931054622142966E+07,      /* J = 24 */
(PID.TID 0000.0001)                 7.994263920984067E+07,      /* J = 25 */
(PID.TID 0000.0001)                 8.057448867913349E+07,      /* J = 26 */
(PID.TID 0000.0001)                 8.120609270456599E+07,      /* J = 27 */
(PID.TID 0000.0001)                 8.183744936212724E+07,      /* J = 28 */
(PID.TID 0000.0001)      . . .
(PID.TID 0000.0001)                 9.440967921416211E+07,      /* J = 48 */
(PID.TID 0000.0001)                 9.503539809503193E+07,      /* J = 49 */
(PID.TID 0000.0001)                 9.566082748163140E+07,      /* J = 50 */
(PID.TID 0000.0001)                 9.628596546870193E+07,      /* J = 51 */
(PID.TID 0000.0001)                 9.691081015209354E+07,      /* J = 52 */
(PID.TID 0000.0001)                 9.753535962826957E+07,      /* J = 53 */
(PID.TID 0000.0001)      . . .
(PID.TID 0000.0001)                 1.099614325987181E+08,      /* J = 73 */
(PID.TID 0000.0001)                 1.105793446869293E+08,      /* J = 74 */
(PID.TID 0000.0001)                 1.111969199312560E+08,      /* J = 75 */
(PID.TID 0000.0001)                 1.118141564504991E+08,      /* J = 76 */
(PID.TID 0000.0001)                 1.124310523644033E+08,      /* J = 77 */
(PID.TID 0000.0001)                 1.130476057938687E+08,      /* J = 78 */
(PID.TID 0000.0001)      . . .
(PID.TID 0000.0001)                 1.253038681465364E+08,      /* J = 98 */
(PID.TID 0000.0001)                 1.259127972112936E+08,      /* J = 99 */
(PID.TID 0000.0001)                 1.265213427237870E+08       /* J =100 */
(PID.TID 0000.0001)     ;
(PID.TID 0000.0001) rAw =  /* rAw(:,1,:,1) ( units: m^2 ) */
(PID.TID 0000.0001)    50 @  6.470963377080289E+07              /* I =  1: 50 */
(PID.TID 0000.0001)     ;
(PID.TID 0000.0001) rAw =  /* rAw(1,:,1,:) ( units: m^2 ) */
(PID.TID 0000.0001)                 6.470963377080289E+07,      /* J =  1 */
(PID.TID 0000.0001)                 6.534679484410104E+07,      /* J =  2 */
(PID.TID 0000.0001)                 6.598375685977945E+07,      /* J =  3 */
(PID.TID 0000.0001)      . . .
(PID.TID 0000.0001)                 7.867821163932665E+07,      /* J = 23 */
(PID.TID 0000.0001)                 7.931054622142966E+07,      /* J = 24 */
(PID.TID 0000.0001)                 7.994263920984067E+07,      /* J = 25 */
(PID.TID 0000.0001)                 8.057448867913349E+07,      /* J = 26 */
(PID.TID 0000.0001)                 8.120609270456599E+07,      /* J = 27 */
(PID.TID 0000.0001)                 8.183744936212724E+07,      /* J = 28 */
(PID.TID 0000.0001)      . . .
(PID.TID 0000.0001)                 9.440967921416211E+07,      /* J = 48 */
(PID.TID 0000.0001)                 9.503539809503193E+07,      /* J = 49 */
(PID.TID 0000.0001)                 9.566082748163140E+07,      /* J = 50 */
(PID.TID 0000.0001)                 9.628596546870193E+07,      /* J = 51 */
(PID.TID 0000.0001)                 9.691081015209354E+07,      /* J = 52 */
(PID.TID 0000.0001)                 9.753535962826957E+07,      /* J = 53 */
(PID.TID 0000.0001)      . . .
(PID.TID 0000.0001)                 1.099614325987181E+08,      /* J = 73 */
(PID.TID 0000.0001)                 1.105793446869293E+08,      /* J = 74 */
(PID.TID 0000.0001)                 1.111969199312560E+08,      /* J = 75 */
(PID.TID 0000.0001)                 1.118141564504991E+08,      /* J = 76 */
(PID.TID 0000.0001)                 1.124310523644033E+08,      /* J = 77 */
(PID.TID 0000.0001)                 1.130476057938687E+08,      /* J = 78 */
(PID.TID 0000.0001)      . . .
(PID.TID 0000.0001)                 1.253038681465364E+08,      /* J = 98 */
(PID.TID 0000.0001)                 1.259127972112936E+08,      /* J = 99 */
(PID.TID 0000.0001)                 1.265213427237870E+08       /* J =100 */
(PID.TID 0000.0001)     ;
(PID.TID 0000.0001) rAs =  /* rAs(:,1,:,1) ( units: m^2 ) */
(PID.TID 0000.0001)    50 @  6.439097919401864E+07              /* I =  1: 50 */
(PID.TID 0000.0001)     ;
(PID.TID 0000.0001) rAs =  /* rAs(1,:,1,:) ( units: m^2 ) */
(PID.TID 0000.0001)                 6.439097919401864E+07,      /* J =  1 */
(PID.TID 0000.0001)                 6.502823906837179E+07,      /* J =  2 */
(PID.TID 0000.0001)                 6.566530085543716E+07,      /* J =  3 */
(PID.TID 0000.0001)      . . .
(PID.TID 0000.0001)                 7.836195435256335E+07,      /* J = 23 */
(PID.TID 0000.0001)                 7.899440900921808E+07,      /* J = 24 */
(PID.TID 0000.0001)                 7.962662303520055E+07,      /* J = 25 */
(PID.TID 0000.0001)                 8.025859450470714E+07,      /* J = 26 */
(PID.TID 0000.0001)                 8.089032149259475E+07,      /* J = 27 */
(PID.TID 0000.0001)                 8.152180207452223E+07,      /* J = 28 */
(PID.TID 0000.0001)      . . .
(PID.TID 0000.0001)                 9.409671180895932E+07,      /* J = 48 */
(PID.TID 0000.0001)                 9.472257472228888E+07,      /* J = 49 */
(PID.TID 0000.0001)                 9.534814909420149E+07,      /* J = 50 */
(PID.TID 0000.0001)                 9.597343301913190E+07,      /* J = 51 */
(PID.TID 0000.0001)                 9.659842459236403E+07,      /* J = 52 */
(PID.TID 0000.0001)                 9.722312190998378E+07,      /* J = 53 */
(PID.TID 0000.0001)      . . .
(PID.TID 0000.0001)                 1.096523508263446E+08,      /* J = 73 */
(PID.TID 0000.0001)                 1.102704306306916E+08,      /* J = 74 */
(PID.TID 0000.0001)                 1.108881745321664E+08,      /* J = 75 */
(PID.TID 0000.0001)                 1.115055806490511E+08,      /* J = 76 */
(PID.TID 0000.0001)                 1.121226471005947E+08,      /* J = 77 */
(PID.TID 0000.0001)                 1.127393720071080E+08,      /* J = 78 */
(PID.TID 0000.0001)      . . .
(PID.TID 0000.0001)                 1.249992603617116E+08,      /* J = 98 */
(PID.TID 0000.0001)                 1.256083805070198E+08,      /* J = 99 */
(PID.TID 0000.0001)                 1.262171180274426E+08       /* J =100 */
(PID.TID 0000.0001)     ;
(PID.TID 0000.0001) globalArea = /* Integrated horizontal Area (m^2) */
(PID.TID 0000.0001)                 4.665024516720074E+11
(PID.TID 0000.0001)     ;
(PID.TID 0000.0001) // =======================================================
(PID.TID 0000.0001) // End of Model config. summary
(PID.TID 0000.0001) // =======================================================
(PID.TID 0000.0001) 
(PID.TID 0000.0001) == Packages configuration : Check & print summary ==
(PID.TID 0000.0001) 
(PID.TID 0000.0001) SHELFICE_CHECK: #define ALLOW_SHELFICE
(PID.TID 0000.0001) GAD_CHECK: #define ALLOW_GENERIC_ADVDIFF
(PID.TID 0000.0001) // =======================================================
(PID.TID 0000.0001) // Check Model config. (CONFIG_CHECK):
(PID.TID 0000.0001) // CONFIG_CHECK : Normal End
(PID.TID 0000.0001) // =======================================================
(PID.TID 0000.0001) 
(PID.TID 0000.0001) Start initial hydrostatic pressure computation
(PID.TID 0000.0001) Pressure is predetermined for buoyancyRelation OCEANIC
(PID.TID 0000.0001) 
(PID.TID 0000.0001) // =======================================================
(PID.TID 0000.0001) // Model current state
(PID.TID 0000.0001) // =======================================================
(PID.TID 0000.0001) 
(PID.TID 0000.0001) // =======================================================
(PID.TID 0000.0001) // Begin MONITOR dynamic field statistics
(PID.TID 0000.0001) // =======================================================
(PID.TID 0000.0001) %MON time_tsnumber                =                     0
(PID.TID 0000.0001) %MON time_secondsf                =   0.0000000000000E+00
(PID.TID 0000.0001) %MON dynstat_eta_max              =   0.0000000000000E+00
(PID.TID 0000.0001) %MON dynstat_eta_min              =   0.0000000000000E+00
(PID.TID 0000.0001) %MON dynstat_eta_mean             =   0.0000000000000E+00
(PID.TID 0000.0001) %MON dynstat_eta_sd               =   0.0000000000000E+00
(PID.TID 0000.0001) %MON dynstat_eta_del2             =   0.0000000000000E+00
(PID.TID 0000.0001) %MON dynstat_uvel_max             =   0.0000000000000E+00
(PID.TID 0000.0001) %MON dynstat_uvel_min             =   0.0000000000000E+00
(PID.TID 0000.0001) %MON dynstat_uvel_mean            =   0.0000000000000E+00
(PID.TID 0000.0001) %MON dynstat_uvel_sd              =   0.0000000000000E+00
(PID.TID 0000.0001) %MON dynstat_uvel_del2            =   0.0000000000000E+00
(PID.TID 0000.0001) %MON dynstat_vvel_max             =   0.0000000000000E+00
(PID.TID 0000.0001) %MON dynstat_vvel_min             =   0.0000000000000E+00
(PID.TID 0000.0001) %MON dynstat_vvel_mean            =   0.0000000000000E+00
(PID.TID 0000.0001) %MON dynstat_vvel_sd              =   0.0000000000000E+00
(PID.TID 0000.0001) %MON dynstat_vvel_del2            =   0.0000000000000E+00
(PID.TID 0000.0001) %MON dynstat_wvel_max             =  -0.0000000000000E+00
(PID.TID 0000.0001) %MON dynstat_wvel_min             =  -0.0000000000000E+00
(PID.TID 0000.0001) %MON dynstat_wvel_mean            =   0.0000000000000E+00
(PID.TID 0000.0001) %MON dynstat_wvel_sd              =   0.0000000000000E+00
(PID.TID 0000.0001) %MON dynstat_wvel_del2            =   0.0000000000000E+00
(PID.TID 0000.0001) %MON dynstat_theta_max            =  -1.9000000000000E+00
(PID.TID 0000.0001) %MON dynstat_theta_min            =  -1.9000000000000E+00
(PID.TID 0000.0001) %MON dynstat_theta_mean           =  -1.9000000000001E+00
(PID.TID 0000.0001) %MON dynstat_theta_sd             =   8.1268325402562E-14
(PID.TID 0000.0001) %MON dynstat_theta_del2           =   0.0000000000000E+00
(PID.TID 0000.0001) %MON dynstat_salt_max             =   3.4400000000000E+01
(PID.TID 0000.0001) %MON dynstat_salt_min             =   3.4400000000000E+01
(PID.TID 0000.0001) %MON dynstat_salt_mean            =   3.4400000000001E+01
(PID.TID 0000.0001) %MON dynstat_salt_sd              =   7.3185901783291E-13
(PID.TID 0000.0001) %MON dynstat_salt_del2            =   0.0000000000000E+00
(PID.TID 0000.0001) %MON advcfl_uvel_max              =   0.0000000000000E+00
(PID.TID 0000.0001) %MON advcfl_vvel_max              =   0.0000000000000E+00
(PID.TID 0000.0001) %MON advcfl_wvel_max              =   0.0000000000000E+00
(PID.TID 0000.0001) %MON advcfl_W_hf_max              =   0.0000000000000E+00
(PID.TID 0000.0001) %MON pe_b_mean                    =   0.0000000000000E+00
(PID.TID 0000.0001) %MON ke_max                       =   0.0000000000000E+00
(PID.TID 0000.0001) %MON ke_mean                      =   0.0000000000000E+00
(PID.TID 0000.0001) %MON ke_vol                       =   2.9241705273105E+14
(PID.TID 0000.0001) %MON vort_r_min                   =   0.0000000000000E+00
(PID.TID 0000.0001) %MON vort_r_max                   =   0.0000000000000E+00
(PID.TID 0000.0001) %MON vort_a_mean                  =  -1.4007437277914E-04
(PID.TID 0000.0001) %MON vort_a_sd                    =   1.7682771475900E-06
(PID.TID 0000.0001) %MON vort_p_mean                  =  -1.5039772194953E-04
(PID.TID 0000.0001) %MON vort_p_sd                    =   8.7081213929730E-05
(PID.TID 0000.0001) %MON surfExpan_theta_mean         =   0.0000000000000E+00
(PID.TID 0000.0001) %MON surfExpan_salt_mean          =   0.0000000000000E+00
(PID.TID 0000.0001) // =======================================================
(PID.TID 0000.0001) // End MONITOR dynamic field statistics
(PID.TID 0000.0001) // =======================================================
(PID.TID 0000.0001) SOLVE_FOR_PRESSURE: putPmEinXvector =    F
(PID.TID 0000.0001) SOLVE_FOR_PRESSURE: zeroPsNH=    F , zeroMeanPnh=    F
(PID.TID 0000.0001) SOLVE_FOR_PRESSURE: oldFreeSurfTerm =    F
 cg2d: Sum(rhs),rhsMax =   4.44089209850063E-14  2.93977357768777E-13
(PID.TID 0000.0001)      cg2d_init_res =   1.98463437429329E+01
(PID.TID 0000.0001)      cg2d_iters(min,last) =      -1     213
(PID.TID 0000.0001)      cg2d_last_res =   8.50712200749229E-14
(PID.TID 0000.0001) // =======================================================
(PID.TID 0000.0001) // Begin MONITOR dynamic field statistics
(PID.TID 0000.0001) // =======================================================
(PID.TID 0000.0001) %MON time_tsnumber                =                     1
(PID.TID 0000.0001) %MON time_secondsf                =   1.8000000000000E+03
(PID.TID 0000.0001) %MON dynstat_eta_max              =   6.4488818373221E-14
(PID.TID 0000.0001) %MON dynstat_eta_min              =  -3.6172954226865E-14
(PID.TID 0000.0001) %MON dynstat_eta_mean             =  -1.0226076072780E-30
(PID.TID 0000.0001) %MON dynstat_eta_sd               =   1.3931875514769E-14
(PID.TID 0000.0001) %MON dynstat_eta_del2             =   4.4441984940998E-16
(PID.TID 0000.0001) %MON dynstat_uvel_max             =   1.8202135050718E-14
(PID.TID 0000.0001) %MON dynstat_uvel_min             =  -1.0974043498037E-14
(PID.TID 0000.0001) %MON dynstat_uvel_mean            =   8.0986705195254E-17
(PID.TID 0000.0001) %MON dynstat_uvel_sd              =   2.5578110166137E-15
(PID.TID 0000.0001) %MON dynstat_uvel_del2            =   1.7873830438031E-17
(PID.TID 0000.0001) %MON dynstat_vvel_max             =   1.2103015451058E-14
(PID.TID 0000.0001) %MON dynstat_vvel_min             =  -1.5644836033224E-14
(PID.TID 0000.0001) %MON dynstat_vvel_mean            =  -8.6600072037909E-16
(PID.TID 0000.0001) %MON dynstat_vvel_sd              =   1.3540466468273E-15
(PID.TID 0000.0001) %MON dynstat_vvel_del2            =   2.7273172642717E-18
(PID.TID 0000.0001) %MON dynstat_wvel_max             =   4.3644487485418E-17
(PID.TID 0000.0001) %MON dynstat_wvel_min             =  -2.6084941983618E-17
(PID.TID 0000.0001) %MON dynstat_wvel_mean            =  -7.5552451821479E-19
(PID.TID 0000.0001) %MON dynstat_wvel_sd              =   3.9906193280465E-18
(PID.TID 0000.0001) %MON dynstat_wvel_del2            =   2.6707901299603E-20
(PID.TID 0000.0001) %MON dynstat_theta_max            =  -1.9000000000000E+00
(PID.TID 0000.0001) %MON dynstat_theta_min            =  -1.9006851721692E+00
(PID.TID 0000.0001) %MON dynstat_theta_mean           =  -1.9000114590764E+00
(PID.TID 0000.0001) %MON dynstat_theta_sd             =   5.3541545558264E-05
(PID.TID 0000.0001) %MON dynstat_theta_del2           =   5.7317995272153E-08
(PID.TID 0000.0001) %MON dynstat_salt_max             =   3.4400000000000E+01
(PID.TID 0000.0001) %MON dynstat_salt_min             =   3.4399720387688E+01
(PID.TID 0000.0001) %MON dynstat_salt_mean            =   3.4399995374963E+01
(PID.TID 0000.0001) %MON dynstat_salt_sd              =   2.1724392826836E-05
(PID.TID 0000.0001) %MON dynstat_salt_del2            =   2.3353172088220E-08
(PID.TID 0000.0001) %MON advcfl_uvel_max              =   5.3153704815478E-15
(PID.TID 0000.0001) %MON advcfl_vvel_max              =   2.5329506068765E-15
(PID.TID 0000.0001) %MON advcfl_wvel_max              =   2.6186692491251E-15
(PID.TID 0000.0001) %MON advcfl_W_hf_max              =   1.9542839814317E-14
(PID.TID 0000.0001) %MON pe_b_mean                    =  -5.0059715015359E-18
(PID.TID 0000.0001) %MON ke_max                       =   1.6879903915219E-28
(PID.TID 0000.0001) %MON ke_mean                      =   4.4841649695463E-30
(PID.TID 0000.0001) %MON ke_vol                       =   2.9241705273105E+14
(PID.TID 0000.0001) %MON vort_r_min                   =  -2.1928549827811E-18
(PID.TID 0000.0001) %MON vort_r_max                   =   2.5499404335578E-18
(PID.TID 0000.0001) %MON vort_a_mean                  =  -1.4007437277914E-04
(PID.TID 0000.0001) %MON vort_a_sd                    =   1.7682771475769E-06
(PID.TID 0000.0001) %MON vort_p_mean                  =  -1.5039772194954E-04
(PID.TID 0000.0001) %MON vort_p_sd                    =   8.7081213929731E-05
(PID.TID 0000.0001) %MON surfExpan_theta_mean         =  -4.9982187444106E-22
(PID.TID 0000.0001) %MON surfExpan_salt_mean          =  -2.0548360680978E-22
(PID.TID 0000.0001) // =======================================================
(PID.TID 0000.0001) // End MONITOR dynamic field statistics
(PID.TID 0000.0001) // =======================================================
 cg2d: Sum(rhs),rhsMax =   6.10130925316101E-14  4.42863871550926E-07
(PID.TID 0000.0001)      cg2d_init_res =   1.62246959919449E+01
(PID.TID 0000.0001)      cg2d_iters(min,last) =      -1     220
(PID.TID 0000.0001)      cg2d_last_res =   9.28335903219881E-14
(PID.TID 0000.0001) // =======================================================
(PID.TID 0000.0001) // Begin MONITOR dynamic field statistics
(PID.TID 0000.0001) // =======================================================
(PID.TID 0000.0001) %MON time_tsnumber                =                     2
(PID.TID 0000.0001) %MON time_secondsf                =   3.6000000000000E+03
(PID.TID 0000.0001) %MON dynstat_eta_max              =   5.7331863219547E-07
(PID.TID 0000.0001) %MON dynstat_eta_min              =  -1.0080227893642E-06
(PID.TID 0000.0001) %MON dynstat_eta_mean             =  -1.4297090592121E-23
(PID.TID 0000.0001) %MON dynstat_eta_sd               =   2.3360382934154E-07
(PID.TID 0000.0001) %MON dynstat_eta_del2             =   6.5353679043933E-10
(PID.TID 0000.0001) %MON dynstat_uvel_max             =   1.8290281137950E-07
(PID.TID 0000.0001) %MON dynstat_uvel_min             =  -1.4121808815824E-06
(PID.TID 0000.0001) %MON dynstat_uvel_mean            =   8.4299449953304E-10
(PID.TID 0000.0001) %MON dynstat_uvel_sd              =   9.2705005126124E-08
(PID.TID 0000.0001) %MON dynstat_uvel_del2            =   2.1687026032323E-10
(PID.TID 0000.0001) %MON dynstat_vvel_max             =   5.6046695823465E-06
(PID.TID 0000.0001) %MON dynstat_vvel_min             =  -7.1775497828986E-07
(PID.TID 0000.0001) %MON dynstat_vvel_mean            =  -1.9525049922329E-08
(PID.TID 0000.0001) %MON dynstat_vvel_sd              =   3.3586038685697E-07
(PID.TID 0000.0001) %MON dynstat_vvel_del2            =   6.6939099227753E-10
(PID.TID 0000.0001) %MON dynstat_wvel_max             =   1.2918048270053E-08
(PID.TID 0000.0001) %MON dynstat_wvel_min             =  -1.1579316006064E-08
(PID.TID 0000.0001) %MON dynstat_wvel_mean            =  -1.3005670207440E-11
(PID.TID 0000.0001) %MON dynstat_wvel_sd              =   8.8098631521219E-10
(PID.TID 0000.0001) %MON dynstat_wvel_del2            =   9.5539016186950E-12
(PID.TID 0000.0001) %MON dynstat_theta_max            =  -1.9000000000000E+00
(PID.TID 0000.0001) %MON dynstat_theta_min            =  -1.9013688224855E+00
(PID.TID 0000.0001) %MON dynstat_theta_mean           =  -1.9000228986932E+00
(PID.TID 0000.0001) %MON dynstat_theta_sd             =   1.0695883254266E-04
(PID.TID 0000.0001) %MON dynstat_theta_del2           =   1.1425489207682E-07
(PID.TID 0000.0001) %MON dynstat_salt_max             =   3.4400000000000E+01
(PID.TID 0000.0001) %MON dynstat_salt_min             =   3.4399441399459E+01
(PID.TID 0000.0001) %MON dynstat_salt_mean            =   3.4399990757901E+01
(PID.TID 0000.0001) %MON dynstat_salt_sd              =   4.3397842638798E-05
(PID.TID 0000.0001) %MON dynstat_salt_del2            =   4.6550670649985E-08
(PID.TID 0000.0001) %MON advcfl_uvel_max              =   4.2018601656725E-07
(PID.TID 0000.0001) %MON advcfl_vvel_max              =   9.0741450979725E-07
(PID.TID 0000.0001) %MON advcfl_wvel_max              =   7.7508289620315E-07
(PID.TID 0000.0001) %MON advcfl_W_hf_max              =   1.1606007315048E-06
(PID.TID 0000.0001) %MON pe_b_mean                    =  -1.7880306331614E-10
(PID.TID 0000.0001) %MON ke_max                       =   9.2749721560833E-12
(PID.TID 0000.0001) %MON ke_mean                      =   6.0136097864223E-14
(PID.TID 0000.0001) %MON ke_vol                       =   2.9241705273105E+14
(PID.TID 0000.0001) %MON vort_r_min                   =  -9.4794014339911E-10
(PID.TID 0000.0001) %MON vort_r_max                   =   9.3462256814495E-10
(PID.TID 0000.0001) %MON vort_a_mean                  =  -1.4007437277913E-04
(PID.TID 0000.0001) %MON vort_a_sd                    =   1.7682771395870E-06
(PID.TID 0000.0001) %MON vort_p_mean                  =  -1.5039772194952E-04
(PID.TID 0000.0001) %MON vort_p_sd                    =   8.7081200714187E-05
(PID.TID 0000.0001) %MON surfExpan_theta_mean         =  -1.6195843364924E-14
(PID.TID 0000.0001) %MON surfExpan_salt_mean          =  -6.6802066070311E-15
(PID.TID 0000.0001) // =======================================================
(PID.TID 0000.0001) // End MONITOR dynamic field statistics
(PID.TID 0000.0001) // =======================================================
 cg2d: Sum(rhs),rhsMax =   3.78586051397178E-14  7.68818349065631E-07
(PID.TID 0000.0001)      cg2d_init_res =   5.96822658854250E+00
(PID.TID 0000.0001)      cg2d_iters(min,last) =      -1     218
(PID.TID 0000.0001)      cg2d_last_res =   9.66613828206974E-14
(PID.TID 0000.0001) // =======================================================
(PID.TID 0000.0001) // Begin MONITOR dynamic field statistics
(PID.TID 0000.0001) // =======================================================
(PID.TID 0000.0001) %MON time_tsnumber                =                     3
(PID.TID 0000.0001) %MON time_secondsf                =   5.4000000000000E+03
(PID.TID 0000.0001) %MON dynstat_eta_max              =   1.4789408521630E-06
(PID.TID 0000.0001) %MON dynstat_eta_min              =  -1.8139302615789E-06
(PID.TID 0000.0001) %MON dynstat_eta_mean             =  -6.0307727588585E-23
(PID.TID 0000.0001) %MON dynstat_eta_sd               =   5.7553875687039E-07
(PID.TID 0000.0001) %MON dynstat_eta_del2             =   1.0357274923590E-09
(PID.TID 0000.0001) %MON dynstat_uvel_max             =   6.7172253199171E-07
(PID.TID 0000.0001) %MON dynstat_uvel_min             =  -4.8259281274880E-06
(PID.TID 0000.0001) %MON dynstat_uvel_mean            =   2.3522550313135E-09
(PID.TID 0000.0001) %MON dynstat_uvel_sd              =   3.2291913658157E-07
(PID.TID 0000.0001) %MON dynstat_uvel_del2            =   7.3756221522787E-10
(PID.TID 0000.0001) %MON dynstat_vvel_max             =   1.3890401795373E-05
(PID.TID 0000.0001) %MON dynstat_vvel_min             =  -1.8687240705400E-06
(PID.TID 0000.0001) %MON dynstat_vvel_mean            =  -4.6761673310912E-08
(PID.TID 0000.0001) %MON dynstat_vvel_sd              =   8.4089514952478E-07
(PID.TID 0000.0001) %MON dynstat_vvel_del2            =   1.6585948355633E-09
(PID.TID 0000.0001) %MON dynstat_wvel_max             =   3.5484950983806E-08
(PID.TID 0000.0001) %MON dynstat_wvel_min             =  -3.4410524298961E-08
(PID.TID 0000.0001) %MON dynstat_wvel_mean            =  -2.7059814510808E-11
(PID.TID 0000.0001) %MON dynstat_wvel_sd              =   2.2326843816745E-09
(PID.TID 0000.0001) %MON dynstat_wvel_del2            =   2.3681201470753E-11
(PID.TID 0000.0001) %MON dynstat_theta_max            =  -1.9000000000000E+00
(PID.TID 0000.0001) %MON dynstat_theta_min            =  -1.9020515257871E+00
(PID.TID 0000.0001) %MON dynstat_theta_mean           =  -1.9000343261925E+00
(PID.TID 0000.0001) %MON dynstat_theta_sd             =   1.6029883438669E-04
(PID.TID 0000.0001) %MON dynstat_theta_del2           =   1.7095641478409E-07
(PID.TID 0000.0001) %MON dynstat_salt_max             =   3.4400000000000E+01
(PID.TID 0000.0001) %MON dynstat_salt_min             =   3.4399162799576E+01
(PID.TID 0000.0001) %MON dynstat_salt_mean            =   3.4399986145806E+01
(PID.TID 0000.0001) %MON dynstat_salt_sd              =   6.5039607820747E-05
(PID.TID 0000.0001) %MON dynstat_salt_del2            =   6.9652023931917E-08
(PID.TID 0000.0001) %MON advcfl_uvel_max              =   1.4359261922997E-06
(PID.TID 0000.0001) %MON advcfl_vvel_max              =   2.2489019113163E-06
(PID.TID 0000.0001) %MON advcfl_wvel_max              =   2.1290970590284E-06
(PID.TID 0000.0001) %MON advcfl_W_hf_max              =   2.9055192857316E-06
(PID.TID 0000.0001) %MON pe_b_mean                    =  -4.9075129721037E-10
(PID.TID 0000.0001) %MON ke_max                       =   6.2737757651057E-11
(PID.TID 0000.0001) %MON ke_mean                      =   4.0155295888499E-13
(PID.TID 0000.0001) %MON ke_vol                       =   2.9241705273105E+14
(PID.TID 0000.0001) %MON vort_r_min                   =  -2.3517744613003E-09
(PID.TID 0000.0001) %MON vort_r_max                   =   2.3169746338665E-09
(PID.TID 0000.0001) %MON vort_a_mean                  =  -1.4007437277895E-04
(PID.TID 0000.0001) %MON vort_a_sd                    =   1.7682771184701E-06
(PID.TID 0000.0001) %MON vort_p_mean                  =  -1.5039772194944E-04
(PID.TID 0000.0001) %MON vort_p_sd                    =   8.7081165206724E-05
(PID.TID 0000.0001) %MON surfExpan_theta_mean         =  -5.1625344097872E-14
(PID.TID 0000.0001) %MON surfExpan_salt_mean          =  -2.1273331424366E-14
(PID.TID 0000.0001) // =======================================================
(PID.TID 0000.0001) // End MONITOR dynamic field statistics
(PID.TID 0000.0001) // =======================================================
 cg2d: Sum(rhs),rhsMax =   7.28306304154103E-14  1.10075375037436E-06
(PID.TID 0000.0001)      cg2d_init_res =   4.04329781808446E+00
(PID.TID 0000.0001)      cg2d_iters(min,last) =      -1     219
(PID.TID 0000.0001)      cg2d_last_res =   8.34857281146248E-14
(PID.TID 0000.0001) // =======================================================
(PID.TID 0000.0001) // Begin MONITOR dynamic field statistics
(PID.TID 0000.0001) // =======================================================
(PID.TID 0000.0001) %MON time_tsnumber                =                     4
(PID.TID 0000.0001) %MON time_secondsf                =   7.2000000000000E+03
(PID.TID 0000.0001) %MON dynstat_eta_max              =   2.6022012502409E-06
(PID.TID 0000.0001) %MON dynstat_eta_min              =  -2.2335005318836E-06
(PID.TID 0000.0001) %MON dynstat_eta_mean             =  -4.9909843521588E-23
(PID.TID 0000.0001) %MON dynstat_eta_sd               =   9.8067194014488E-07
(PID.TID 0000.0001) %MON dynstat_eta_del2             =   1.4066225734347E-09
(PID.TID 0000.0001) %MON dynstat_uvel_max             =   1.5301914190421E-06
(PID.TID 0000.0001) %MON dynstat_uvel_min             =  -1.0722375988746E-05
(PID.TID 0000.0001) %MON dynstat_uvel_mean            =   3.6932586391154E-09
(PID.TID 0000.0001) %MON dynstat_uvel_sd              =   7.2593084812565E-07
(PID.TID 0000.0001) %MON dynstat_uvel_del2            =   1.6333597742505E-09
(PID.TID 0000.0001) %MON dynstat_vvel_max             =   2.4232968994652E-05
(PID.TID 0000.0001) %MON dynstat_vvel_min             =  -3.3458176266571E-06
(PID.TID 0000.0001) %MON dynstat_vvel_mean            =  -7.6333974940950E-08
(PID.TID 0000.0001) %MON dynstat_vvel_sd              =   1.4751813624390E-06
(PID.TID 0000.0001) %MON dynstat_vvel_del2            =   2.8871552094052E-09
(PID.TID 0000.0001) %MON dynstat_wvel_max             =   6.8175485038765E-08
(PID.TID 0000.0001) %MON dynstat_wvel_min             =  -6.9608042319640E-08
(PID.TID 0000.0001) %MON dynstat_wvel_mean            =  -3.9411068789795E-11
(PID.TID 0000.0001) %MON dynstat_wvel_sd              =   3.9989984874188E-09
(PID.TID 0000.0001) %MON dynstat_wvel_del2            =   4.1249219206707E-11
(PID.TID 0000.0001) %MON dynstat_theta_max            =  -1.9000000000000E+00
(PID.TID 0000.0001) %MON dynstat_theta_min            =  -1.9027332830679E+00
(PID.TID 0000.0001) %MON dynstat_theta_mean           =  -1.9000457415871E+00
(PID.TID 0000.0001) %MON dynstat_theta_sd             =   2.1356166016980E-04
(PID.TID 0000.0001) %MON dynstat_theta_del2           =   2.2742339954258E-07
(PID.TID 0000.0001) %MON dynstat_salt_max             =   3.4400000000000E+01
(PID.TID 0000.0001) %MON dynstat_salt_min             =   3.4398884587626E+01
(PID.TID 0000.0001) %MON dynstat_salt_mean            =   3.4399981538672E+01
(PID.TID 0000.0001) %MON dynstat_salt_sd              =   8.6649733252421E-05
(PID.TID 0000.0001) %MON dynstat_salt_del2            =   9.2657574251669E-08
(PID.TID 0000.0001) %MON advcfl_uvel_max              =   3.1903791600684E-06
(PID.TID 0000.0001) %MON advcfl_vvel_max              =   3.9233976879701E-06
(PID.TID 0000.0001) %MON advcfl_wvel_max              =   4.1764825391784E-06
(PID.TID 0000.0001) %MON advcfl_W_hf_max              =   5.7130307095810E-06
(PID.TID 0000.0001) %MON pe_b_mean                    =  -8.9983285969798E-10
(PID.TID 0000.0001) %MON ke_max                       =   2.1348305304271E-10
(PID.TID 0000.0001) %MON ke_mean                      =   1.3362833166935E-12
(PID.TID 0000.0001) %MON ke_vol                       =   2.9241705273105E+14
(PID.TID 0000.0001) %MON vort_r_min                   =  -4.1028674650787E-09
(PID.TID 0000.0001) %MON vort_r_max                   =   4.0382680402847E-09
(PID.TID 0000.0001) %MON vort_a_mean                  =  -1.4007437277812E-04
(PID.TID 0000.0001) %MON vort_a_sd                    =   1.7682770807055E-06
(PID.TID 0000.0001) %MON vort_p_mean                  =  -1.5039772194865E-04
(PID.TID 0000.0001) %MON vort_p_sd                    =   8.7081103085219E-05
(PID.TID 0000.0001) %MON surfExpan_theta_mean         =  -1.0126637078202E-13
(PID.TID 0000.0001) %MON surfExpan_salt_mean          =  -4.1709433350823E-14
(PID.TID 0000.0001) // =======================================================
(PID.TID 0000.0001) // End MONITOR dynamic field statistics
(PID.TID 0000.0001) // =======================================================
 cg2d: Sum(rhs),rhsMax =  -9.76996261670138E-15  1.46901973201899E-06
(PID.TID 0000.0001)      cg2d_init_res =   2.98054790551913E+00
(PID.TID 0000.0001)      cg2d_iters(min,last) =      -1     218
(PID.TID 0000.0001)      cg2d_last_res =   9.93575513039739E-14
(PID.TID 0000.0001) // =======================================================
(PID.TID 0000.0001) // Begin MONITOR dynamic field statistics
(PID.TID 0000.0001) // =======================================================
(PID.TID 0000.0001) %MON time_tsnumber                =                     5
(PID.TID 0000.0001) %MON time_secondsf                =   9.0000000000000E+03
(PID.TID 0000.0001) %MON dynstat_eta_max              =   3.8908193021261E-06
(PID.TID 0000.0001) %MON dynstat_eta_min              =  -2.3935785520066E-06
(PID.TID 0000.0001) %MON dynstat_eta_mean             =  -9.9819687043176E-23
(PID.TID 0000.0001) %MON dynstat_eta_sd               =   1.4391397842914E-06
(PID.TID 0000.0001) %MON dynstat_eta_del2             =   1.7668507350258E-09
(PID.TID 0000.0001) %MON dynstat_uvel_max             =   2.7982688746391E-06
(PID.TID 0000.0001) %MON dynstat_uvel_min             =  -1.9404138633938E-05
(PID.TID 0000.0001) %MON dynstat_uvel_mean            =   4.1908089084351E-09
(PID.TID 0000.0001) %MON dynstat_uvel_sd              =   1.3236457611128E-06
(PID.TID 0000.0001) %MON dynstat_uvel_del2            =   2.9438062555975E-09
(PID.TID 0000.0001) %MON dynstat_vvel_max             =   3.5856036047081E-05
(PID.TID 0000.0001) %MON dynstat_vvel_min             =  -5.0359853724446E-06
(PID.TID 0000.0001) %MON dynstat_vvel_mean            =  -1.0297379835990E-07
(PID.TID 0000.0001) %MON dynstat_vvel_sd              =   2.1913122327407E-06
(PID.TID 0000.0001) %MON dynstat_vvel_del2            =   4.2609181926079E-09
(PID.TID 0000.0001) %MON dynstat_wvel_max             =   1.1678725024109E-07
(PID.TID 0000.0001) %MON dynstat_wvel_min             =  -1.1748435230433E-07
(PID.TID 0000.0001) %MON dynstat_wvel_mean            =  -4.8325582804249E-11
(PID.TID 0000.0001) %MON dynstat_wvel_sd              =   6.1124002643581E-09
(PID.TID 0000.0001) %MON dynstat_wvel_del2            =   6.0991348285467E-11
(PID.TID 0000.0001) %MON dynstat_theta_max            =  -1.9000000000000E+00
(PID.TID 0000.0001) %MON dynstat_theta_min            =  -1.9034140960457E+00
(PID.TID 0000.0001) %MON dynstat_theta_mean           =  -1.9000571448950E+00
(PID.TID 0000.0001) %MON dynstat_theta_sd             =   2.6674746594637E-04
(PID.TID 0000.0001) %MON dynstat_theta_del2           =   2.8365703019075E-07
(PID.TID 0000.0001) %MON dynstat_salt_max             =   3.4400000000000E+01
(PID.TID 0000.0001) %MON dynstat_salt_min             =   3.4398606762903E+01
(PID.TID 0000.0001) %MON dynstat_salt_mean            =   3.4399976936492E+01
(PID.TID 0000.0001) %MON dynstat_salt_sd              =   1.0822828310698E-04
(PID.TID 0000.0001) %MON dynstat_salt_del2            =   1.1556780607052E-07
(PID.TID 0000.0001) %MON advcfl_uvel_max              =   5.7735859646939E-06
(PID.TID 0000.0001) %MON advcfl_vvel_max              =   5.8052106185557E-06
(PID.TID 0000.0001) %MON advcfl_wvel_max              =   7.0490611382601E-06
(PID.TID 0000.0001) %MON advcfl_W_hf_max              =   9.4623988040795E-06
(PID.TID 0000.0001) %MON pe_b_mean                    =  -1.3801132012581E-09
(PID.TID 0000.0001) %MON ke_max                       =   5.3069152673276E-10
(PID.TID 0000.0001) %MON ke_mean                      =   3.2360850635713E-12
(PID.TID 0000.0001) %MON ke_vol                       =   2.9241705273105E+14
(PID.TID 0000.0001) %MON vort_r_min                   =  -6.0707610262993E-09
(PID.TID 0000.0001) %MON vort_r_max                   =   5.9674452048119E-09
(PID.TID 0000.0001) %MON vort_a_mean                  =  -1.4007437277588E-04
(PID.TID 0000.0001) %MON vort_a_sd                    =   1.7682770265374E-06
(PID.TID 0000.0001) %MON vort_p_mean                  =  -1.5039772194622E-04
(PID.TID 0000.0001) %MON vort_p_sd                    =   8.7081011421919E-05
(PID.TID 0000.0001) %MON surfExpan_theta_mean         =  -1.5570673623365E-13
(PID.TID 0000.0001) %MON surfExpan_salt_mean          =  -6.4121597827357E-14
(PID.TID 0000.0001) // =======================================================
(PID.TID 0000.0001) // End MONITOR dynamic field statistics
(PID.TID 0000.0001) // =======================================================
 cg2d: Sum(rhs),rhsMax =   4.79616346638068E-14  1.87257091544677E-06
(PID.TID 0000.0001)      cg2d_init_res =   2.31424997664333E+00
(PID.TID 0000.0001)      cg2d_iters(min,last) =      -1     217
(PID.TID 0000.0001)      cg2d_last_res =   9.87710294114165E-14
(PID.TID 0000.0001) // =======================================================
(PID.TID 0000.0001) // Begin MONITOR dynamic field statistics
(PID.TID 0000.0001) // =======================================================
(PID.TID 0000.0001) %MON time_tsnumber                =                     6
(PID.TID 0000.0001) %MON time_secondsf                =   1.0800000000000E+04
(PID.TID 0000.0001) %MON dynstat_eta_max              =   5.3176282366554E-06
(PID.TID 0000.0001) %MON dynstat_eta_min              =  -2.5032551175805E-06
(PID.TID 0000.0001) %MON dynstat_eta_mean             =  -1.6636614507196E-23
(PID.TID 0000.0001) %MON dynstat_eta_sd               =   1.9406102527931E-06
(PID.TID 0000.0001) %MON dynstat_eta_del2             =   2.1156311574981E-09
(PID.TID 0000.0001) %MON dynstat_uvel_max             =   4.5064058804049E-06
(PID.TID 0000.0001) %MON dynstat_uvel_min             =  -3.0965534921872E-05
(PID.TID 0000.0001) %MON dynstat_uvel_mean            =   3.5705436934779E-09
(PID.TID 0000.0001) %MON dynstat_uvel_sd              =   2.1239181725179E-06
(PID.TID 0000.0001) %MON dynstat_uvel_del2            =   4.6784196521062E-09
(PID.TID 0000.0001) %MON dynstat_vvel_max             =   4.7955607105220E-05
(PID.TID 0000.0001) %MON dynstat_vvel_min             =  -6.8248868557409E-06
(PID.TID 0000.0001) %MON dynstat_vvel_mean            =  -1.2236472072229E-07
(PID.TID 0000.0001) %MON dynstat_vvel_sd              =   2.9387735733130E-06
(PID.TID 0000.0001) %MON dynstat_vvel_del2            =   5.6831231861395E-09
(PID.TID 0000.0001) %MON dynstat_wvel_max             =   1.7838718513558E-07
(PID.TID 0000.0001) %MON dynstat_wvel_min             =  -1.7750885370699E-07
(PID.TID 0000.0001) %MON dynstat_wvel_mean            =  -5.3008826743564E-11
(PID.TID 0000.0001) %MON dynstat_wvel_sd              =   8.5010410136057E-09
(PID.TID 0000.0001) %MON dynstat_wvel_del2            =   8.1612274849101E-11
(PID.TID 0000.0001) %MON dynstat_theta_max            =  -1.9000000000000E+00
(PID.TID 0000.0001) %MON dynstat_theta_min            =  -1.9040939665657E+00
(PID.TID 0000.0001) %MON dynstat_theta_mean           =  -1.9000685361347E+00
(PID.TID 0000.0001) %MON dynstat_theta_sd             =   3.1985640743638E-04
(PID.TID 0000.0001) %MON dynstat_theta_del2           =   3.3965848577929E-07
(PID.TID 0000.0001) %MON dynstat_salt_max             =   3.4400000000000E+01
(PID.TID 0000.0001) %MON dynstat_salt_min             =   3.4398329324646E+01
(PID.TID 0000.0001) %MON dynstat_salt_mean            =   3.4399972339260E+01
(PID.TID 0000.0001) %MON dynstat_salt_sd              =   1.2977532141898E-04
(PID.TID 0000.0001) %MON dynstat_salt_del2            =   1.3838320188205E-07
(PID.TID 0000.0001) %MON advcfl_uvel_max              =   9.2136106212654E-06
(PID.TID 0000.0001) %MON advcfl_vvel_max              =   7.7641711208949E-06
(PID.TID 0000.0001) %MON advcfl_wvel_max              =   1.0703231108135E-05
(PID.TID 0000.0001) %MON advcfl_W_hf_max              =   1.4045006361094E-05
(PID.TID 0000.0001) %MON pe_b_mean                    =  -1.9060408407190E-09
(PID.TID 0000.0001) %MON ke_max                       =   1.0927253796844E-09
(PID.TID 0000.0001) %MON ke_mean                      =   6.4843122375069E-12
(PID.TID 0000.0001) %MON ke_vol                       =   2.9241705273105E+14
(PID.TID 0000.0001) %MON vort_r_min                   =  -8.1193311559769E-09
(PID.TID 0000.0001) %MON vort_r_max                   =   7.9683030295589E-09
(PID.TID 0000.0001) %MON vort_a_mean                  =  -1.4007437277164E-04
(PID.TID 0000.0001) %MON vort_a_sd                    =   1.7682769582449E-06
(PID.TID 0000.0001) %MON vort_p_mean                  =  -1.5039772194141E-04
(PID.TID 0000.0001) %MON vort_p_sd                    =   8.7080889374319E-05
(PID.TID 0000.0001) %MON surfExpan_theta_mean         =  -2.0476102163347E-13
(PID.TID 0000.0001) %MON surfExpan_salt_mean          =  -8.4324012482914E-14
(PID.TID 0000.0001) // =======================================================
(PID.TID 0000.0001) // End MONITOR dynamic field statistics
(PID.TID 0000.0001) // =======================================================
 cg2d: Sum(rhs),rhsMax =  -1.59872115546023E-14  2.29956116009596E-06
(PID.TID 0000.0001)      cg2d_init_res =   1.87163187066418E+00
(PID.TID 0000.0001)      cg2d_iters(min,last) =      -1     216
(PID.TID 0000.0001)      cg2d_last_res =   9.81675192801791E-14
(PID.TID 0000.0001) // =======================================================
(PID.TID 0000.0001) // Begin MONITOR dynamic field statistics
(PID.TID 0000.0001) // =======================================================
(PID.TID 0000.0001) %MON time_tsnumber                =                     7
(PID.TID 0000.0001) %MON time_secondsf                =   1.2600000000000E+04
(PID.TID 0000.0001) %MON dynstat_eta_max              =   6.8232399784160E-06
(PID.TID 0000.0001) %MON dynstat_eta_min              =  -2.7193202520671E-06
(PID.TID 0000.0001) %MON dynstat_eta_mean             =   2.9945906112953E-22
(PID.TID 0000.0001) %MON dynstat_eta_sd               =   2.4637292915569E-06
(PID.TID 0000.0001) %MON dynstat_eta_del2             =   2.4528957740834E-09
(PID.TID 0000.0001) %MON dynstat_uvel_max             =   6.6705316693060E-06
(PID.TID 0000.0001) %MON dynstat_uvel_min             =  -4.5297630725525E-05
(PID.TID 0000.0001) %MON dynstat_uvel_mean            =   1.9887826189949E-09
(PID.TID 0000.0001) %MON dynstat_uvel_sd              =   3.1208185670603E-06
(PID.TID 0000.0001) %MON dynstat_uvel_del2            =   6.8181892911445E-09
(PID.TID 0000.0001) %MON dynstat_vvel_max             =   5.9748163601526E-05
(PID.TID 0000.0001) %MON dynstat_vvel_min             =  -8.6040832981756E-06
(PID.TID 0000.0001) %MON dynstat_vvel_mean            =  -1.3176562177108E-07
(PID.TID 0000.0001) %MON dynstat_vvel_sd              =   3.6674537760453E-06
(PID.TID 0000.0001) %MON dynstat_vvel_del2            =   7.0609100780990E-09
(PID.TID 0000.0001) %MON dynstat_wvel_max             =   2.5180326884912E-07
(PID.TID 0000.0001) %MON dynstat_wvel_min             =  -2.4839386684927E-07
(PID.TID 0000.0001) %MON dynstat_wvel_mean            =  -5.3419433729238E-11
(PID.TID 0000.0001) %MON dynstat_wvel_sd              =   1.1093006988996E-08
(PID.TID 0000.0001) %MON dynstat_wvel_del2            =   1.0188716671672E-10
(PID.TID 0000.0001) %MON dynstat_theta_max            =  -1.9000000000000E+00
(PID.TID 0000.0001) %MON dynstat_theta_min            =  -1.9047728966408E+00
(PID.TID 0000.0001) %MON dynstat_theta_mean           =  -1.9000799153244E+00
(PID.TID 0000.0001) %MON dynstat_theta_sd             =   3.7288863992685E-04
(PID.TID 0000.0001) %MON dynstat_theta_del2           =   3.9542893542829E-07
(PID.TID 0000.0001) %MON dynstat_salt_max             =   3.4400000000000E+01
(PID.TID 0000.0001) %MON dynstat_salt_min             =   3.4398052272026E+01
(PID.TID 0000.0001) %MON dynstat_salt_mean            =   3.4399967746966E+01
(PID.TID 0000.0001) %MON dynstat_salt_sd              =   1.5129091204430E-04
(PID.TID 0000.0001) %MON dynstat_salt_del2            =   1.6110424011419E-07
(PID.TID 0000.0001) %MON advcfl_uvel_max              =   1.3478040428621E-05
(PID.TID 0000.0001) %MON advcfl_vvel_max              =   9.6734249520319E-06
(PID.TID 0000.0001) %MON advcfl_wvel_max              =   1.5108196130947E-05
(PID.TID 0000.0001) %MON advcfl_W_hf_max              =   1.9337938434977E-05
(PID.TID 0000.0001) %MON pe_b_mean                    =  -2.4481378866674E-09
(PID.TID 0000.0001) %MON ke_max                       =   1.9774500260446E-09
(PID.TID 0000.0001) %MON ke_mean                      =   1.1424991215630E-11
(PID.TID 0000.0001) %MON ke_vol                       =   2.9241705273105E+14
(PID.TID 0000.0001) %MON vort_r_min                   =  -1.0115920859429E-08
(PID.TID 0000.0001) %MON vort_r_max                   =   9.9092811316106E-09
(PID.TID 0000.0001) %MON vort_a_mean                  =  -1.4007437276544E-04
(PID.TID 0000.0001) %MON vort_a_sd                    =   1.7682768773492E-06
(PID.TID 0000.0001) %MON vort_p_mean                  =  -1.5039772193425E-04
(PID.TID 0000.0001) %MON vort_p_sd                    =   8.7080738118061E-05
(PID.TID 0000.0001) %MON surfExpan_theta_mean         =  -2.3993671603926E-13
(PID.TID 0000.0001) %MON surfExpan_salt_mean          =  -9.8822134215408E-14
(PID.TID 0000.0001) // =======================================================
(PID.TID 0000.0001) // End MONITOR dynamic field statistics
(PID.TID 0000.0001) // =======================================================
 cg2d: Sum(rhs),rhsMax =  -5.32907051820075E-15  2.73790860442602E-06
(PID.TID 0000.0001)      cg2d_init_res =   1.56088214118216E+00
(PID.TID 0000.0001)      cg2d_iters(min,last) =      -1     215
(PID.TID 0000.0001)      cg2d_last_res =   9.77231191294840E-14
(PID.TID 0000.0001) // =======================================================
(PID.TID 0000.0001) // Begin MONITOR dynamic field statistics
(PID.TID 0000.0001) // =======================================================
(PID.TID 0000.0001) %MON time_tsnumber                =                     8
(PID.TID 0000.0001) %MON time_secondsf                =   1.4400000000000E+04
(PID.TID 0000.0001) %MON dynstat_eta_max              =   8.3213179164950E-06
(PID.TID 0000.0001) %MON dynstat_eta_min              =  -3.1104166452511E-06
(PID.TID 0000.0001) %MON dynstat_eta_mean             =   1.3309291605757E-22
(PID.TID 0000.0001) %MON dynstat_eta_sd               =   2.9801580776341E-06
(PID.TID 0000.0001) %MON dynstat_eta_del2             =   2.7787680141424E-09
(PID.TID 0000.0001) %MON dynstat_uvel_max             =   9.2308153629166E-06
(PID.TID 0000.0001) %MON dynstat_uvel_min             =  -6.2112083670910E-05
(PID.TID 0000.0001) %MON dynstat_uvel_mean            =  -7.6390144761192E-11
(PID.TID 0000.0001) %MON dynstat_uvel_sd              =   4.2957477609829E-06
(PID.TID 0000.0001) %MON dynstat_uvel_del2            =   9.3189366435568E-09
(PID.TID 0000.0001) %MON dynstat_vvel_max             =   7.0521220595508E-05
(PID.TID 0000.0001) %MON dynstat_vvel_min             =  -1.0275303827280E-05
(PID.TID 0000.0001) %MON dynstat_vvel_mean            =  -1.3026455380526E-07
(PID.TID 0000.0001) %MON dynstat_vvel_sd              =   4.3309095839378E-06
(PID.TID 0000.0001) %MON dynstat_vvel_del2            =   8.3110379005899E-09
(PID.TID 0000.0001) %MON dynstat_wvel_max             =   3.3518687499364E-07
(PID.TID 0000.0001) %MON dynstat_wvel_min             =  -3.2823581503030E-07
(PID.TID 0000.0001) %MON dynstat_wvel_mean            =  -5.0022038329847E-11
(PID.TID 0000.0001) %MON dynstat_wvel_sd              =   1.3818921602101E-08
(PID.TID 0000.0001) %MON dynstat_wvel_del2            =   1.2073975517491E-10
(PID.TID 0000.0001) %MON dynstat_theta_max            =  -1.9000000000000E+00
(PID.TID 0000.0001) %MON dynstat_theta_min            =  -1.9054508884712E+00
(PID.TID 0000.0001) %MON dynstat_theta_mean           =  -1.9000912824822E+00
(PID.TID 0000.0001) %MON dynstat_theta_sd             =   4.2584431821502E-04
(PID.TID 0000.0001) %MON dynstat_theta_del2           =   4.5096953419697E-07
(PID.TID 0000.0001) %MON dynstat_salt_max             =   3.4400000000000E+01
(PID.TID 0000.0001) %MON dynstat_salt_min             =   3.4397775604138E+01
(PID.TID 0000.0001) %MON dynstat_salt_mean            =   3.4399963159603E+01
(PID.TID 0000.0001) %MON dynstat_salt_sd              =   1.7277511863705E-04
(PID.TID 0000.0001) %MON dynstat_salt_del2            =   1.8373139344506E-07
(PID.TID 0000.0001) %MON advcfl_uvel_max              =   1.8481080829481E-05
(PID.TID 0000.0001) %MON advcfl_vvel_max              =   1.1417618447756E-05
(PID.TID 0000.0001) %MON advcfl_wvel_max              =   2.0111212499618E-05
(PID.TID 0000.0001) %MON advcfl_W_hf_max              =   2.5181549653068E-05
(PID.TID 0000.0001) %MON pe_b_mean                    =  -2.9750347917546E-09
(PID.TID 0000.0001) %MON ke_max                       =   3.2511361589322E-09
(PID.TID 0000.0001) %MON ke_mean                      =   1.8314932229155E-11
(PID.TID 0000.0001) %MON ke_vol                       =   2.9241705273105E+14
(PID.TID 0000.0001) %MON vort_r_min                   =  -1.1939899796958E-08
(PID.TID 0000.0001) %MON vort_r_max                   =   1.1671933555991E-08
(PID.TID 0000.0001) %MON vort_a_mean                  =  -1.4007437275810E-04
(PID.TID 0000.0001) %MON vort_a_sd                    =   1.7682767836810E-06
(PID.TID 0000.0001) %MON vort_p_mean                  =  -1.5039772192568E-04
(PID.TID 0000.0001) %MON vort_p_sd                    =   8.7080560706824E-05
(PID.TID 0000.0001) %MON surfExpan_theta_mean         =  -2.5551345704290E-13
(PID.TID 0000.0001) %MON surfExpan_salt_mean          =  -1.0525821762418E-13
(PID.TID 0000.0001) // =======================================================
(PID.TID 0000.0001) // End MONITOR dynamic field statistics
(PID.TID 0000.0001) // =======================================================
 cg2d: Sum(rhs),rhsMax =  -1.95399252334028E-14  3.17731789862320E-06
(PID.TID 0000.0001)      cg2d_init_res =   1.33185729948194E+00
(PID.TID 0000.0001)      cg2d_iters(min,last) =      -1     215
(PID.TID 0000.0001)      cg2d_last_res =   7.94481338040420E-14
(PID.TID 0000.0001) // =======================================================
(PID.TID 0000.0001) // Begin MONITOR dynamic field statistics
(PID.TID 0000.0001) // =======================================================
(PID.TID 0000.0001) %MON time_tsnumber                =                     9
(PID.TID 0000.0001) %MON time_secondsf                =   1.6200000000000E+04
(PID.TID 0000.0001) %MON dynstat_eta_max              =   9.7456424953512E-06
(PID.TID 0000.0001) %MON dynstat_eta_min              =  -3.6837254453624E-06
(PID.TID 0000.0001) %MON dynstat_eta_mean             =   1.3309291605757E-22
(PID.TID 0000.0001) %MON dynstat_eta_sd               =   3.4612554118353E-06
(PID.TID 0000.0001) %MON dynstat_eta_del2             =   3.0934742405531E-09
(PID.TID 0000.0001) %MON dynstat_uvel_max             =   1.2123765856331E-05
(PID.TID 0000.0001) %MON dynstat_uvel_min             =  -8.0974588639176E-05
(PID.TID 0000.0001) %MON dynstat_uvel_mean            =  -2.0159055089027E-09
(PID.TID 0000.0001) %MON dynstat_uvel_sd              =   5.6192949327805E-06
(PID.TID 0000.0001) %MON dynstat_uvel_del2            =   1.2116137846141E-08
(PID.TID 0000.0001) %MON dynstat_vvel_max             =   7.9676308724152E-05
(PID.TID 0000.0001) %MON dynstat_vvel_min             =  -1.1753629646471E-05
(PID.TID 0000.0001) %MON dynstat_vvel_mean            =  -1.1865993084827E-07
(PID.TID 0000.0001) %MON dynstat_vvel_sd              =   4.8892409014777E-06
(PID.TID 0000.0001) %MON dynstat_vvel_del2            =   9.3645951693228E-09
(PID.TID 0000.0001) %MON dynstat_wvel_max             =   4.2616288763094E-07
(PID.TID 0000.0001) %MON dynstat_wvel_min             =  -4.1468042660236E-07
(PID.TID 0000.0001) %MON dynstat_wvel_mean            =  -4.3574984311259E-11
(PID.TID 0000.0001) %MON dynstat_wvel_sd              =   1.6613831305467E-08
(PID.TID 0000.0001) %MON dynstat_wvel_del2            =   1.3730575987664E-10
(PID.TID 0000.0001) %MON dynstat_theta_max            =  -1.9000000000000E+00
(PID.TID 0000.0001) %MON dynstat_theta_min            =  -1.9061279444429E+00
(PID.TID 0000.0001) %MON dynstat_theta_mean           =  -1.9001026376263E+00
(PID.TID 0000.0001) %MON dynstat_theta_sd             =   4.7872359659847E-04
(PID.TID 0000.0001) %MON dynstat_theta_del2           =   5.0628141990713E-07
(PID.TID 0000.0001) %MON dynstat_salt_max             =   3.4400000000000E+01
(PID.TID 0000.0001) %MON dynstat_salt_min             =   3.4397499320002E+01
(PID.TID 0000.0001) %MON dynstat_salt_mean            =   3.4399958577165E+01
(PID.TID 0000.0001) %MON dynstat_salt_sd              =   1.9422800464542E-04
(PID.TID 0000.0001) %MON dynstat_salt_del2            =   2.0626512750872E-07
(PID.TID 0000.0001) %MON advcfl_uvel_max              =   2.4093506920545E-05
(PID.TID 0000.0001) %MON advcfl_vvel_max              =   1.2899857442285E-05
(PID.TID 0000.0001) %MON advcfl_wvel_max              =   2.5569773257857E-05
(PID.TID 0000.0001) %MON advcfl_W_hf_max              =   3.1390475943568E-05
(PID.TID 0000.0001) %MON pe_b_mean                    =  -3.4578766986418E-09
(PID.TID 0000.0001) %MON ke_max                       =   4.9577821908936E-09
(PID.TID 0000.0001) %MON ke_mean                      =   2.7284798770091E-11
(PID.TID 0000.0001) %MON ke_vol                       =   2.9241705273105E+14
(PID.TID 0000.0001) %MON vort_r_min                   =  -1.3489941528585E-08
(PID.TID 0000.0001) %MON vort_r_max                   =   1.3157786611354E-08
(PID.TID 0000.0001) %MON vort_a_mean                  =  -1.4007437275101E-04
(PID.TID 0000.0001) %MON vort_a_sd                    =   1.7682766756657E-06
(PID.TID 0000.0001) %MON vort_p_mean                  =  -1.5039772191735E-04
(PID.TID 0000.0001) %MON vort_p_sd                    =   8.7080361773706E-05
(PID.TID 0000.0001) %MON surfExpan_theta_mean         =  -2.4876636549122E-13
(PID.TID 0000.0001) %MON surfExpan_salt_mean          =  -1.0250642607087E-13
(PID.TID 0000.0001) // =======================================================
(PID.TID 0000.0001) // End MONITOR dynamic field statistics
(PID.TID 0000.0001) // =======================================================
 cg2d: Sum(rhs),rhsMax =   5.15143483426073E-14  3.60941655746802E-06
(PID.TID 0000.0001)      cg2d_init_res =   1.15657435299859E+00
(PID.TID 0000.0001)      cg2d_iters(min,last) =      -1     214
(PID.TID 0000.0001)      cg2d_last_res =   8.83567061879095E-14
(PID.TID 0000.0001) // =======================================================
(PID.TID 0000.0001) // Begin MONITOR dynamic field statistics
(PID.TID 0000.0001) // =======================================================
(PID.TID 0000.0001) %MON time_tsnumber                =                    10
(PID.TID 0000.0001) %MON time_secondsf                =   1.8000000000000E+04
(PID.TID 0000.0001) %MON dynstat_eta_max              =   1.1058633135170E-05
(PID.TID 0000.0001) %MON dynstat_eta_min              =  -4.4210558000865E-06
(PID.TID 0000.0001) %MON dynstat_eta_mean             =  -8.6510395437419E-22
(PID.TID 0000.0001) %MON dynstat_eta_sd               =   3.8836803718546E-06
(PID.TID 0000.0001) %MON dynstat_eta_del2             =   3.3972745935297E-09
(PID.TID 0000.0001) %MON dynstat_uvel_max             =   1.5266831277197E-05
(PID.TID 0000.0001) %MON dynstat_uvel_min             =  -1.0134287324526E-04
(PID.TID 0000.0001) %MON dynstat_uvel_mean            =  -3.2830375269360E-09
(PID.TID 0000.0001) %MON dynstat_uvel_sd              =   7.0536967294246E-06
(PID.TID 0000.0001) %MON dynstat_uvel_del2            =   1.5130730041297E-08
(PID.TID 0000.0001) %MON dynstat_vvel_max             =   8.6761207554476E-05
(PID.TID 0000.0001) %MON dynstat_vvel_min             =  -1.2970803441576E-05
(PID.TID 0000.0001) %MON dynstat_vvel_mean            =  -9.9088995176025E-08
(PID.TID 0000.0001) %MON dynstat_vvel_sd              =   5.3114022848997E-06
(PID.TID 0000.0001) %MON dynstat_vvel_del2            =   1.0170451517963E-08
(PID.TID 0000.0001) %MON dynstat_wvel_max             =   5.2202194598537E-07
(PID.TID 0000.0001) %MON dynstat_wvel_min             =  -5.0510335911579E-07
(PID.TID 0000.0001) %MON dynstat_wvel_mean            =  -3.4999131669842E-11
(PID.TID 0000.0001) %MON dynstat_wvel_sd              =   1.9418546405916E-08
(PID.TID 0000.0001) %MON dynstat_wvel_del2            =   1.5097850477266E-10
(PID.TID 0000.0001) %MON dynstat_theta_max            =  -1.9000000000000E+00
(PID.TID 0000.0001) %MON dynstat_theta_min            =  -1.9068040671043E+00
(PID.TID 0000.0001) %MON dynstat_theta_mean           =  -1.9001139807749E+00
(PID.TID 0000.0001) %MON dynstat_theta_sd             =   5.3152662888223E-04
(PID.TID 0000.0001) %MON dynstat_theta_del2           =   5.6136571111669E-07
(PID.TID 0000.0001) %MON dynstat_salt_max             =   3.4400000000000E+01
(PID.TID 0000.0001) %MON dynstat_salt_min             =   3.4397223418571E+01
(PID.TID 0000.0001) %MON dynstat_salt_mean            =   3.4399953999643E+01
(PID.TID 0000.0001) %MON dynstat_salt_sd              =   2.1564963331470E-04
(PID.TID 0000.0001) %MON dynstat_salt_del2            =   2.2870590006937E-07
(PID.TID 0000.0001) %MON advcfl_uvel_max              =   3.0153968781031E-05
(PID.TID 0000.0001) %MON advcfl_vvel_max              =   1.4046925954465E-05
(PID.TID 0000.0001) %MON advcfl_wvel_max              =   3.1321316759122E-05
(PID.TID 0000.0001) %MON advcfl_W_hf_max              =   3.7767924443118E-05
(PID.TID 0000.0001) %MON pe_b_mean                    =  -3.8742067654072E-09
(PID.TID 0000.0001) %MON ke_max                       =   7.1108289233842E-09
(PID.TID 0000.0001) %MON ke_mean                      =   3.8314130073977E-11
(PID.TID 0000.0001) %MON ke_vol                       =   2.9241705273105E+14
(PID.TID 0000.0001) %MON vort_r_min                   =  -1.4689480921003E-08
(PID.TID 0000.0001) %MON vort_r_max                   =   1.4293385734537E-08
(PID.TID 0000.0001) %MON vort_a_mean                  =  -1.4007437274557E-04
(PID.TID 0000.0001) %MON vort_a_sd                    =   1.7682765521890E-06
(PID.TID 0000.0001) %MON vort_p_mean                  =  -1.5039772191104E-04
(PID.TID 0000.0001) %MON vort_p_sd                    =   8.7080147129043E-05
(PID.TID 0000.0001) %MON surfExpan_theta_mean         =  -2.1994972078104E-13
(PID.TID 0000.0001) %MON surfExpan_salt_mean          =  -9.0668217791196E-14
(PID.TID 0000.0001) // =======================================================
(PID.TID 0000.0001) // End MONITOR dynamic field statistics
(PID.TID 0000.0001) // =======================================================
 cg2d: Sum(rhs),rhsMax =  -5.32907051820075E-15  4.02799513568572E-06
(PID.TID 0000.0001)      cg2d_init_res =   1.01847134801289E+00
(PID.TID 0000.0001)      cg2d_iters(min,last) =      -1     213
(PID.TID 0000.0001)      cg2d_last_res =   9.53406742131812E-14
(PID.TID 0000.0001) // =======================================================
(PID.TID 0000.0001) // Begin MONITOR dynamic field statistics
(PID.TID 0000.0001) // =======================================================
(PID.TID 0000.0001) %MON time_tsnumber                =                    11
(PID.TID 0000.0001) %MON time_secondsf                =   1.9800000000000E+04
(PID.TID 0000.0001) %MON dynstat_eta_max              =   1.2176255610393E-05
(PID.TID 0000.0001) %MON dynstat_eta_min              =  -5.2983448132358E-06
(PID.TID 0000.0001) %MON dynstat_eta_mean             =  -2.6618583211513E-22
(PID.TID 0000.0001) %MON dynstat_eta_sd               =   4.2330663185223E-06
(PID.TID 0000.0001) %MON dynstat_eta_del2             =   3.6904334644605E-09
(PID.TID 0000.0001) %MON dynstat_uvel_max             =   1.8564844551865E-05
(PID.TID 0000.0001) %MON dynstat_uvel_min             =  -1.2260783303302E-04
(PID.TID 0000.0001) %MON dynstat_uvel_mean            =  -3.5216024553178E-09
(PID.TID 0000.0001) %MON dynstat_uvel_sd              =   8.5557179708218E-06
(PID.TID 0000.0001) %MON dynstat_uvel_del2            =   1.8275417156882E-08
(PID.TID 0000.0001) %MON dynstat_vvel_max             =   9.1489931105535E-05
(PID.TID 0000.0001) %MON dynstat_vvel_min             =  -1.3878352558657E-05
(PID.TID 0000.0001) %MON dynstat_vvel_mean            =  -7.4540353982270E-08
(PID.TID 0000.0001) %MON dynstat_vvel_sd              =   5.5768227445531E-06
(PID.TID 0000.0001) %MON dynstat_vvel_del2            =   1.0697319844056E-08
(PID.TID 0000.0001) %MON dynstat_wvel_max             =   6.1992776024515E-07
(PID.TID 0000.0001) %MON dynstat_wvel_min             =  -5.9679719862700E-07
(PID.TID 0000.0001) %MON dynstat_wvel_mean            =  -2.5305794255948E-11
(PID.TID 0000.0001) %MON dynstat_wvel_sd              =   2.2180529330985E-08
(PID.TID 0000.0001) %MON dynstat_wvel_del2            =   1.6143470124145E-10
(PID.TID 0000.0001) %MON dynstat_theta_max            =  -1.9000000000000E+00
(PID.TID 0000.0001) %MON dynstat_theta_min            =  -1.9074792591259E+00
(PID.TID 0000.0001) %MON dynstat_theta_mean           =  -1.9001253119459E+00
(PID.TID 0000.0001) %MON dynstat_theta_sd             =   5.8425356838522E-04
(PID.TID 0000.0001) %MON dynstat_theta_del2           =   6.1622350639851E-07
(PID.TID 0000.0001) %MON dynstat_salt_max             =   3.4400000000000E+01
(PID.TID 0000.0001) %MON dynstat_salt_min             =   3.4396947898748E+01
(PID.TID 0000.0001) %MON dynstat_salt_mean            =   3.4399949427030E+01
(PID.TID 0000.0001) %MON dynstat_salt_sd              =   2.3704006769002E-04
(PID.TID 0000.0001) %MON dynstat_salt_del2            =   2.5105416072812E-07
(PID.TID 0000.0001) %MON advcfl_uvel_max              =   3.6481231005166E-05
(PID.TID 0000.0001) %MON advcfl_vvel_max              =   1.4812521909767E-05
(PID.TID 0000.0001) %MON advcfl_wvel_max              =   3.7195665614709E-05
(PID.TID 0000.0001) %MON advcfl_W_hf_max              =   4.4120578930256E-05
(PID.TID 0000.0001) %MON pe_b_mean                    =  -4.2103928782903E-09
(PID.TID 0000.0001) %MON ke_max                       =   9.6881418569742E-09
(PID.TID 0000.0001) %MON ke_mean                      =   5.1223610374206E-11
(PID.TID 0000.0001) %MON ke_vol                       =   2.9241705273105E+14
(PID.TID 0000.0001) %MON vort_r_min                   =  -1.5490097882683E-08
(PID.TID 0000.0001) %MON vort_r_max                   =   1.5033372795384E-08
(PID.TID 0000.0001) %MON vort_a_mean                  =  -1.4007437274283E-04
(PID.TID 0000.0001) %MON vort_a_sd                    =   1.7682764138805E-06
(PID.TID 0000.0001) %MON vort_p_mean                  =  -1.5039772190782E-04
(PID.TID 0000.0001) %MON vort_p_sd                    =   8.7079923289572E-05
(PID.TID 0000.0001) %MON surfExpan_theta_mean         =  -1.7227201232784E-13
(PID.TID 0000.0001) %MON surfExpan_salt_mean          =  -7.1062633879463E-14
(PID.TID 0000.0001) // =======================================================
(PID.TID 0000.0001) // End MONITOR dynamic field statistics
(PID.TID 0000.0001) // =======================================================
 cg2d: Sum(rhs),rhsMax =  -3.90798504668055E-14  4.42927690319688E-06
(PID.TID 0000.0001)      cg2d_init_res =   9.07082174256649E-01
(PID.TID 0000.0001)      cg2d_iters(min,last) =      -1     213
(PID.TID 0000.0001)      cg2d_last_res =   8.36437765684428E-14
(PID.TID 0000.0001) // =======================================================
(PID.TID 0000.0001) // Begin MONITOR dynamic field statistics
(PID.TID 0000.0001) // =======================================================
(PID.TID 0000.0001) %MON time_tsnumber                =                    12
(PID.TID 0000.0001) %MON time_secondsf                =   2.1600000000000E+04
(PID.TID 0000.0001) %MON dynstat_eta_max              =   1.3101397693037E-05
(PID.TID 0000.0001) %MON dynstat_eta_min              =  -6.2887059750192E-06
(PID.TID 0000.0001) %MON dynstat_eta_mean             =   3.3273229014392E-22
(PID.TID 0000.0001) %MON dynstat_eta_sd               =   4.5055747129882E-06
(PID.TID 0000.0001) %MON dynstat_eta_del2             =   3.9732233299437E-09
(PID.TID 0000.0001) %MON dynstat_uvel_max             =   2.1917039767810E-05
(PID.TID 0000.0001) %MON dynstat_uvel_min             =  -1.4413569941778E-04
(PID.TID 0000.0001) %MON dynstat_uvel_mean            =  -2.6059760300806E-09
(PID.TID 0000.0001) %MON dynstat_uvel_sd              =   1.0079750252561E-05
(PID.TID 0000.0001) %MON dynstat_uvel_del2            =   2.1461015561456E-08
(PID.TID 0000.0001) %MON dynstat_vvel_max             =   9.3750261994763E-05
(PID.TID 0000.0001) %MON dynstat_vvel_min             =  -1.4449750197647E-05
(PID.TID 0000.0001) %MON dynstat_vvel_mean            =  -4.8348514846421E-08
(PID.TID 0000.0001) %MON dynstat_vvel_sd              =   5.6762630682495E-06
(PID.TID 0000.0001) %MON dynstat_vvel_del2            =   1.0934396042837E-08
(PID.TID 0000.0001) %MON dynstat_wvel_max             =   7.1711613596764E-07
(PID.TID 0000.0001) %MON dynstat_wvel_min             =  -6.8715194911169E-07
(PID.TID 0000.0001) %MON dynstat_wvel_mean            =  -1.5538443212445E-11
(PID.TID 0000.0001) %MON dynstat_wvel_sd              =   2.4854388647181E-08
(PID.TID 0000.0001) %MON dynstat_wvel_del2            =   1.6863932719875E-10
(PID.TID 0000.0001) %MON dynstat_theta_max            =  -1.9000000000000E+00
(PID.TID 0000.0001) %MON dynstat_theta_min            =  -1.9081535232467E+00
(PID.TID 0000.0001) %MON dynstat_theta_mean           =  -1.9001366311575E+00
(PID.TID 0000.0001) %MON dynstat_theta_sd             =   6.3690456794403E-04
(PID.TID 0000.0001) %MON dynstat_theta_del2           =   6.7085588497522E-07
(PID.TID 0000.0001) %MON dynstat_salt_max             =   3.4400000000000E+01
(PID.TID 0000.0001) %MON dynstat_salt_min             =   3.4396672759408E+01
(PID.TID 0000.0001) %MON dynstat_salt_mean            =   3.4399944859320E+01
(PID.TID 0000.0001) %MON dynstat_salt_sd              =   2.5839937061762E-04
(PID.TID 0000.0001) %MON dynstat_salt_del2            =   2.7331035118277E-07
(PID.TID 0000.0001) %MON advcfl_uvel_max              =   4.2886719522521E-05
(PID.TID 0000.0001) %MON advcfl_vvel_max              =   1.5178476943457E-05
(PID.TID 0000.0001) %MON advcfl_wvel_max              =   4.3026968158058E-05
(PID.TID 0000.0001) %MON advcfl_W_hf_max              =   5.0271958875291E-05
(PID.TID 0000.0001) %MON pe_b_mean                    =  -4.4626109024168E-09
(PID.TID 0000.0001) %MON ke_max                       =   1.2631913709242E-08
(PID.TID 0000.0001) %MON ke_mean                      =   6.5685666728415E-11
(PID.TID 0000.0001) %MON ke_vol                       =   2.9241705273105E+14
(PID.TID 0000.0001) %MON vort_r_min                   =  -1.5872792965063E-08
(PID.TID 0000.0001) %MON vort_r_max                   =   1.5361521095329E-08
(PID.TID 0000.0001) %MON vort_a_mean                  =  -1.4007437274324E-04
(PID.TID 0000.0001) %MON vort_a_sd                    =   1.7682762634835E-06
(PID.TID 0000.0001) %MON vort_p_mean                  =  -1.5039772190803E-04
(PID.TID 0000.0001) %MON vort_p_sd                    =   8.7079696997674E-05
(PID.TID 0000.0001) %MON surfExpan_theta_mean         =  -1.1174231680459E-13
(PID.TID 0000.0001) %MON surfExpan_salt_mean          =  -4.6162716371534E-14
(PID.TID 0000.0001) // =======================================================
(PID.TID 0000.0001) // End MONITOR dynamic field statistics
(PID.TID 0000.0001) // =======================================================
 cg2d: Sum(rhs),rhsMax =  -6.57252030578093E-14  4.81195186589923E-06
(PID.TID 0000.0001)      cg2d_init_res =   8.15509492634266E-01
(PID.TID 0000.0001)      cg2d_iters(min,last) =      -1     213
(PID.TID 0000.0001)      cg2d_last_res =   7.82105791906310E-14
(PID.TID 0000.0001) // =======================================================
(PID.TID 0000.0001) // Begin MONITOR dynamic field statistics
(PID.TID 0000.0001) // =======================================================
(PID.TID 0000.0001) %MON time_tsnumber                =                    13
(PID.TID 0000.0001) %MON time_secondsf                =   2.3400000000000E+04
(PID.TID 0000.0001) %MON dynstat_eta_max              =   1.3868534454388E-05
(PID.TID 0000.0001) %MON dynstat_eta_min              =  -7.3586550644121E-06
(PID.TID 0000.0001) %MON dynstat_eta_mean             =   1.3309291605757E-22
(PID.TID 0000.0001) %MON dynstat_eta_sd               =   4.7075007208375E-06
(PID.TID 0000.0001) %MON dynstat_eta_del2             =   4.2459372494444E-09
(PID.TID 0000.0001) %MON dynstat_uvel_max             =   2.5224038543400E-05
(PID.TID 0000.0001) %MON dynstat_uvel_min             =  -1.6531018990325E-04
(PID.TID 0000.0001) %MON dynstat_uvel_mean            =  -6.1240057380033E-10
(PID.TID 0000.0001) %MON dynstat_uvel_sd              =   1.1580916078199E-05
(PID.TID 0000.0001) %MON dynstat_uvel_del2            =   2.4602424398106E-08
(PID.TID 0000.0001) %MON dynstat_vvel_max             =   9.3599436479833E-05
(PID.TID 0000.0001) %MON dynstat_vvel_min             =  -1.4681278009235E-05
(PID.TID 0000.0001) %MON dynstat_vvel_mean            =  -2.3731792789739E-08
(PID.TID 0000.0001) %MON dynstat_vvel_sd              =   5.6118941503849E-06
(PID.TID 0000.0001) %MON dynstat_vvel_del2            =   1.0890638443785E-08
(PID.TID 0000.0001) %MON dynstat_wvel_max             =   8.1107086939636E-07
(PID.TID 0000.0001) %MON dynstat_wvel_min             =  -7.7381657645232E-07
(PID.TID 0000.0001) %MON dynstat_wvel_mean            =  -6.7004762258466E-12
(PID.TID 0000.0001) %MON dynstat_wvel_sd              =   2.7402063625441E-08
(PID.TID 0000.0001) %MON dynstat_wvel_del2            =   1.7282919791649E-10
(PID.TID 0000.0001) %MON dynstat_theta_max            =  -1.9000000000000E+00
(PID.TID 0000.0001) %MON dynstat_theta_min            =  -1.9088268622157E+00
(PID.TID 0000.0001) %MON dynstat_theta_mean           =  -1.9001479384276E+00
(PID.TID 0000.0001) %MON dynstat_theta_sd             =   6.8947977991644E-04
(PID.TID 0000.0001) %MON dynstat_theta_del2           =   7.2526390864302E-07
(PID.TID 0000.0001) %MON dynstat_salt_max             =   3.4400000000000E+01
(PID.TID 0000.0001) %MON dynstat_salt_min             =   3.4396397999423E+01
(PID.TID 0000.0001) %MON dynstat_salt_mean            =   3.4399940296503E+01
(PID.TID 0000.0001) %MON dynstat_salt_sd              =   2.7972760474659E-04
(PID.TID 0000.0001) %MON dynstat_salt_del2            =   2.9547490601265E-07
(PID.TID 0000.0001) %MON advcfl_uvel_max              =   4.9187063144199E-05
(PID.TID 0000.0001) %MON advcfl_vvel_max              =   1.5154057794623E-05
(PID.TID 0000.0001) %MON advcfl_wvel_max              =   4.8664252163782E-05
(PID.TID 0000.0001) %MON advcfl_W_hf_max              =   5.6073129746946E-05
(PID.TID 0000.0001) %MON pe_b_mean                    =  -4.6365835383244E-09
(PID.TID 0000.0001) %MON ke_max                       =   1.5853204226593E-08
(PID.TID 0000.0001) %MON ke_mean                      =   8.1252084691064E-11
(PID.TID 0000.0001) %MON ke_vol                       =   2.9241705273105E+14
(PID.TID 0000.0001) %MON vort_r_min                   =  -1.5847256799922E-08
(PID.TID 0000.0001) %MON vort_r_max                   =   1.5289791532897E-08
(PID.TID 0000.0001) %MON vort_a_mean                  =  -1.4007437274667E-04
(PID.TID 0000.0001) %MON vort_a_sd                    =   1.7682761059087E-06
(PID.TID 0000.0001) %MON vort_p_mean                  =  -1.5039772191152E-04
(PID.TID 0000.0001) %MON vort_p_sd                    =   8.7079474781933E-05
(PID.TID 0000.0001) %MON surfExpan_theta_mean         =  -4.6685602513809E-14
(PID.TID 0000.0001) %MON surfExpan_salt_mean          =  -1.9395390977312E-14
(PID.TID 0000.0001) // =======================================================
(PID.TID 0000.0001) // End MONITOR dynamic field statistics
(PID.TID 0000.0001) // =======================================================
 cg2d: Sum(rhs),rhsMax =   4.08562073062058E-14  5.17698880178554E-06
(PID.TID 0000.0001)      cg2d_init_res =   7.39126093796058E-01
(PID.TID 0000.0001)      cg2d_iters(min,last) =      -1     212
(PID.TID 0000.0001)      cg2d_last_res =   9.92496114087287E-14
(PID.TID 0000.0001) // =======================================================
(PID.TID 0000.0001) // Begin MONITOR dynamic field statistics
(PID.TID 0000.0001) // =======================================================
(PID.TID 0000.0001) %MON time_tsnumber                =                    14
(PID.TID 0000.0001) %MON time_secondsf                =   2.5200000000000E+04
(PID.TID 0000.0001) %MON dynstat_eta_max              =   1.4436289218162E-05
(PID.TID 0000.0001) %MON dynstat_eta_min              =  -8.4653604752520E-06
(PID.TID 0000.0001) %MON dynstat_eta_mean             =   5.3237166423027E-22
(PID.TID 0000.0001) %MON dynstat_eta_sd               =   4.8533242567107E-06
(PID.TID 0000.0001) %MON dynstat_eta_del2             =   4.5088994267988E-09
(PID.TID 0000.0001) %MON dynstat_uvel_max             =   2.8394302343522E-05
(PID.TID 0000.0001) %MON dynstat_uvel_min             =  -1.8557249979512E-04
(PID.TID 0000.0001) %MON dynstat_uvel_mean            =   2.2418394907352E-09
(PID.TID 0000.0001) %MON dynstat_uvel_sd              =   1.3017974420405E-05
(PID.TID 0000.0001) %MON dynstat_uvel_del2            =   2.7623866360296E-08
(PID.TID 0000.0001) %MON dynstat_vvel_max             =   9.1249166460642E-05
(PID.TID 0000.0001) %MON dynstat_vvel_min             =  -1.4590397923251E-05
(PID.TID 0000.0001) %MON dynstat_vvel_mean            =  -3.4158045991746E-09
(PID.TID 0000.0001) %MON dynstat_vvel_sd              =   5.3966310160181E-06
(PID.TID 0000.0001) %MON dynstat_vvel_del2            =   1.0592830062499E-08
(PID.TID 0000.0001) %MON dynstat_wvel_max             =   8.9966797203918E-07
(PID.TID 0000.0001) %MON dynstat_wvel_min             =  -8.5483220282971E-07
(PID.TID 0000.0001) %MON dynstat_wvel_mean            =   3.3159948671466E-13
(PID.TID 0000.0001) %MON dynstat_wvel_sd              =   2.9792840929181E-08
(PID.TID 0000.0001) %MON dynstat_wvel_del2            =   1.7447516594181E-10
(PID.TID 0000.0001) %MON dynstat_theta_max            =  -1.9000000000000E+00
(PID.TID 0000.0001) %MON dynstat_theta_min            =  -1.9094992787316E+00
(PID.TID 0000.0001) %MON dynstat_theta_mean           =  -1.9001592337742E+00
(PID.TID 0000.0001) %MON dynstat_theta_sd             =   7.4197935618839E-04
(PID.TID 0000.0001) %MON dynstat_theta_del2           =   7.7944862480448E-07
(PID.TID 0000.0001) %MON dynstat_salt_max             =   3.4400000000000E+01
(PID.TID 0000.0001) %MON dynstat_salt_min             =   3.4396123617685E+01
(PID.TID 0000.0001) %MON dynstat_salt_mean            =   3.4399935738574E+01
(PID.TID 0000.0001) %MON dynstat_salt_sd              =   3.0102483253161E-04
(PID.TID 0000.0001) %MON dynstat_salt_del2            =   3.1754825391573E-07
(PID.TID 0000.0001) %MON advcfl_uvel_max              =   5.5215992859190E-05
(PID.TID 0000.0001) %MON advcfl_vvel_max              =   1.4773541318849E-05
(PID.TID 0000.0001) %MON advcfl_wvel_max              =   5.3980078322351E-05
(PID.TID 0000.0001) %MON advcfl_W_hf_max              =   6.1410392082726E-05
(PID.TID 0000.0001) %MON pe_b_mean                    =  -4.7462749065186E-09
(PID.TID 0000.0001) %MON ke_max                       =   1.9240817463627E-08
(PID.TID 0000.0001) %MON ke_mean                      =   9.7395188574651E-11
(PID.TID 0000.0001) %MON ke_vol                       =   2.9241705273105E+14
(PID.TID 0000.0001) %MON vort_r_min                   =  -1.5449334184744E-08
(PID.TID 0000.0001) %MON vort_r_max                   =   1.4855610644954E-08
(PID.TID 0000.0001) %MON vort_a_mean                  =  -1.4007437275252E-04
(PID.TID 0000.0001) %MON vort_a_sd                    =   1.7682759472551E-06
(PID.TID 0000.0001) %MON vort_p_mean                  =  -1.5039772191769E-04
(PID.TID 0000.0001) %MON vort_p_sd                    =   8.7079262547488E-05
(PID.TID 0000.0001) %MON surfExpan_theta_mean         =   1.3157343651712E-14
(PID.TID 0000.0001) %MON surfExpan_salt_mean          =   5.2295285495377E-15
(PID.TID 0000.0001) // =======================================================
(PID.TID 0000.0001) // End MONITOR dynamic field statistics
(PID.TID 0000.0001) // =======================================================
 cg2d: Sum(rhs),rhsMax =   3.55271367880050E-14  5.52734886376192E-06
(PID.TID 0000.0001)      cg2d_init_res =   6.74784206302018E-01
(PID.TID 0000.0001)      cg2d_iters(min,last) =      -1     212
(PID.TID 0000.0001)      cg2d_last_res =   9.10280969113182E-14
(PID.TID 0000.0001) // =======================================================
(PID.TID 0000.0001) // Begin MONITOR dynamic field statistics
(PID.TID 0000.0001) // =======================================================
(PID.TID 0000.0001) %MON time_tsnumber                =                    15
(PID.TID 0000.0001) %MON time_secondsf                =   2.7000000000000E+04
(PID.TID 0000.0001) %MON dynstat_eta_max              =   1.4833125845922E-05
(PID.TID 0000.0001) %MON dynstat_eta_min              =  -9.5579943937820E-06
(PID.TID 0000.0001) %MON dynstat_eta_mean             =   0.0000000000000E+00
(PID.TID 0000.0001) %MON dynstat_eta_sd               =   4.9627353603405E-06
(PID.TID 0000.0001) %MON dynstat_eta_del2             =   4.7624687810294E-09
(PID.TID 0000.0001) %MON dynstat_uvel_max             =   3.1349672024219E-05
(PID.TID 0000.0001) %MON dynstat_uvel_min             =  -2.0445465313261E-04
(PID.TID 0000.0001) %MON dynstat_uvel_mean            =   5.6613029248832E-09
(PID.TID 0000.0001) %MON dynstat_uvel_sd              =   1.4355846407941E-05
(PID.TID 0000.0001) %MON dynstat_uvel_del2            =   3.0463118911522E-08
(PID.TID 0000.0001) %MON dynstat_vvel_max             =   8.7041683466056E-05
(PID.TID 0000.0001) %MON dynstat_vvel_min             =  -1.4260613357126E-05
(PID.TID 0000.0001) %MON dynstat_vvel_mean            =   1.0627683802900E-08
(PID.TID 0000.0001) %MON dynstat_vvel_sd              =   5.0528041473288E-06
(PID.TID 0000.0001) %MON dynstat_vvel_del2            =   1.0082631893989E-08
(PID.TID 0000.0001) %MON dynstat_wvel_max             =   9.8128309474734E-07
(PID.TID 0000.0001) %MON dynstat_wvel_min             =  -9.2873093403861E-07
(PID.TID 0000.0001) %MON dynstat_wvel_mean            =   4.8939246835146E-12
(PID.TID 0000.0001) %MON dynstat_wvel_sd              =   3.2003374773651E-08
(PID.TID 0000.0001) %MON dynstat_wvel_del2            =   1.7422328862187E-10
(PID.TID 0000.0001) %MON dynstat_theta_max            =  -1.9000000000000E+00
(PID.TID 0000.0001) %MON dynstat_theta_min            =  -1.9101707753864E+00
(PID.TID 0000.0001) %MON dynstat_theta_mean           =  -1.9001705172150E+00
(PID.TID 0000.0001) %MON dynstat_theta_sd             =   7.9440344818655E-04
(PID.TID 0000.0001) %MON dynstat_theta_del2           =   8.3341107033468E-07
(PID.TID 0000.0001) %MON dynstat_salt_max             =   3.4400000000000E+01
(PID.TID 0000.0001) %MON dynstat_salt_min             =   3.4395849613129E+01
(PID.TID 0000.0001) %MON dynstat_salt_mean            =   3.4399931185525E+01
(PID.TID 0000.0001) %MON dynstat_salt_sd              =   3.2229111623813E-04
(PID.TID 0000.0001) %MON dynstat_salt_del2            =   3.3953081928492E-07
(PID.TID 0000.0001) %MON advcfl_uvel_max              =   6.0834265205577E-05
(PID.TID 0000.0001) %MON advcfl_vvel_max              =   1.4092335930571E-05
(PID.TID 0000.0001) %MON advcfl_wvel_max              =   5.8876985684840E-05
(PID.TID 0000.0001) %MON advcfl_W_hf_max              =   6.6209902973234E-05
(PID.TID 0000.0001) %MON pe_b_mean                    =  -4.8117848652727E-09
(PID.TID 0000.0001) %MON ke_max                       =   2.2673007357462E-08
(PID.TID 0000.0001) %MON ke_mean                      =   1.1355761034516E-10
(PID.TID 0000.0001) %MON ke_vol                       =   2.9241705273105E+14
(PID.TID 0000.0001) %MON vort_r_min                   =  -1.4736968106441E-08
(PID.TID 0000.0001) %MON vort_r_max                   =   1.4117675764314E-08
(PID.TID 0000.0001) %MON vort_a_mean                  =  -1.4007437275988E-04
(PID.TID 0000.0001) %MON vort_a_sd                    =   1.7682757940747E-06
(PID.TID 0000.0001) %MON vort_p_mean                  =  -1.5039772192559E-04
(PID.TID 0000.0001) %MON vort_p_sd                    =   8.7079065233905E-05
(PID.TID 0000.0001) %MON surfExpan_theta_mean         =   5.7864278253919E-14
(PID.TID 0000.0001) %MON surfExpan_salt_mean          =   2.3627692715091E-14
(PID.TID 0000.0001) // =======================================================
(PID.TID 0000.0001) // End MONITOR dynamic field statistics
(PID.TID 0000.0001) // =======================================================
 cg2d: Sum(rhs),rhsMax =  -2.48689957516035E-14  5.86768606096380E-06
(PID.TID 0000.0001)      cg2d_init_res =   6.20275146127001E-01
(PID.TID 0000.0001)      cg2d_iters(min,last) =      -1     212
(PID.TID 0000.0001)      cg2d_last_res =   8.25917011570888E-14
(PID.TID 0000.0001) // =======================================================
(PID.TID 0000.0001) // Begin MONITOR dynamic field statistics
(PID.TID 0000.0001) // =======================================================
(PID.TID 0000.0001) %MON time_tsnumber                =                    16
(PID.TID 0000.0001) %MON time_secondsf                =   2.8800000000000E+04
(PID.TID 0000.0001) %MON dynstat_eta_max              =   1.5099772371247E-05
(PID.TID 0000.0001) %MON dynstat_eta_min              =  -1.0582747120029E-05
(PID.TID 0000.0001) %MON dynstat_eta_mean             =  -2.3291260310074E-21
(PID.TID 0000.0001) %MON dynstat_eta_sd               =   5.0572823003203E-06
(PID.TID 0000.0001) %MON dynstat_eta_del2             =   5.0070371794011E-09
(PID.TID 0000.0001) %MON dynstat_uvel_max             =   3.4029719854428E-05
(PID.TID 0000.0001) %MON dynstat_uvel_min             =  -2.2160531516759E-04
(PID.TID 0000.0001) %MON dynstat_uvel_mean            =   9.3229906487451E-09
(PID.TID 0000.0001) %MON dynstat_uvel_sd              =   1.5567613769155E-05
(PID.TID 0000.0001) %MON dynstat_uvel_del2            =   3.3074539494995E-08
(PID.TID 0000.0001) %MON dynstat_vvel_max             =   8.1418908777657E-05
(PID.TID 0000.0001) %MON dynstat_vvel_min             =  -1.3712249402848E-05
(PID.TID 0000.0001) %MON dynstat_vvel_mean            =   1.7312399479492E-08
(PID.TID 0000.0001) %MON dynstat_vvel_sd              =   4.6102886428980E-06
(PID.TID 0000.0001) %MON dynstat_vvel_del2            =   9.4128771190801E-09
(PID.TID 0000.0001) %MON dynstat_wvel_max             =   1.0548591471988E-06
(PID.TID 0000.0001) %MON dynstat_wvel_min             =  -9.9459695112395E-07
(PID.TID 0000.0001) %MON dynstat_wvel_mean            =   6.6012028281377E-12
(PID.TID 0000.0001) %MON dynstat_wvel_sd              =   3.4017851441037E-08
(PID.TID 0000.0001) %MON dynstat_wvel_del2            =   1.7281658452263E-10
(PID.TID 0000.0001) %MON dynstat_theta_max            =  -1.9000000000000E+00
(PID.TID 0000.0001) %MON dynstat_theta_min            =  -1.9108413546169E+00
(PID.TID 0000.0001) %MON dynstat_theta_mean           =  -1.9001817887682E+00
(PID.TID 0000.0001) %MON dynstat_theta_sd             =   8.4675220689480E-04
(PID.TID 0000.0001) %MON dynstat_theta_del2           =   8.8715227593509E-07
(PID.TID 0000.0001) %MON dynstat_salt_max             =   3.4400000000000E+01
(PID.TID 0000.0001) %MON dynstat_salt_min             =   3.4395575984755E+01
(PID.TID 0000.0001) %MON dynstat_salt_mean            =   3.4399926637347E+01
(PID.TID 0000.0001) %MON dynstat_salt_sd              =   3.4352651794903E-04
(PID.TID 0000.0001) %MON dynstat_salt_del2            =   3.6142302398303E-07
(PID.TID 0000.0001) %MON advcfl_uvel_max              =   6.5937342620063E-05
(PID.TID 0000.0001) %MON advcfl_vvel_max              =   1.3181990144328E-05
(PID.TID 0000.0001) %MON advcfl_wvel_max              =   6.3291548831928E-05
(PID.TID 0000.0001) %MON advcfl_W_hf_max              =   7.0439315834901E-05
(PID.TID 0000.0001) %MON pe_b_mean                    =  -4.8567547441515E-09
(PID.TID 0000.0001) %MON ke_max                       =   2.6030870220363E-08
(PID.TID 0000.0001) %MON ke_mean                      =   1.2920496891889E-10
(PID.TID 0000.0001) %MON ke_vol                       =   2.9241705273105E+14
(PID.TID 0000.0001) %MON vort_r_min                   =  -1.3784979956017E-08
(PID.TID 0000.0001) %MON vort_r_max                   =   1.3150661340976E-08
(PID.TID 0000.0001) %MON vort_a_mean                  =  -1.4007437276776E-04
(PID.TID 0000.0001) %MON vort_a_sd                    =   1.7682756527293E-06
(PID.TID 0000.0001) %MON vort_p_mean                  =  -1.5039772193408E-04
(PID.TID 0000.0001) %MON vort_p_sd                    =   8.7078886556183E-05
(PID.TID 0000.0001) %MON surfExpan_theta_mean         =   7.8700235512936E-14
(PID.TID 0000.0001) %MON surfExpan_salt_mean          =   3.2203620244596E-14
(PID.TID 0000.0001) // =======================================================
(PID.TID 0000.0001) // End MONITOR dynamic field statistics
(PID.TID 0000.0001) // =======================================================
 cg2d: Sum(rhs),rhsMax =  -2.30926389122033E-14  6.20400579485297E-06
(PID.TID 0000.0001)      cg2d_init_res =   5.73935572472276E-01
(PID.TID 0000.0001)      cg2d_iters(min,last) =      -1     212
(PID.TID 0000.0001)      cg2d_last_res =   7.12622431796762E-14
(PID.TID 0000.0001) // =======================================================
(PID.TID 0000.0001) // Begin MONITOR dynamic field statistics
(PID.TID 0000.0001) // =======================================================
(PID.TID 0000.0001) %MON time_tsnumber                =                    17
(PID.TID 0000.0001) %MON time_secondsf                =   3.0600000000000E+04
(PID.TID 0000.0001) %MON dynstat_eta_max              =   1.5285190458806E-05
(PID.TID 0000.0001) %MON dynstat_eta_min              =  -1.1489590367906E-05
(PID.TID 0000.0001) %MON dynstat_eta_mean             =  -1.1978362445181E-21
(PID.TID 0000.0001) %MON dynstat_eta_sd               =   5.1573542200098E-06
(PID.TID 0000.0001) %MON dynstat_eta_del2             =   5.2430247348312E-09
(PID.TID 0000.0001) %MON dynstat_uvel_max             =   3.6394723905132E-05
(PID.TID 0000.0001) %MON dynstat_uvel_min             =  -2.3680687353210E-04
(PID.TID 0000.0001) %MON dynstat_uvel_mean            =   1.2912957768875E-08
(PID.TID 0000.0001) %MON dynstat_uvel_sd              =   1.6635884509249E-05
(PID.TID 0000.0001) %MON dynstat_uvel_del2            =   3.5430776923273E-08
(PID.TID 0000.0001) %MON dynstat_vvel_max             =   7.4887149984827E-05
(PID.TID 0000.0001) %MON dynstat_vvel_min             =  -1.3017606300499E-05
(PID.TID 0000.0001) %MON dynstat_vvel_mean            =   1.6444344368786E-08
(PID.TID 0000.0001) %MON dynstat_vvel_sd              =   4.1042378679834E-06
(PID.TID 0000.0001) %MON dynstat_vvel_del2            =   8.6433721267607E-09
(PID.TID 0000.0001) %MON dynstat_wvel_max             =   1.1199331023674E-06
(PID.TID 0000.0001) %MON dynstat_wvel_min             =  -1.0652964752814E-06
(PID.TID 0000.0001) %MON dynstat_wvel_mean            =   5.3788039232830E-12
(PID.TID 0000.0001) %MON dynstat_wvel_sd              =   3.5828361855360E-08
(PID.TID 0000.0001) %MON dynstat_wvel_del2            =   1.7100261001232E-10
(PID.TID 0000.0001) %MON dynstat_theta_max            =  -1.9000000000000E+00
(PID.TID 0000.0001) %MON dynstat_theta_min            =  -1.9115110186692E+00
(PID.TID 0000.0001) %MON dynstat_theta_mean           =  -1.9001930484513E+00
(PID.TID 0000.0001) %MON dynstat_theta_sd             =   8.9902578287292E-04
(PID.TID 0000.0001) %MON dynstat_theta_del2           =   9.4067327059081E-07
(PID.TID 0000.0001) %MON dynstat_salt_max             =   3.4400000000000E+01
(PID.TID 0000.0001) %MON dynstat_salt_min             =   3.4395302731638E+01
(PID.TID 0000.0001) %MON dynstat_salt_mean            =   3.4399922094035E+01
(PID.TID 0000.0001) %MON dynstat_salt_sd              =   3.6473109957253E-04
(PID.TID 0000.0001) %MON dynstat_salt_del2            =   3.8322528915980E-07
(PID.TID 0000.0001) %MON advcfl_uvel_max              =   7.0460475837699E-05
(PID.TID 0000.0001) %MON advcfl_vvel_max              =   1.2124476830469E-05
(PID.TID 0000.0001) %MON advcfl_wvel_max              =   6.7195986142043E-05
(PID.TID 0000.0001) %MON advcfl_W_hf_max              =   7.4106617572433E-05
(PID.TID 0000.0001) %MON pe_b_mean                    =  -4.9056299582953E-09
(PID.TID 0000.0001) %MON ke_max                       =   2.9210917589849E-08
(PID.TID 0000.0001) %MON ke_mean                      =   1.4387591057055E-10
(PID.TID 0000.0001) %MON ke_vol                       =   2.9241705273105E+14
(PID.TID 0000.0001) %MON vort_r_min                   =  -1.2679092326368E-08
(PID.TID 0000.0001) %MON vort_r_max                   =   1.2039240740429E-08
(PID.TID 0000.0001) %MON vort_a_mean                  =  -1.4007437277512E-04
(PID.TID 0000.0001) %MON vort_a_sd                    =   1.7682755286201E-06
(PID.TID 0000.0001) %MON vort_p_mean                  =  -1.5039772194203E-04
(PID.TID 0000.0001) %MON vort_p_sd                    =   8.7078728841039E-05
(PID.TID 0000.0001) %MON surfExpan_theta_mean         =   6.9373349353558E-14
(PID.TID 0000.0001) %MON surfExpan_salt_mean          =   2.8367440924149E-14
(PID.TID 0000.0001) // =======================================================
(PID.TID 0000.0001) // End MONITOR dynamic field statistics
(PID.TID 0000.0001) // =======================================================
 cg2d: Sum(rhs),rhsMax =   7.10542735760100E-15  6.54323973733718E-06
(PID.TID 0000.0001)      cg2d_init_res =   5.34375375193468E-01
(PID.TID 0000.0001)      cg2d_iters(min,last) =      -1     211
(PID.TID 0000.0001)      cg2d_last_res =   9.53379677281087E-14
(PID.TID 0000.0001) // =======================================================
(PID.TID 0000.0001) // Begin MONITOR dynamic field statistics
(PID.TID 0000.0001) // =======================================================
(PID.TID 0000.0001) %MON time_tsnumber                =                    18
(PID.TID 0000.0001) %MON time_secondsf                =   3.2400000000000E+04
(PID.TID 0000.0001) %MON dynstat_eta_max              =   1.5442236488723E-05
(PID.TID 0000.0001) %MON dynstat_eta_min              =  -1.2238812917571E-05
(PID.TID 0000.0001) %MON dynstat_eta_mean             =   2.6618583211513E-22
(PID.TID 0000.0001) %MON dynstat_eta_sd               =   5.2800984191348E-06
(PID.TID 0000.0001) %MON dynstat_eta_del2             =   5.4708732166405E-09
(PID.TID 0000.0001) %MON dynstat_uvel_max             =   3.8427152279387E-05
(PID.TID 0000.0001) %MON dynstat_uvel_min             =  -2.4997946938165E-04
(PID.TID 0000.0001) %MON dynstat_uvel_mean            =   1.6152522926895E-08
(PID.TID 0000.0001) %MON dynstat_uvel_sd              =   1.7553466850279E-05
(PID.TID 0000.0001) %MON dynstat_uvel_del2            =   3.7523150964131E-08
(PID.TID 0000.0001) %MON dynstat_vvel_max             =   6.7979867396115E-05
(PID.TID 0000.0001) %MON dynstat_vvel_min             =  -1.2226505411529E-05
(PID.TID 0000.0001) %MON dynstat_vvel_mean            =   8.6250020424261E-09
(PID.TID 0000.0001) %MON dynstat_vvel_sd              =   3.5725747150233E-06
(PID.TID 0000.0001) %MON dynstat_vvel_del2            =   7.8364564668493E-09
(PID.TID 0000.0001) %MON dynstat_wvel_max             =   1.1803172670864E-06
(PID.TID 0000.0001) %MON dynstat_wvel_min             =  -1.1314970357780E-06
(PID.TID 0000.0001) %MON dynstat_wvel_mean            =   1.4550214401408E-12
(PID.TID 0000.0001) %MON dynstat_wvel_sd              =   3.7435450203798E-08
(PID.TID 0000.0001) %MON dynstat_wvel_del2            =   1.6943883729644E-10
(PID.TID 0000.0001) %MON dynstat_theta_max            =  -1.9000000000000E+00
(PID.TID 0000.0001) %MON dynstat_theta_min            =  -1.9121797695783E+00
(PID.TID 0000.0001) %MON dynstat_theta_mean           =  -1.9002042962823E+00
(PID.TID 0000.0001) %MON dynstat_theta_sd             =   9.5122432627380E-04
(PID.TID 0000.0001) %MON dynstat_theta_del2           =   9.9397508574130E-07
(PID.TID 0000.0001) %MON dynstat_salt_max             =   3.4400000000000E+01
(PID.TID 0000.0001) %MON dynstat_salt_min             =   3.4395029852941E+01
(PID.TID 0000.0001) %MON dynstat_salt_mean            =   3.4399917555580E+01
(PID.TID 0000.0001) %MON dynstat_salt_sd              =   3.8590492284912E-04
(PID.TID 0000.0001) %MON dynstat_salt_del2            =   4.0493803695189E-07
(PID.TID 0000.0001) %MON advcfl_uvel_max              =   7.4379903334602E-05
(PID.TID 0000.0001) %MON advcfl_vvel_max              =   1.1006164974225E-05
(PID.TID 0000.0001) %MON advcfl_wvel_max              =   7.0819036025184E-05
(PID.TID 0000.0001) %MON advcfl_W_hf_max              =   7.7256451858217E-05
(PID.TID 0000.0001) %MON pe_b_mean                    =  -4.9811063510751E-09
(PID.TID 0000.0001) %MON ke_max                       =   3.2135610291351E-08
(PID.TID 0000.0001) %MON ke_mean                      =   1.5722477130346E-10
(PID.TID 0000.0001) %MON ke_vol                       =   2.9241705273105E+14
(PID.TID 0000.0001) %MON vort_r_min                   =  -1.1509625018768E-08
(PID.TID 0000.0001) %MON vort_r_max                   =   1.2106960356397E-08
(PID.TID 0000.0001) %MON vort_a_mean                  =  -1.4007437278107E-04
(PID.TID 0000.0001) %MON vort_a_sd                    =   1.7682754258206E-06
(PID.TID 0000.0001) %MON vort_p_mean                  =  -1.5039772194847E-04
(PID.TID 0000.0001) %MON vort_p_sd                    =   8.7078592962369E-05
(PID.TID 0000.0001) %MON surfExpan_theta_mean         =   2.6949412258757E-14
(PID.TID 0000.0001) %MON surfExpan_salt_mean          =   1.0911107982217E-14
(PID.TID 0000.0001) // =======================================================
(PID.TID 0000.0001) // End MONITOR dynamic field statistics
(PID.TID 0000.0001) // =======================================================
 cg2d: Sum(rhs),rhsMax =  -1.59872115546023E-14  6.89271799912962E-06
(PID.TID 0000.0001)      cg2d_init_res =   5.00338383832826E-01
(PID.TID 0000.0001)      cg2d_iters(min,last) =      -1     211
(PID.TID 0000.0001)      cg2d_last_res =   8.93551556388519E-14
(PID.TID 0000.0001) // =======================================================
(PID.TID 0000.0001) // Begin MONITOR dynamic field statistics
(PID.TID 0000.0001) // =======================================================
(PID.TID 0000.0001) %MON time_tsnumber                =                    19
(PID.TID 0000.0001) %MON time_secondsf                =   3.4200000000000E+04
(PID.TID 0000.0001) %MON dynstat_eta_max              =   1.5623181223057E-05
(PID.TID 0000.0001) %MON dynstat_eta_min              =  -1.2805930642842E-05
(PID.TID 0000.0001) %MON dynstat_eta_mean             =   2.3956724890362E-21
(PID.TID 0000.0001) %MON dynstat_eta_sd               =   5.4385172559273E-06
(PID.TID 0000.0001) %MON dynstat_eta_del2             =   5.6910391029278E-09
(PID.TID 0000.0001) %MON dynstat_uvel_max             =   4.0131635353296E-05
(PID.TID 0000.0001) %MON dynstat_uvel_min             =  -2.6118070132183E-04
(PID.TID 0000.0001) %MON dynstat_uvel_mean            =   1.8817385623149E-08
(PID.TID 0000.0001) %MON dynstat_uvel_sd              =   1.8323340505055E-05
(PID.TID 0000.0001) %MON dynstat_uvel_del2            =   3.9360768817921E-08
(PID.TID 0000.0001) %MON dynstat_vvel_max             =   6.1221031689439E-05
(PID.TID 0000.0001) %MON dynstat_vvel_min             =  -1.1404119244543E-05
(PID.TID 0000.0001) %MON dynstat_vvel_mean            =  -4.9177632053342E-09
(PID.TID 0000.0001) %MON dynstat_vvel_sd              =   3.0533687012378E-06
(PID.TID 0000.0001) %MON dynstat_vvel_del2            =   7.0525392294369E-09
(PID.TID 0000.0001) %MON dynstat_wvel_max             =   1.2352068275109E-06
(PID.TID 0000.0001) %MON dynstat_wvel_min             =  -1.1899322542594E-06
(PID.TID 0000.0001) %MON dynstat_wvel_mean            =  -4.6842495533212E-12
(PID.TID 0000.0001) %MON dynstat_wvel_sd              =   3.8848718818795E-08
(PID.TID 0000.0001) %MON dynstat_wvel_del2            =   1.6861564271937E-10
(PID.TID 0000.0001) %MON dynstat_theta_max            =  -1.9000000000000E+00
(PID.TID 0000.0001) %MON dynstat_theta_min            =  -1.9128476091654E+00
(PID.TID 0000.0001) %MON dynstat_theta_mean           =  -1.9002155322790E+00
(PID.TID 0000.0001) %MON dynstat_theta_sd             =   1.0033479868568E-03
(PID.TID 0000.0001) %MON dynstat_theta_del2           =   1.0470587588022E-06
(PID.TID 0000.0001) %MON dynstat_salt_max             =   3.4400000000000E+01
(PID.TID 0000.0001) %MON dynstat_salt_min             =   3.4394757347916E+01
(PID.TID 0000.0001) %MON dynstat_salt_mean            =   3.4399913021976E+01
(PID.TID 0000.0001) %MON dynstat_salt_sd              =   4.0704804935714E-04
(PID.TID 0000.0001) %MON dynstat_salt_del2            =   4.2656169191756E-07
(PID.TID 0000.0001) %MON advcfl_uvel_max              =   7.7712763233057E-05
(PID.TID 0000.0001) %MON advcfl_vvel_max              =   9.9118871582963E-06
(PID.TID 0000.0001) %MON advcfl_wvel_max              =   7.4112409650652E-05
(PID.TID 0000.0001) %MON advcfl_W_hf_max              =   7.9964335701580E-05
(PID.TID 0000.0001) %MON pe_b_mean                    =  -5.1020262724635E-09
(PID.TID 0000.0001) %MON ke_max                       =   3.4760701158304E-08
(PID.TID 0000.0001) %MON ke_mean                      =   1.6905336472726E-10
(PID.TID 0000.0001) %MON ke_vol                       =   2.9241705273105E+14
(PID.TID 0000.0001) %MON vort_r_min                   =  -1.0365291151595E-08
(PID.TID 0000.0001) %MON vort_r_max                   =   1.2646172788466E-08
(PID.TID 0000.0001) %MON vort_a_mean                  =  -1.4007437278489E-04
(PID.TID 0000.0001) %MON vort_a_sd                    =   1.7682753466977E-06
(PID.TID 0000.0001) %MON vort_p_mean                  =  -1.5039772195262E-04
(PID.TID 0000.0001) %MON vort_p_sd                    =   8.7078478361261E-05
(PID.TID 0000.0001) %MON surfExpan_theta_mean         =  -4.7731065609748E-14
(PID.TID 0000.0001) %MON surfExpan_salt_mean          =  -1.9820109336772E-14
(PID.TID 0000.0001) // =======================================================
(PID.TID 0000.0001) // End MONITOR dynamic field statistics
(PID.TID 0000.0001) // =======================================================
 cg2d: Sum(rhs),rhsMax =  -1.59872115546023E-14  7.25958629705224E-06
(PID.TID 0000.0001)      cg2d_init_res =   4.70690364553091E-01
(PID.TID 0000.0001)      cg2d_iters(min,last) =      -1     211
(PID.TID 0000.0001)      cg2d_last_res =   7.64362034809400E-14
(PID.TID 0000.0001) // =======================================================
(PID.TID 0000.0001) // Begin MONITOR dynamic field statistics
(PID.TID 0000.0001) // =======================================================
(PID.TID 0000.0001) %MON time_tsnumber                =                    20
(PID.TID 0000.0001) %MON time_secondsf                =   3.6000000000000E+04
(PID.TID 0000.0001) %MON dynstat_eta_max              =   1.5875479890082E-05
(PID.TID 0000.0001) %MON dynstat_eta_min              =  -1.3184276521096E-05
(PID.TID 0000.0001) %MON dynstat_eta_mean             =   5.9891812225905E-22
(PID.TID 0000.0001) %MON dynstat_eta_sd               =   5.6415088715136E-06
(PID.TID 0000.0001) %MON dynstat_eta_del2             =   5.9039864935805E-09
(PID.TID 0000.0001) %MON dynstat_uvel_max             =   4.1534487472917E-05
(PID.TID 0000.0001) %MON dynstat_uvel_min             =  -2.7059356583458E-04
(PID.TID 0000.0001) %MON dynstat_uvel_mean            =   2.0750778002406E-08
(PID.TID 0000.0001) %MON dynstat_uvel_sd              =   1.8957960824001E-05
(PID.TID 0000.0001) %MON dynstat_uvel_del2            =   4.0968526101093E-08
(PID.TID 0000.0001) %MON dynstat_vvel_max             =   5.5464677961785E-05
(PID.TID 0000.0001) %MON dynstat_vvel_min             =  -1.0613043878627E-05
(PID.TID 0000.0001) %MON dynstat_vvel_mean            =  -2.2537387287978E-08
(PID.TID 0000.0001) %MON dynstat_vvel_sd              =   2.5821564813158E-06
(PID.TID 0000.0001) %MON dynstat_vvel_del2            =   6.3458086180374E-09
(PID.TID 0000.0001) %MON dynstat_wvel_max             =   1.2831911297818E-06
(PID.TID 0000.0001) %MON dynstat_wvel_min             =  -1.2411804650154E-06
(PID.TID 0000.0001) %MON dynstat_wvel_mean            =  -1.2369129803023E-11
(PID.TID 0000.0001) %MON dynstat_wvel_sd              =   4.0087301383683E-08
(PID.TID 0000.0001) %MON dynstat_wvel_del2            =   1.6881906949956E-10
(PID.TID 0000.0001) %MON dynstat_theta_max            =  -1.9000000000000E+00
(PID.TID 0000.0001) %MON dynstat_theta_min            =  -1.9135145390521E+00
(PID.TID 0000.0001) %MON dynstat_theta_mean           =  -1.9002267564590E+00
(PID.TID 0000.0001) %MON dynstat_theta_sd             =   1.0553969139946E-03
(PID.TID 0000.0001) %MON dynstat_theta_del2           =   1.0999253357328E-06
(PID.TID 0000.0001) %MON dynstat_salt_max             =   3.4400000000000E+01
(PID.TID 0000.0001) %MON dynstat_salt_min             =   3.4394485215893E+01
(PID.TID 0000.0001) %MON dynstat_salt_mean            =   3.4399908493215E+01
(PID.TID 0000.0001) %MON dynstat_salt_sd              =   4.2816054051551E-04
(PID.TID 0000.0001) %MON dynstat_salt_del2            =   4.4809668208300E-07
(PID.TID 0000.0001) %MON advcfl_uvel_max              =   8.0513505047142E-05
(PID.TID 0000.0001) %MON advcfl_vvel_max              =   8.9799144845724E-06
(PID.TID 0000.0001) %MON advcfl_wvel_max              =   7.6991467786910E-05
(PID.TID 0000.0001) %MON advcfl_W_hf_max              =   8.2329285454109E-05
(PID.TID 0000.0001) %MON pe_b_mean                    =  -5.2819028235285E-09
(PID.TID 0000.0001) %MON ke_max                       =   3.7079059361588E-08
(PID.TID 0000.0001) %MON ke_mean                      =   1.7932980221450E-10
(PID.TID 0000.0001) %MON ke_vol                       =   2.9241705273105E+14
(PID.TID 0000.0001) %MON vort_r_min                   =  -9.3274889510136E-09
(PID.TID 0000.0001) %MON vort_r_max                   =   1.3235047705162E-08
(PID.TID 0000.0001) %MON vort_a_mean                  =  -1.4007437278611E-04
(PID.TID 0000.0001) %MON vort_a_sd                    =   1.7682752918242E-06
(PID.TID 0000.0001) %MON vort_p_mean                  =  -1.5039772195393E-04
(PID.TID 0000.0001) %MON vort_p_sd                    =   8.7078383159917E-05
(PID.TID 0000.0001) %MON surfExpan_theta_mean         =  -1.5018407645947E-13
(PID.TID 0000.0001) %MON surfExpan_salt_mean          =  -6.1981683063479E-14
(PID.TID 0000.0001) // =======================================================
(PID.TID 0000.0001) // End MONITOR dynamic field statistics
(PID.TID 0000.0001) // =======================================================
(PID.TID 0000.0001) %CHECKPOINT        20 ckptA
(PID.TID 0000.0001)   Seconds in section "ALL                    [THE_MODEL_MAIN]":
(PID.TID 0000.0001)           User time:   49.640000000000001
(PID.TID 0000.0001)         System time:  0.19000000000000000
(PID.TID 0000.0001)     Wall clock time:   73.623972892761230
(PID.TID 0000.0001)          No. starts:           1
(PID.TID 0000.0001)           No. stops:           1
(PID.TID 0000.0001)   Seconds in section "INITIALISE_FIXED       [THE_MODEL_MAIN]":
(PID.TID 0000.0001)           User time:  0.69000000000000006
(PID.TID 0000.0001)         System time:  8.99999999999999967E-002
(PID.TID 0000.0001)     Wall clock time:   15.088861942291260
(PID.TID 0000.0001)          No. starts:           1
(PID.TID 0000.0001)           No. stops:           1
(PID.TID 0000.0001)   Seconds in section "THE_MAIN_LOOP          [THE_MODEL_MAIN]":
(PID.TID 0000.0001)           User time:   48.950000000000003
(PID.TID 0000.0001)         System time:  0.10000000000000001
(PID.TID 0000.0001)     Wall clock time:   58.530575990676880
(PID.TID 0000.0001)          No. starts:           1
(PID.TID 0000.0001)           No. stops:           1
(PID.TID 0000.0001)   Seconds in section "INITIALISE_VARIA    [THE_MAIN_LOOP]":
(PID.TID 0000.0001)           User time:  0.76999999999999991
(PID.TID 0000.0001)         System time:  4.00000000000000078E-002
(PID.TID 0000.0001)     Wall clock time:   4.3307201862335205
(PID.TID 0000.0001)          No. starts:           1
(PID.TID 0000.0001)           No. stops:           1
(PID.TID 0000.0001)   Seconds in section "MAIN LOOP           [THE_MAIN_LOOP]":
(PID.TID 0000.0001)           User time:   48.180000000000000
(PID.TID 0000.0001)         System time:  5.99999999999999978E-002
(PID.TID 0000.0001)     Wall clock time:   54.199814081192017
(PID.TID 0000.0001)          No. starts:           1
(PID.TID 0000.0001)           No. stops:           1
(PID.TID 0000.0001)   Seconds in section "MAIN_DO_LOOP        [THE_MAIN_LOOP]":
(PID.TID 0000.0001)           User time:   48.180000000000000
(PID.TID 0000.0001)         System time:  5.99999999999999978E-002
(PID.TID 0000.0001)     Wall clock time:   54.199615001678467
(PID.TID 0000.0001)          No. starts:          20
(PID.TID 0000.0001)           No. stops:          20
(PID.TID 0000.0001)   Seconds in section "FORWARD_STEP        [MAIN_DO_LOOP]":
(PID.TID 0000.0001)           User time:   48.180000000000000
(PID.TID 0000.0001)         System time:  5.99999999999999978E-002
(PID.TID 0000.0001)     Wall clock time:   54.199223518371582
(PID.TID 0000.0001)          No. starts:          20
(PID.TID 0000.0001)           No. stops:          20
(PID.TID 0000.0001)   Seconds in section "LOAD_FIELDS_DRIVER  [FORWARD_STEP]":
(PID.TID 0000.0001)           User time:   0.0000000000000000
(PID.TID 0000.0001)         System time:   0.0000000000000000
(PID.TID 0000.0001)     Wall clock time:  5.86509704589843750E-004
(PID.TID 0000.0001)          No. starts:          20
(PID.TID 0000.0001)           No. stops:          20
(PID.TID 0000.0001)   Seconds in section "EXTERNAL_FLDS_LOAD [LOAD_FLDS_DRIVER]":
(PID.TID 0000.0001)           User time:   0.0000000000000000
(PID.TID 0000.0001)         System time:   0.0000000000000000
(PID.TID 0000.0001)     Wall clock time:  2.03847885131835938E-004
(PID.TID 0000.0001)          No. starts:          20
(PID.TID 0000.0001)           No. stops:          20
(PID.TID 0000.0001)   Seconds in section "DO_ATMOSPHERIC_PHYS [FORWARD_STEP]":
(PID.TID 0000.0001)           User time:   0.0000000000000000
(PID.TID 0000.0001)         System time:   0.0000000000000000
(PID.TID 0000.0001)     Wall clock time:  1.92165374755859375E-004
(PID.TID 0000.0001)          No. starts:          20
(PID.TID 0000.0001)           No. stops:          20
(PID.TID 0000.0001)   Seconds in section "DO_OCEANIC_PHYS     [FORWARD_STEP]":
(PID.TID 0000.0001)           User time:  0.80999999999999517
(PID.TID 0000.0001)         System time:   0.0000000000000000
(PID.TID 0000.0001)     Wall clock time:  0.81993603706359863
(PID.TID 0000.0001)          No. starts:          20
(PID.TID 0000.0001)           No. stops:          20
(PID.TID 0000.0001)   Seconds in section "SHELFICE_THERMODYNAMICS [DO_OCEANIC_PHYS]":
(PID.TID 0000.0001)           User time:  0.13999999999997925
(PID.TID 0000.0001)         System time:   0.0000000000000000
(PID.TID 0000.0001)     Wall clock time:  0.11160945892333984
(PID.TID 0000.0001)          No. starts:          20
(PID.TID 0000.0001)           No. stops:          20
(PID.TID 0000.0001)   Seconds in section "THERMODYNAMICS      [FORWARD_STEP]":
(PID.TID 0000.0001)           User time:   9.5299999999999940
(PID.TID 0000.0001)         System time:   0.0000000000000000
(PID.TID 0000.0001)     Wall clock time:   9.5416538715362549
(PID.TID 0000.0001)          No. starts:          20
(PID.TID 0000.0001)           No. stops:          20
(PID.TID 0000.0001)   Seconds in section "DYNAMICS            [FORWARD_STEP]":
(PID.TID 0000.0001)           User time:   17.730000000000004
(PID.TID 0000.0001)         System time:   0.0000000000000000
(PID.TID 0000.0001)     Wall clock time:   17.762972831726074
(PID.TID 0000.0001)          No. starts:          20
(PID.TID 0000.0001)           No. stops:          20
(PID.TID 0000.0001)   Seconds in section "UPDATE_SURF_DR      [FORWARD_STEP]":
(PID.TID 0000.0001)           User time:  2.99999999999940314E-002
(PID.TID 0000.0001)         System time:   0.0000000000000000
(PID.TID 0000.0001)     Wall clock time:  2.27622985839843750E-002
(PID.TID 0000.0001)          No. starts:          20
(PID.TID 0000.0001)           No. stops:          20
(PID.TID 0000.0001)   Seconds in section "UPDATE_CG2D         [FORWARD_STEP]":
(PID.TID 0000.0001)           User time:  0.34999999999999432
(PID.TID 0000.0001)         System time:   0.0000000000000000
(PID.TID 0000.0001)     Wall clock time:  0.36539411544799805
(PID.TID 0000.0001)          No. starts:          20
(PID.TID 0000.0001)           No. stops:          20
(PID.TID 0000.0001)   Seconds in section "SOLVE_FOR_PRESSURE  [FORWARD_STEP]":
(PID.TID 0000.0001)           User time:   9.7800000000000082
(PID.TID 0000.0001)         System time:   0.0000000000000000
(PID.TID 0000.0001)     Wall clock time:   9.8011093139648438
(PID.TID 0000.0001)          No. starts:          20
(PID.TID 0000.0001)           No. stops:          20
(PID.TID 0000.0001)   Seconds in section "MOM_CORRECTION_STEP [FORWARD_STEP]":
(PID.TID 0000.0001)           User time:  0.74999999999999289
(PID.TID 0000.0001)         System time:   0.0000000000000000
(PID.TID 0000.0001)     Wall clock time:  0.75439763069152832
(PID.TID 0000.0001)          No. starts:          20
(PID.TID 0000.0001)           No. stops:          20
(PID.TID 0000.0001)   Seconds in section "INTEGR_CONTINUITY   [FORWARD_STEP]":
(PID.TID 0000.0001)           User time:   1.0500000000000043
(PID.TID 0000.0001)         System time:   0.0000000000000000
(PID.TID 0000.0001)     Wall clock time:   1.0415866374969482
(PID.TID 0000.0001)          No. starts:          20
(PID.TID 0000.0001)           No. stops:          20
(PID.TID 0000.0001)   Seconds in section "CALC_SURF_DR      [FORWARD_STEP]":
(PID.TID 0000.0001)           User time:  4.00000000000062528E-002
(PID.TID 0000.0001)         System time:   0.0000000000000000
(PID.TID 0000.0001)     Wall clock time:  4.51779365539550781E-002
(PID.TID 0000.0001)          No. starts:          20
(PID.TID 0000.0001)           No. stops:          20
(PID.TID 0000.0001)   Seconds in section "TRC_CORRECTION_STEP [FORWARD_STEP]":
(PID.TID 0000.0001)           User time:   2.2400000000000020
(PID.TID 0000.0001)         System time:   0.0000000000000000
(PID.TID 0000.0001)     Wall clock time:   2.2598652839660645
(PID.TID 0000.0001)          No. starts:          20
(PID.TID 0000.0001)           No. stops:          20
(PID.TID 0000.0001)   Seconds in section "BLOCKING_EXCHANGES  [FORWARD_STEP]":
(PID.TID 0000.0001)           User time:  0.53999999999998494
(PID.TID 0000.0001)         System time:   0.0000000000000000
(PID.TID 0000.0001)     Wall clock time:  0.51640415191650391
(PID.TID 0000.0001)          No. starts:          20
(PID.TID 0000.0001)           No. stops:          20
(PID.TID 0000.0001)   Seconds in section "DO_STATEVARS_TAVE   [FORWARD_STEP]":
(PID.TID 0000.0001)           User time:   0.0000000000000000
(PID.TID 0000.0001)         System time:   0.0000000000000000
(PID.TID 0000.0001)     Wall clock time:  2.18868255615234375E-004
(PID.TID 0000.0001)          No. starts:          20
(PID.TID 0000.0001)           No. stops:          20
(PID.TID 0000.0001)   Seconds in section "MONITOR             [FORWARD_STEP]":
(PID.TID 0000.0001)           User time:   4.9000000000000128
(PID.TID 0000.0001)         System time:  1.00000000000000089E-002
(PID.TID 0000.0001)     Wall clock time:   4.9192354679107666
(PID.TID 0000.0001)          No. starts:          20
(PID.TID 0000.0001)           No. stops:          20
(PID.TID 0000.0001)   Seconds in section "DO_THE_MODEL_IO     [FORWARD_STEP]":
(PID.TID 0000.0001)           User time:  0.28999999999999915
(PID.TID 0000.0001)         System time:  3.99999999999999800E-002
(PID.TID 0000.0001)     Wall clock time:   6.1340913772583008
(PID.TID 0000.0001)          No. starts:          20
(PID.TID 0000.0001)           No. stops:          20
(PID.TID 0000.0001)   Seconds in section "DO_WRITE_PICKUP     [FORWARD_STEP]":
(PID.TID 0000.0001)           User time:  0.14000000000000057
(PID.TID 0000.0001)         System time:  1.00000000000000089E-002
(PID.TID 0000.0001)     Wall clock time:  0.20981359481811523
(PID.TID 0000.0001)          No. starts:          20
(PID.TID 0000.0001)           No. stops:          20
(PID.TID 0000.0001) // ======================================================
(PID.TID 0000.0001) // Tile <-> Tile communication statistics
(PID.TID 0000.0001) // ======================================================
(PID.TID 0000.0001) // o Tile number: 000001
(PID.TID 0000.0001) //         No. X exchanges =              0
(PID.TID 0000.0001) //            Max. X spins =              0
(PID.TID 0000.0001) //            Min. X spins =     1000000000
(PID.TID 0000.0001) //          Total. X spins =              0
(PID.TID 0000.0001) //            Avg. X spins =       0.00E+00
(PID.TID 0000.0001) //         No. Y exchanges =              0
(PID.TID 0000.0001) //            Max. Y spins =              0
(PID.TID 0000.0001) //            Min. Y spins =     1000000000
(PID.TID 0000.0001) //          Total. Y spins =              0
(PID.TID 0000.0001) //            Avg. Y spins =       0.00E+00
(PID.TID 0000.0001) // o Tile number: 000002
(PID.TID 0000.0001) //         No. X exchanges =              0
(PID.TID 0000.0001) //            Max. X spins =              0
(PID.TID 0000.0001) //            Min. X spins =     1000000000
(PID.TID 0000.0001) //          Total. X spins =              0
(PID.TID 0000.0001) //            Avg. X spins =       0.00E+00
(PID.TID 0000.0001) //         No. Y exchanges =              0
(PID.TID 0000.0001) //            Max. Y spins =              0
(PID.TID 0000.0001) //            Min. Y spins =     1000000000
(PID.TID 0000.0001) //          Total. Y spins =              0
(PID.TID 0000.0001) //            Avg. Y spins =       0.00E+00
(PID.TID 0000.0001) // o Tile number: 000003
(PID.TID 0000.0001) //         No. X exchanges =              0
(PID.TID 0000.0001) //            Max. X spins =              0
(PID.TID 0000.0001) //            Min. X spins =     1000000000
(PID.TID 0000.0001) //          Total. X spins =              0
(PID.TID 0000.0001) //            Avg. X spins =       0.00E+00
(PID.TID 0000.0001) //         No. Y exchanges =              0
(PID.TID 0000.0001) //            Max. Y spins =              0
(PID.TID 0000.0001) //            Min. Y spins =     1000000000
(PID.TID 0000.0001) //          Total. Y spins =              0
(PID.TID 0000.0001) //            Avg. Y spins =       0.00E+00
(PID.TID 0000.0001) // o Tile number: 000004
(PID.TID 0000.0001) //         No. X exchanges =              0
(PID.TID 0000.0001) //            Max. X spins =              0
(PID.TID 0000.0001) //            Min. X spins =     1000000000
(PID.TID 0000.0001) //          Total. X spins =              0
(PID.TID 0000.0001) //            Avg. X spins =       0.00E+00
(PID.TID 0000.0001) //         No. Y exchanges =              0
(PID.TID 0000.0001) //            Max. Y spins =              0
(PID.TID 0000.0001) //            Min. Y spins =     1000000000
(PID.TID 0000.0001) //          Total. Y spins =              0
(PID.TID 0000.0001) //            Avg. Y spins =       0.00E+00
(PID.TID 0000.0001) // o Tile number: 000005
(PID.TID 0000.0001) //         No. X exchanges =              0
(PID.TID 0000.0001) //            Max. X spins =              0
(PID.TID 0000.0001) //            Min. X spins =     1000000000
(PID.TID 0000.0001) //          Total. X spins =              0
(PID.TID 0000.0001) //            Avg. X spins =       0.00E+00
(PID.TID 0000.0001) //         No. Y exchanges =              0
(PID.TID 0000.0001) //            Max. Y spins =              0
(PID.TID 0000.0001) //            Min. Y spins =     1000000000
(PID.TID 0000.0001) //          Total. Y spins =              0
(PID.TID 0000.0001) //            Avg. Y spins =       0.00E+00
(PID.TID 0000.0001) // o Tile number: 000006
(PID.TID 0000.0001) //         No. X exchanges =              0
(PID.TID 0000.0001) //            Max. X spins =              0
(PID.TID 0000.0001) //            Min. X spins =     1000000000
(PID.TID 0000.0001) //          Total. X spins =              0
(PID.TID 0000.0001) //            Avg. X spins =       0.00E+00
(PID.TID 0000.0001) //         No. Y exchanges =              0
(PID.TID 0000.0001) //            Max. Y spins =              0
(PID.TID 0000.0001) //            Min. Y spins =     1000000000
(PID.TID 0000.0001) //          Total. Y spins =              0
(PID.TID 0000.0001) //            Avg. Y spins =       0.00E+00
(PID.TID 0000.0001) // o Tile number: 000007
(PID.TID 0000.0001) //         No. X exchanges =              0
(PID.TID 0000.0001) //            Max. X spins =              0
(PID.TID 0000.0001) //            Min. X spins =     1000000000
(PID.TID 0000.0001) //          Total. X spins =              0
(PID.TID 0000.0001) //            Avg. X spins =       0.00E+00
(PID.TID 0000.0001) //         No. Y exchanges =              0
(PID.TID 0000.0001) //            Max. Y spins =              0
(PID.TID 0000.0001) //            Min. Y spins =     1000000000
(PID.TID 0000.0001) //          Total. Y spins =              0
(PID.TID 0000.0001) //            Avg. Y spins =       0.00E+00
(PID.TID 0000.0001) // o Tile number: 000008
(PID.TID 0000.0001) //         No. X exchanges =              0
(PID.TID 0000.0001) //            Max. X spins =              0
(PID.TID 0000.0001) //            Min. X spins =     1000000000
(PID.TID 0000.0001) //          Total. X spins =              0
(PID.TID 0000.0001) //            Avg. X spins =       0.00E+00
(PID.TID 0000.0001) //         No. Y exchanges =              0
(PID.TID 0000.0001) //            Max. Y spins =              0
(PID.TID 0000.0001) //            Min. Y spins =     1000000000
(PID.TID 0000.0001) //          Total. Y spins =              0
(PID.TID 0000.0001) //            Avg. Y spins =       0.00E+00
(PID.TID 0000.0001) // o Thread number: 000001
(PID.TID 0000.0001) //            No. barriers =          28862
(PID.TID 0000.0001) //      Max. barrier spins =              1
(PID.TID 0000.0001) //      Min. barrier spins =              1
(PID.TID 0000.0001) //     Total barrier spins =          28862
(PID.TID 0000.0001) //      Avg. barrier spins =       1.00E+00
PROGRAM MAIN: Execution ended Normally
