(PID.TID 0000.0001) 
(PID.TID 0000.0001) // ======================================================
(PID.TID 0000.0001) //                      MITgcm UV
(PID.TID 0000.0001) //                      =========
(PID.TID 0000.0001) // ======================================================
(PID.TID 0000.0001) // execution environment starting up...
(PID.TID 0000.0001) 
(PID.TID 0000.0001) // MITgcmUV version:  checkpoint59n
(PID.TID 0000.0001) // Build user:        mlosch
(PID.TID 0000.0001) // Build host:        eddy
(PID.TID 0000.0001) // Build date:        Wed Feb 27 10:35:01 EST 2008
(PID.TID 0000.0001) 
(PID.TID 0000.0001) // =======================================================
(PID.TID 0000.0001) // Execution Environment parameter file "eedata"
(PID.TID 0000.0001) // =======================================================
(PID.TID 0000.0001) ># Example "eedata" file
(PID.TID 0000.0001) ># Lines beginning "#" are comments
(PID.TID 0000.0001) ># nTx - No. threads per process in X
(PID.TID 0000.0001) ># nTy - No. threads per process in Y
(PID.TID 0000.0001) > &EEPARMS
(PID.TID 0000.0001) > &
(PID.TID 0000.0001) ># Note: Some systems use & as the
(PID.TID 0000.0001) ># namelist terminator. Other systems
(PID.TID 0000.0001) ># use a / character (as shown here).
(PID.TID 0000.0001) 
(PID.TID 0000.0001) // =======================================================
(PID.TID 0000.0001) // Computational Grid Specification ( see files "SIZE.h" )
(PID.TID 0000.0001) //                                  ( and "eedata"       )
(PID.TID 0000.0001) // =======================================================
(PID.TID 0000.0001)      nPx =    1 ; /* No. processes in X */
(PID.TID 0000.0001)      nPy =    1 ; /* No. processes in Y */
(PID.TID 0000.0001)      nSx =    1 ; /* No. tiles in X per process */
(PID.TID 0000.0001)      nSy =    2 ; /* No. tiles in Y per process */
(PID.TID 0000.0001)      sNx =   50 ; /* Tile size in X */
(PID.TID 0000.0001)      sNy =   50 ; /* Tile size in Y */
(PID.TID 0000.0001)      OLx =    3 ; /* Tile overlap distance in X */
(PID.TID 0000.0001)      OLy =    3 ; /* Tile overlap distance in Y */
(PID.TID 0000.0001)      nTx =    1 ; /* No. threads in X per process */
(PID.TID 0000.0001)      nTy =    1 ; /* No. threads in Y per process */
(PID.TID 0000.0001)       Nr =   30 ; /* No. levels in the vertical   */
(PID.TID 0000.0001)       nX =   50 ; /* Total domain size in X ( = nPx*nSx*sNx ) */
(PID.TID 0000.0001)       nY =  100 ; /* Total domain size in Y ( = nPy*nSy*sNy ) */
(PID.TID 0000.0001)   nTiles =    2 ; /* Total no. tiles per process ( = nSx*nSy ) */
(PID.TID 0000.0001)   nProcs =    1 ; /* Total no. processes ( = nPx*nPy ) */
(PID.TID 0000.0001) nThreads =    1 ; /* Total no. threads per process ( = nTx*nTy ) */
(PID.TID 0000.0001) usingMPI =    F ; /* Flag used to control whether MPI is in use */
(PID.TID 0000.0001)                   /*  note: To execute a program with MPI calls */
(PID.TID 0000.0001)                   /*  it must be launched appropriately e.g     */
(PID.TID 0000.0001)                   /*  "mpirun -np 64 ......"                    */
(PID.TID 0000.0001) useCoupler=   F ; /* Flag used to control communications with */
(PID.TID 0000.0001)                   /*  other model components, through a coupler */
(PID.TID 0000.0001) 
(PID.TID 0000.0001) // ======================================================
(PID.TID 0000.0001) // Mapping of tiles to threads
(PID.TID 0000.0001) // ======================================================
(PID.TID 0000.0001) // -o- Thread   1, tiles (   1:   1,   1:   2)
(PID.TID 0000.0001) 
(PID.TID 0000.0001) // ======================================================
(PID.TID 0000.0001) // Tile <-> Tile connectvity table
(PID.TID 0000.0001) // ======================================================
(PID.TID 0000.0001) // Tile number: 000001 (process no. = 000001)
(PID.TID 0000.0001) //        WEST: Tile = 000001, Process = 000001, Comm = put
(PID.TID 0000.0001) //                bi = 000001, bj = 000001
(PID.TID 0000.0001) //        EAST: Tile = 000001, Process = 000001, Comm = put
(PID.TID 0000.0001) //                bi = 000001, bj = 000001
(PID.TID 0000.0001) //       SOUTH: Tile = 000002, Process = 000001, Comm = put
(PID.TID 0000.0001) //                bi = 000001, bj = 000002
(PID.TID 0000.0001) //       NORTH: Tile = 000002, Process = 000001, Comm = put
(PID.TID 0000.0001) //                bi = 000001, bj = 000002
(PID.TID 0000.0001) // Tile number: 000002 (process no. = 000001)
(PID.TID 0000.0001) //        WEST: Tile = 000002, Process = 000001, Comm = put
(PID.TID 0000.0001) //                bi = 000001, bj = 000002
(PID.TID 0000.0001) //        EAST: Tile = 000002, Process = 000001, Comm = put
(PID.TID 0000.0001) //                bi = 000001, bj = 000002
(PID.TID 0000.0001) //       SOUTH: Tile = 000001, Process = 000001, Comm = put
(PID.TID 0000.0001) //                bi = 000001, bj = 000001
(PID.TID 0000.0001) //       NORTH: Tile = 000001, Process = 000001, Comm = put
(PID.TID 0000.0001) //                bi = 000001, bj = 000001
(PID.TID 0000.0001) 
(PID.TID 0000.0001) // =======================================================
(PID.TID 0000.0001) // Model parameter file "data"
(PID.TID 0000.0001) // =======================================================
(PID.TID 0000.0001) ># ====================
(PID.TID 0000.0001) ># | Model parameters |
(PID.TID 0000.0001) ># ====================
(PID.TID 0000.0001) >#
(PID.TID 0000.0001) ># Continuous equation parameters
(PID.TID 0000.0001) > &PARM01
(PID.TID 0000.0001) > Tref = 30*-1.9,
(PID.TID 0000.0001) > Sref = 30*34.4,
(PID.TID 0000.0001) > viscAz=1.E-3,
(PID.TID 0000.0001) > viscAh=600.0,
(PID.TID 0000.0001) > no_slip_sides=.FALSE.,
(PID.TID 0000.0001) > diffKhT=100.0,
(PID.TID 0000.0001) > diffKzT=5.E-5,
(PID.TID 0000.0001) > diffKhS=100.0,
(PID.TID 0000.0001) > diffKzS=5.E-5,
(PID.TID 0000.0001) > bottomDragQuadratic=2.5E-3,
(PID.TID 0000.0001) > eosType='JMD95Z',
(PID.TID 0000.0001) > HeatCapacity_cp = 3974.0,
(PID.TID 0000.0001) > rhoConst=1030.,
(PID.TID 0000.0001) > rhoNil=1030.,
(PID.TID 0000.0001) > gravity=9.81,
(PID.TID 0000.0001) > gBaro=9.81,
(PID.TID 0000.0001) > convertFW2Salt = 33.4,
(PID.TID 0000.0001) > rigidLid=.FALSE.,
(PID.TID 0000.0001) > implicitFreeSurface=.TRUE.,
(PID.TID 0000.0001) > exactConserv=.true.,
(PID.TID 0000.0001) > hFacMin=0.05,
(PID.TID 0000.0001) > nonHydrostatic=.false.,
(PID.TID 0000.0001) > readBinaryPrec=64,
(PID.TID 0000.0001) > useCDScheme = .true.,
(PID.TID 0000.0001) > &
(PID.TID 0000.0001) >
(PID.TID 0000.0001) ># Elliptic solver parameters
(PID.TID 0000.0001) > &PARM02
(PID.TID 0000.0001) > cg2dMaxIters=1000,
(PID.TID 0000.0001) > cg2dTargetResidual=1.E-13,
(PID.TID 0000.0001) > cg3dMaxIters=400,
(PID.TID 0000.0001) > cg3dTargetResidual=1.E-13,
(PID.TID 0000.0001) > &
(PID.TID 0000.0001) >
(PID.TID 0000.0001) ># Time stepping parameters
(PID.TID 0000.0001) > &PARM03
(PID.TID 0000.0001) > niter0=0,
(PID.TID 0000.0001) > nTimeSteps=20,
(PID.TID 0000.0001) > deltaT=1800.0,
(PID.TID 0000.0001) > abEps=0.1,
(PID.TID 0000.0001) > cAdjFreq = -1.,
(PID.TID 0000.0001) > tauCD = 400000.,
(PID.TID 0000.0001) > pChkptFreq=0.0,
(PID.TID 0000.0001) > chkptFreq=0.0,
(PID.TID 0000.0001) > dumpFreq=0.0,
(PID.TID 0000.0001) > taveFreq=0.0,
(PID.TID 0000.0001) > monitorFreq=1.,
(PID.TID 0000.0001) > &
(PID.TID 0000.0001) >
(PID.TID 0000.0001) ># Gridding parameters
(PID.TID 0000.0001) > &PARM04
(PID.TID 0000.0001) > usingCartesianGrid=.FALSE.,
(PID.TID 0000.0001) > usingSphericalPolarGrid=.TRUE.,
(PID.TID 0000.0001) > phiMin = -80.0,
(PID.TID 0000.0001) > delX=50*0.3,
(PID.TID 0000.0001) > delY=100*0.1,
(PID.TID 0000.0001) > delZ=30*30.0,
(PID.TID 0000.0001) > &
(PID.TID 0000.0001) >
(PID.TID 0000.0001) ># Input datasets
(PID.TID 0000.0001) > &PARM05
(PID.TID 0000.0001) > bathyFile='bathy.box',
(PID.TID 0000.0001) > shelfIceFile='icetopo.exp1',
(PID.TID 0000.0001) > &
(PID.TID 0000.0001) 
(PID.TID 0000.0001) S/R INI_PARMS ; starts to read PARM01
(PID.TID 0000.0001) S/R INI_PARMS ; read PARM01 : OK
(PID.TID 0000.0001) S/R INI_PARMS ; starts to read PARM02
(PID.TID 0000.0001) S/R INI_PARMS ; read PARM02 : OK
(PID.TID 0000.0001) S/R INI_PARMS ; starts to read PARM03
(PID.TID 0000.0001) S/R INI_PARMS ; read PARM03 : OK
(PID.TID 0000.0001) S/R INI_PARMS ; starts to read PARM04
(PID.TID 0000.0001) S/R INI_PARMS ; read PARM04 : OK
(PID.TID 0000.0001) S/R INI_PARMS ; starts to read PARM05
(PID.TID 0000.0001) S/R INI_PARMS ; read PARM05 : OK
(PID.TID 0000.0001)  PACKAGES_BOOT: opening data.pkg
(PID.TID 0000.0001)  OPEN_COPY_DATA_FILE: opening file data.pkg
(PID.TID 0000.0001) // =======================================================
(PID.TID 0000.0001) // Parameter file "data.pkg"
(PID.TID 0000.0001) // =======================================================
(PID.TID 0000.0001) ># Packages
(PID.TID 0000.0001) > &PACKAGES
(PID.TID 0000.0001) > useMNC=.TRUE.,
(PID.TID 0000.0001) > useShelfIce=.true.,
(PID.TID 0000.0001) > &
(PID.TID 0000.0001) 
(PID.TID 0000.0001)  PACKAGES_BOOT: finished reading data.pkg
(PID.TID 0000.0001)  MNC_READPARMS: opening file 'data.mnc'
(PID.TID 0000.0001)  OPEN_COPY_DATA_FILE: opening file data.mnc
(PID.TID 0000.0001) // =======================================================
(PID.TID 0000.0001) // Parameter file "data.mnc"
(PID.TID 0000.0001) // =======================================================
(PID.TID 0000.0001) ># Example "data.mnc" file
(PID.TID 0000.0001) ># Lines beginning "#" are comments
(PID.TID 0000.0001) > &MNC_01
(PID.TID 0000.0001) ># mnc_echo_gvtypes=.FALSE.,
(PID.TID 0000.0001) ># mnc_use_indir=.FALSE.,
(PID.TID 0000.0001) > mnc_use_outdir=.TRUE.,
(PID.TID 0000.0001) > mnc_outdir_str='mnc_test_',
(PID.TID 0000.0001) >#mnc_outdir_date=.TRUE.,
(PID.TID 0000.0001) > monitor_mnc=.FALSE.,
(PID.TID 0000.0001) >#snapshot_mnc=.FALSE.,
(PID.TID 0000.0001) >#timeave_mnc=.FALSE.,
(PID.TID 0000.0001) > pickup_read_mnc=.FALSE.,
(PID.TID 0000.0001) > pickup_write_mnc=.FALSE.,
(PID.TID 0000.0001) > &
(PID.TID 0000.0001) ># Note: Some systems use & as the
(PID.TID 0000.0001) ># namelist terminator. Other systems
(PID.TID 0000.0001) ># use a / character (as shown here).
(PID.TID 0000.0001) 
(PID.TID 0000.0001)  MNC_READPARMS: finished reading data.mnc
(PID.TID 0000.0001)  SHELFICE_READPARMS: opening data.shelfice
(PID.TID 0000.0001)  OPEN_COPY_DATA_FILE: opening file data.shelfice
(PID.TID 0000.0001) // =======================================================
(PID.TID 0000.0001) // Parameter file "data.shelfice"
(PID.TID 0000.0001) // =======================================================
(PID.TID 0000.0001) ># ===================================
(PID.TID 0000.0001) ># | Parameters for SHELFICE package |
(PID.TID 0000.0001) ># ===================================
(PID.TID 0000.0001) > &SHELFICE_PARM01
(PID.TID 0000.0001) > SHELFICEconserve = .TRUE.,
(PID.TID 0000.0001) > SHELFICEboundaryLayer = .TRUE.,
(PID.TID 0000.0001) > SHELFICEloadAnomalyFile = 'phi0surf.exp1.jmd95z',
(PID.TID 0000.0001) > no_slip_shelfice = .false.,
(PID.TID 0000.0001) > SHELFICEwriteState = .TRUE.,
(PID.TID 0000.0001) > &
(PID.TID 0000.0001) 
(PID.TID 0000.0001)  SHELFICE_READPARMS: finished reading data.shelfice
(PID.TID 0000.0001) SET_PARMS: done
(PID.TID 0000.0001) Enter INI_VERTICAL_GRID: setInterFDr=    T ; setCenterDr=    F
(PID.TID 0000.0001) %MON XC_max                       =   1.4850000000000E+01
(PID.TID 0000.0001) %MON XC_min                       =   1.5000000000000E-01
(PID.TID 0000.0001) %MON XC_mean                      =   7.5000000000000E+00
(PID.TID 0000.0001) %MON XC_sd                        =   4.3292609068985E+00
(PID.TID 0000.0001) %MON XG_max                       =   1.4700000000000E+01
(PID.TID 0000.0001) %MON XG_min                       =   1.1102230246252E-16
(PID.TID 0000.0001) %MON XG_mean                      =   7.3500000000000E+00
(PID.TID 0000.0001) %MON XG_sd                        =   4.3292609068985E+00
(PID.TID 0000.0001) %MON DXC_max                      =   1.1380125394806E+04
(PID.TID 0000.0001) %MON DXC_min                      =   5.8203914905589E+03
(PID.TID 0000.0001) %MON DXC_mean                     =   8.6215028627206E+03
(PID.TID 0000.0001) %MON DXC_sd                       =   1.6219001271572E+03
(PID.TID 0000.0001) %MON DXF_max                      =   1.1380125394806E+04
(PID.TID 0000.0001) %MON DXF_min                      =   5.8203914905589E+03
(PID.TID 0000.0001) %MON DXF_mean                     =   8.6215028627206E+03
(PID.TID 0000.0001) %MON DXF_sd                       =   1.6219001271572E+03
(PID.TID 0000.0001) %MON DXG_max                      =   1.1352761512017E+04
(PID.TID 0000.0001) %MON DXG_min                      =   5.7917296935586E+03
(PID.TID 0000.0001) %MON DXG_mean                     =   8.5934208253080E+03
(PID.TID 0000.0001) %MON DXG_sd                       =   1.6222785520817E+03
(PID.TID 0000.0001) %MON DXV_max                      =   1.1352761512017E+04
(PID.TID 0000.0001) %MON DXV_min                      =   5.7917296935586E+03
(PID.TID 0000.0001) %MON DXV_mean                     =   8.5934208253080E+03
(PID.TID 0000.0001) %MON DXV_sd                       =   1.6222785520817E+03
(PID.TID 0000.0001) %MON YC_max                       =  -7.0050000000001E+01
(PID.TID 0000.0001) %MON YC_min                       =  -7.9950000000000E+01
(PID.TID 0000.0001) %MON YC_mean                      =  -7.5000000000000E+01
(PID.TID 0000.0001) %MON YC_sd                        =   2.8866070047720E+00
(PID.TID 0000.0001) %MON YG_max                       =  -7.0100000000001E+01
(PID.TID 0000.0001) %MON YG_min                       =  -8.0000000000000E+01
(PID.TID 0000.0001) %MON YG_mean                      =  -7.5050000000000E+01
(PID.TID 0000.0001) %MON YG_sd                        =   2.8866070047720E+00
(PID.TID 0000.0001) %MON DYC_max                      =   1.1117747335204E+04
(PID.TID 0000.0001) %MON DYC_min                      =   1.1117747335204E+04
(PID.TID 0000.0001) %MON DYC_mean                     =   1.1117747335203E+04
(PID.TID 0000.0001) %MON DYC_sd                       =   6.0754246078432E-10
(PID.TID 0000.0001) %MON DYF_max                      =   1.1117747335204E+04
(PID.TID 0000.0001) %MON DYF_min                      =   1.1117747335204E+04
(PID.TID 0000.0001) %MON DYF_mean                     =   1.1117747335203E+04
(PID.TID 0000.0001) %MON DYF_sd                       =   6.0754246078432E-10
(PID.TID 0000.0001) %MON DYG_max                      =   1.1117747335204E+04
(PID.TID 0000.0001) %MON DYG_min                      =   1.1117747335204E+04
(PID.TID 0000.0001) %MON DYG_mean                     =   1.1117747335203E+04
(PID.TID 0000.0001) %MON DYG_sd                       =   6.0754246078432E-10
(PID.TID 0000.0001) %MON DYU_max                      =   1.1117747335204E+04
(PID.TID 0000.0001) %MON DYU_min                      =   1.1117747335204E+04
(PID.TID 0000.0001) %MON DYU_mean                     =   1.1117747335203E+04
(PID.TID 0000.0001) %MON DYU_sd                       =   6.0754246078432E-10
(PID.TID 0000.0001) %MON RA_max                       =   1.2652134272379E+08
(PID.TID 0000.0001) %MON RA_min                       =   6.4709633770803E+07
(PID.TID 0000.0001) %MON RA_mean                      =   9.5851678311588E+07
(PID.TID 0000.0001) %MON RA_sd                        =   1.8031873527991E+07
(PID.TID 0000.0001) %MON RAW_max                      =   1.2652134272379E+08
(PID.TID 0000.0001) %MON RAW_min                      =   6.4709633770803E+07
(PID.TID 0000.0001) %MON RAW_mean                     =   9.5851678311588E+07
(PID.TID 0000.0001) %MON RAW_sd                       =   1.8031873527991E+07
(PID.TID 0000.0001) %MON RAS_max                      =   1.2621711802744E+08
(PID.TID 0000.0001) %MON RAS_min                      =   6.4390979194019E+07
(PID.TID 0000.0001) %MON RAS_mean                     =   9.5539469354603E+07
(PID.TID 0000.0001) %MON RAS_sd                       =   1.8036080760153E+07
(PID.TID 0000.0001) %MON RAZ_max                      =   1.2621711802744E+08
(PID.TID 0000.0001) %MON RAZ_min                      =   6.4390979194019E+07
(PID.TID 0000.0001) %MON RAZ_mean                     =   9.5539469354603E+07
(PID.TID 0000.0001) %MON RAZ_sd                       =   1.8036080760153E+07
(PID.TID 0000.0001) %MON AngleCS_max                  =   1.0000000000000E+00
(PID.TID 0000.0001) %MON AngleCS_min                  =   1.0000000000000E+00
(PID.TID 0000.0001) %MON AngleCS_mean                 =   1.0000000000000E+00
(PID.TID 0000.0001) %MON AngleCS_sd                   =   0.0000000000000E+00
(PID.TID 0000.0001) %MON AngleSN_max                  =   0.0000000000000E+00
(PID.TID 0000.0001) %MON AngleSN_min                  =   0.0000000000000E+00
(PID.TID 0000.0001) %MON AngleSN_mean                 =   0.0000000000000E+00
(PID.TID 0000.0001) %MON AngleSN_sd                   =   0.0000000000000E+00
(PID.TID 0000.0001)  MDS_READ_FIELD: opening global file: bathy.box
(PID.TID 0000.0001)  MDS_READ_FIELD: opening global file: icetopo.exp1
(PID.TID 0000.0001) // =======================================================
(PID.TID 0000.0001) // Field Model R_low (ini_masks_etc) at iteration          1
(PID.TID 0000.0001) // CMIN =         -9.000000000000000E+02
(PID.TID 0000.0001) // CMAX =         -9.000000000000000E+02
(PID.TID 0000.0001) // CINT =          0.000000000000000E+00
(PID.TID 0000.0001) // SYMBOLS (CMIN->CMAX): -abcdefghijklmnopqrstuvwxyz+
(PID.TID 0000.0001) //                  0.0: .
(PID.TID 0000.0001) // RANGE I (Lo:Hi:Step):(  -2:  53:   1)
(PID.TID 0000.0001) // RANGE J (Lo:Hi:Step):( 103:  -2:  -1)
(PID.TID 0000.0001) // RANGE K (Lo:Hi:Step):(   1:   1:   1)
(PID.TID 0000.0001) // =======================================================
(PID.TID 0000.0001) // =======================================================
(PID.TID 0000.0001) // END OF FIELD                                          =
(PID.TID 0000.0001) // =======================================================
(PID.TID 0000.0001) 
(PID.TID 0000.0001) // =======================================================
(PID.TID 0000.0001) // Field Model Ro_surf (ini_masks_etc) at iteration          1
(PID.TID 0000.0001) // CMIN =         -6.812500000000010E+02
(PID.TID 0000.0001) // CMAX =         -2.000000000000000E+02
(PID.TID 0000.0001) // CINT =          1.782407407407411E+01
(PID.TID 0000.0001) // SYMBOLS (CMIN->CMAX): -abcdefghijklmnopqrstuvwxyz+
(PID.TID 0000.0001) //                  0.0: .
(PID.TID 0000.0001) // RANGE I (Lo:Hi:Step):(  -2:  53:   1)
(PID.TID 0000.0001) // RANGE J (Lo:Hi:Step):( 103:  -2:  -1)
(PID.TID 0000.0001) // RANGE K (Lo:Hi:Step):(   1:   1:   1)
(PID.TID 0000.0001) // =======================================================
(PID.TID 0000.0001) K =   1
(PID.TID 0000.0001) //                I=7       I=17      I=27      I=37      I=47
(PID.TID 0000.0001) // |--J--|210123456|890123456|890123456|890123456|890123456|890123
(PID.TID 0000.0001) //    103 aaa.aaaaaaaaaaaaaaaaaaaaaaaaaaaaaaaaaaaaaaaaaaaaaaaaa.aa
(PID.TID 0000.0001) //    102 ---.-------------------------------------------------.--
(PID.TID 0000.0001) //    101 ........................................................
(PID.TID 0000.0001) //    100 +++.+++++++++++++++++++++++++++++++++++++++++++++++++.++
(PID.TID 0000.0001) //     99 +++.+++++++++++++++++++++++++++++++++++++++++++++++++.++
(PID.TID 0000.0001) //     98 +++.+++++++++++++++++++++++++++++++++++++++++++++++++.++
(PID.TID 0000.0001) //     97 +++.+++++++++++++++++++++++++++++++++++++++++++++++++.++
(PID.TID 0000.0001) //     96 +++.+++++++++++++++++++++++++++++++++++++++++++++++++.++
(PID.TID 0000.0001) //     95 +++.+++++++++++++++++++++++++++++++++++++++++++++++++.++
(PID.TID 0000.0001) //     94 +++.+++++++++++++++++++++++++++++++++++++++++++++++++.++
(PID.TID 0000.0001) //     93 +++.+++++++++++++++++++++++++++++++++++++++++++++++++.++
(PID.TID 0000.0001) //     92 +++.+++++++++++++++++++++++++++++++++++++++++++++++++.++
(PID.TID 0000.0001) //     91 +++.+++++++++++++++++++++++++++++++++++++++++++++++++.++
(PID.TID 0000.0001) //     90 +++.+++++++++++++++++++++++++++++++++++++++++++++++++.++
(PID.TID 0000.0001) //     89 +++.+++++++++++++++++++++++++++++++++++++++++++++++++.++
(PID.TID 0000.0001) //     88 +++.+++++++++++++++++++++++++++++++++++++++++++++++++.++
(PID.TID 0000.0001) //     87 +++.+++++++++++++++++++++++++++++++++++++++++++++++++.++
(PID.TID 0000.0001) //     86 +++.+++++++++++++++++++++++++++++++++++++++++++++++++.++
(PID.TID 0000.0001) //     85 +++.+++++++++++++++++++++++++++++++++++++++++++++++++.++
(PID.TID 0000.0001) //     84 +++.+++++++++++++++++++++++++++++++++++++++++++++++++.++
(PID.TID 0000.0001) //     83 +++.+++++++++++++++++++++++++++++++++++++++++++++++++.++
(PID.TID 0000.0001) //     82 +++.+++++++++++++++++++++++++++++++++++++++++++++++++.++
(PID.TID 0000.0001) //     81 +++.+++++++++++++++++++++++++++++++++++++++++++++++++.++
(PID.TID 0000.0001) //     80 +++.+++++++++++++++++++++++++++++++++++++++++++++++++.++
(PID.TID 0000.0001) //     79 +++.+++++++++++++++++++++++++++++++++++++++++++++++++.++
(PID.TID 0000.0001) //     78 +++.+++++++++++++++++++++++++++++++++++++++++++++++++.++
(PID.TID 0000.0001) //     77 +++.+++++++++++++++++++++++++++++++++++++++++++++++++.++
(PID.TID 0000.0001) //     76 +++.+++++++++++++++++++++++++++++++++++++++++++++++++.++
(PID.TID 0000.0001) //     75 +++.+++++++++++++++++++++++++++++++++++++++++++++++++.++
(PID.TID 0000.0001) //     74 +++.+++++++++++++++++++++++++++++++++++++++++++++++++.++
(PID.TID 0000.0001) //     73 +++.+++++++++++++++++++++++++++++++++++++++++++++++++.++
(PID.TID 0000.0001) //     72 +++.+++++++++++++++++++++++++++++++++++++++++++++++++.++
(PID.TID 0000.0001) //     71 +++.+++++++++++++++++++++++++++++++++++++++++++++++++.++
(PID.TID 0000.0001) //     70 +++.+++++++++++++++++++++++++++++++++++++++++++++++++.++
(PID.TID 0000.0001) //     69 +++.+++++++++++++++++++++++++++++++++++++++++++++++++.++
(PID.TID 0000.0001) //     68 +++.+++++++++++++++++++++++++++++++++++++++++++++++++.++
(PID.TID 0000.0001) //     67 +++.+++++++++++++++++++++++++++++++++++++++++++++++++.++
(PID.TID 0000.0001) //     66 +++.+++++++++++++++++++++++++++++++++++++++++++++++++.++
(PID.TID 0000.0001) //     65 +++.+++++++++++++++++++++++++++++++++++++++++++++++++.++
(PID.TID 0000.0001) //     64 +++.+++++++++++++++++++++++++++++++++++++++++++++++++.++
(PID.TID 0000.0001) //     63 +++.+++++++++++++++++++++++++++++++++++++++++++++++++.++
(PID.TID 0000.0001) //     62 +++.+++++++++++++++++++++++++++++++++++++++++++++++++.++
(PID.TID 0000.0001) //     61 +++.+++++++++++++++++++++++++++++++++++++++++++++++++.++
(PID.TID 0000.0001) //     60 +++.+++++++++++++++++++++++++++++++++++++++++++++++++.++
(PID.TID 0000.0001) //     59 +++.+++++++++++++++++++++++++++++++++++++++++++++++++.++
(PID.TID 0000.0001) //     58 +++.+++++++++++++++++++++++++++++++++++++++++++++++++.++
(PID.TID 0000.0001) //     57 +++.+++++++++++++++++++++++++++++++++++++++++++++++++.++
(PID.TID 0000.0001) //     56 +++.+++++++++++++++++++++++++++++++++++++++++++++++++.++
(PID.TID 0000.0001) //     55 +++.+++++++++++++++++++++++++++++++++++++++++++++++++.++
(PID.TID 0000.0001) //     54 +++.+++++++++++++++++++++++++++++++++++++++++++++++++.++
(PID.TID 0000.0001) //     53 +++.+++++++++++++++++++++++++++++++++++++++++++++++++.++
(PID.TID 0000.0001) //     52 +++.+++++++++++++++++++++++++++++++++++++++++++++++++.++
(PID.TID 0000.0001) //     51 +++.+++++++++++++++++++++++++++++++++++++++++++++++++.++
(PID.TID 0000.0001) //     50 +++.+++++++++++++++++++++++++++++++++++++++++++++++++.++
(PID.TID 0000.0001) //     49 +++.+++++++++++++++++++++++++++++++++++++++++++++++++.++
(PID.TID 0000.0001) //     48 +++.+++++++++++++++++++++++++++++++++++++++++++++++++.++
(PID.TID 0000.0001) //     53 +++.+++++++++++++++++++++++++++++++++++++++++++++++++.++
(PID.TID 0000.0001) //     52 +++.+++++++++++++++++++++++++++++++++++++++++++++++++.++
(PID.TID 0000.0001) //     51 +++.+++++++++++++++++++++++++++++++++++++++++++++++++.++
(PID.TID 0000.0001) //     50 +++.+++++++++++++++++++++++++++++++++++++++++++++++++.++
(PID.TID 0000.0001) //     49 +++.+++++++++++++++++++++++++++++++++++++++++++++++++.++
(PID.TID 0000.0001) //     48 +++.+++++++++++++++++++++++++++++++++++++++++++++++++.++
(PID.TID 0000.0001) //     47 +++.+++++++++++++++++++++++++++++++++++++++++++++++++.++
(PID.TID 0000.0001) //     46 +++.+++++++++++++++++++++++++++++++++++++++++++++++++.++
(PID.TID 0000.0001) //     45 +++.+++++++++++++++++++++++++++++++++++++++++++++++++.++
(PID.TID 0000.0001) //     44 +++.+++++++++++++++++++++++++++++++++++++++++++++++++.++
(PID.TID 0000.0001) //     43 +++.+++++++++++++++++++++++++++++++++++++++++++++++++.++
(PID.TID 0000.0001) //     42 +++.+++++++++++++++++++++++++++++++++++++++++++++++++.++
(PID.TID 0000.0001) //     41 +++.+++++++++++++++++++++++++++++++++++++++++++++++++.++
(PID.TID 0000.0001) //     40 +++.+++++++++++++++++++++++++++++++++++++++++++++++++.++
(PID.TID 0000.0001) //     39 zzz.zzzzzzzzzzzzzzzzzzzzzzzzzzzzzzzzzzzzzzzzzzzzzzzzz.zz
(PID.TID 0000.0001) //     38 yyy.yyyyyyyyyyyyyyyyyyyyyyyyyyyyyyyyyyyyyyyyyyyyyyyyy.yy
(PID.TID 0000.0001) //     37 yyy.yyyyyyyyyyyyyyyyyyyyyyyyyyyyyyyyyyyyyyyyyyyyyyyyy.yy
(PID.TID 0000.0001) //     36 xxx.xxxxxxxxxxxxxxxxxxxxxxxxxxxxxxxxxxxxxxxxxxxxxxxxx.xx
(PID.TID 0000.0001) //     35 www.wwwwwwwwwwwwwwwwwwwwwwwwwwwwwwwwwwwwwwwwwwwwwwwww.ww
(PID.TID 0000.0001) //     34 vvv.vvvvvvvvvvvvvvvvvvvvvvvvvvvvvvvvvvvvvvvvvvvvvvvvv.vv
(PID.TID 0000.0001) //     33 vvv.vvvvvvvvvvvvvvvvvvvvvvvvvvvvvvvvvvvvvvvvvvvvvvvvv.vv
(PID.TID 0000.0001) //     32 uuu.uuuuuuuuuuuuuuuuuuuuuuuuuuuuuuuuuuuuuuuuuuuuuuuuu.uu
(PID.TID 0000.0001) //     31 ttt.ttttttttttttttttttttttttttttttttttttttttttttttttt.tt
(PID.TID 0000.0001) //     30 ttt.ttttttttttttttttttttttttttttttttttttttttttttttttt.tt
(PID.TID 0000.0001) //     29 sss.sssssssssssssssssssssssssssssssssssssssssssssssss.ss
(PID.TID 0000.0001) //     28 rrr.rrrrrrrrrrrrrrrrrrrrrrrrrrrrrrrrrrrrrrrrrrrrrrrrr.rr
(PID.TID 0000.0001) //     27 rrr.rrrrrrrrrrrrrrrrrrrrrrrrrrrrrrrrrrrrrrrrrrrrrrrrr.rr
(PID.TID 0000.0001) //     26 qqq.qqqqqqqqqqqqqqqqqqqqqqqqqqqqqqqqqqqqqqqqqqqqqqqqq.qq
(PID.TID 0000.0001) //     25 ppp.ppppppppppppppppppppppppppppppppppppppppppppppppp.pp
(PID.TID 0000.0001) //     24 ooo.ooooooooooooooooooooooooooooooooooooooooooooooooo.oo
(PID.TID 0000.0001) //     23 ooo.ooooooooooooooooooooooooooooooooooooooooooooooooo.oo
(PID.TID 0000.0001) //     22 nnn.nnnnnnnnnnnnnnnnnnnnnnnnnnnnnnnnnnnnnnnnnnnnnnnnn.nn
(PID.TID 0000.0001) //     21 mmm.mmmmmmmmmmmmmmmmmmmmmmmmmmmmmmmmmmmmmmmmmmmmmmmmm.mm
(PID.TID 0000.0001) //     20 mmm.mmmmmmmmmmmmmmmmmmmmmmmmmmmmmmmmmmmmmmmmmmmmmmmmm.mm
(PID.TID 0000.0001) //     19 lll.lllllllllllllllllllllllllllllllllllllllllllllllll.ll
(PID.TID 0000.0001) //     18 kkk.kkkkkkkkkkkkkkkkkkkkkkkkkkkkkkkkkkkkkkkkkkkkkkkkk.kk
(PID.TID 0000.0001) //     17 kkk.kkkkkkkkkkkkkkkkkkkkkkkkkkkkkkkkkkkkkkkkkkkkkkkkk.kk
(PID.TID 0000.0001) //     16 jjj.jjjjjjjjjjjjjjjjjjjjjjjjjjjjjjjjjjjjjjjjjjjjjjjjj.jj
(PID.TID 0000.0001) //     15 iii.iiiiiiiiiiiiiiiiiiiiiiiiiiiiiiiiiiiiiiiiiiiiiiiii.ii
(PID.TID 0000.0001) //     14 hhh.hhhhhhhhhhhhhhhhhhhhhhhhhhhhhhhhhhhhhhhhhhhhhhhhh.hh
(PID.TID 0000.0001) //     13 hhh.hhhhhhhhhhhhhhhhhhhhhhhhhhhhhhhhhhhhhhhhhhhhhhhhh.hh
(PID.TID 0000.0001) //     12 ggg.ggggggggggggggggggggggggggggggggggggggggggggggggg.gg
(PID.TID 0000.0001) //     11 fff.fffffffffffffffffffffffffffffffffffffffffffffffff.ff
(PID.TID 0000.0001) //     10 fff.fffffffffffffffffffffffffffffffffffffffffffffffff.ff
(PID.TID 0000.0001) //      9 eee.eeeeeeeeeeeeeeeeeeeeeeeeeeeeeeeeeeeeeeeeeeeeeeeee.ee
(PID.TID 0000.0001) //      8 ddd.ddddddddddddddddddddddddddddddddddddddddddddddddd.dd
(PID.TID 0000.0001) //      7 ddd.ddddddddddddddddddddddddddddddddddddddddddddddddd.dd
(PID.TID 0000.0001) //      6 ccc.ccccccccccccccccccccccccccccccccccccccccccccccccc.cc
(PID.TID 0000.0001) //      5 bbb.bbbbbbbbbbbbbbbbbbbbbbbbbbbbbbbbbbbbbbbbbbbbbbbbb.bb
(PID.TID 0000.0001) //      4 aaa.aaaaaaaaaaaaaaaaaaaaaaaaaaaaaaaaaaaaaaaaaaaaaaaaa.aa
(PID.TID 0000.0001) //      3 aaa.aaaaaaaaaaaaaaaaaaaaaaaaaaaaaaaaaaaaaaaaaaaaaaaaa.aa
(PID.TID 0000.0001) //      2 ---.-------------------------------------------------.--
(PID.TID 0000.0001) //      1 ........................................................
(PID.TID 0000.0001) //      0 +++.+++++++++++++++++++++++++++++++++++++++++++++++++.++
(PID.TID 0000.0001) //     -1 +++.+++++++++++++++++++++++++++++++++++++++++++++++++.++
(PID.TID 0000.0001) //     -2 +++.+++++++++++++++++++++++++++++++++++++++++++++++++.++
(PID.TID 0000.0001) // =======================================================
(PID.TID 0000.0001) // END OF FIELD                                          =
(PID.TID 0000.0001) // =======================================================
(PID.TID 0000.0001) 
(PID.TID 0000.0001) // =======================================================
(PID.TID 0000.0001) // Field hFacC at iteration          1
(PID.TID 0000.0001) // CMIN =          1.000000000000000E+32
(PID.TID 0000.0001) // CMAX =         -1.000000000000000E+32
(PID.TID 0000.0001) // CINT =          0.000000000000000E+00
(PID.TID 0000.0001) // SYMBOLS (CMIN->CMAX): -abcdefghijklmnopqrstuvwxyz+
(PID.TID 0000.0001) //                  0.0: .
(PID.TID 0000.0001) // RANGE I (Lo:Hi:Step):(  -2:  53:   1)
(PID.TID 0000.0001) // RANGE J (Lo:Hi:Step):( 103:  -2:  -1)
(PID.TID 0000.0001) // RANGE K (Lo:Hi:Step):(   1:   1:   1)
(PID.TID 0000.0001) // =======================================================
(PID.TID 0000.0001) // =======================================================
(PID.TID 0000.0001) // END OF FIELD                                          =
(PID.TID 0000.0001) // =======================================================
(PID.TID 0000.0001) 
(PID.TID 0000.0001) // =======================================================
(PID.TID 0000.0001) // Field hFacW at iteration          1
(PID.TID 0000.0001) // CMIN =          1.000000000000000E+32
(PID.TID 0000.0001) // CMAX =         -1.000000000000000E+32
(PID.TID 0000.0001) // CINT =          0.000000000000000E+00
(PID.TID 0000.0001) // SYMBOLS (CMIN->CMAX): -abcdefghijklmnopqrstuvwxyz+
(PID.TID 0000.0001) //                  0.0: .
(PID.TID 0000.0001) // RANGE I (Lo:Hi:Step):(  -2:  53:   1)
(PID.TID 0000.0001) // RANGE J (Lo:Hi:Step):( 103:  -2:  -1)
(PID.TID 0000.0001) // RANGE K (Lo:Hi:Step):(   1:   1:   1)
(PID.TID 0000.0001) // =======================================================
(PID.TID 0000.0001) // =======================================================
(PID.TID 0000.0001) // END OF FIELD                                          =
(PID.TID 0000.0001) // =======================================================
(PID.TID 0000.0001) 
(PID.TID 0000.0001) // =======================================================
(PID.TID 0000.0001) // Field hFacS at iteration          1
(PID.TID 0000.0001) // CMIN =          1.000000000000000E+32
(PID.TID 0000.0001) // CMAX =         -1.000000000000000E+32
(PID.TID 0000.0001) // CINT =          0.000000000000000E+00
(PID.TID 0000.0001) // SYMBOLS (CMIN->CMAX): -abcdefghijklmnopqrstuvwxyz+
(PID.TID 0000.0001) //                  0.0: .
(PID.TID 0000.0001) // RANGE I (Lo:Hi:Step):(  -2:  53:   1)
(PID.TID 0000.0001) // RANGE J (Lo:Hi:Step):( 103:  -2:  -1)
(PID.TID 0000.0001) // RANGE K (Lo:Hi:Step):(   1:   1:   1)
(PID.TID 0000.0001) // =======================================================
(PID.TID 0000.0001) // =======================================================
(PID.TID 0000.0001) // END OF FIELD                                          =
(PID.TID 0000.0001) // =======================================================
(PID.TID 0000.0001) 
(PID.TID 0000.0001) 
(PID.TID 0000.0001) // ===================================
(PID.TID 0000.0001) // GAD parameters :
(PID.TID 0000.0001) // ===================================
(PID.TID 0000.0001) tempAdvScheme =   /* Temp. Horiz.Advection scheme selector */
(PID.TID 0000.0001)                       2
(PID.TID 0000.0001)     ;
(PID.TID 0000.0001) tempVertAdvScheme =   /* Temp. Vert. Advection scheme selector */
(PID.TID 0000.0001)                       2
(PID.TID 0000.0001)     ;
(PID.TID 0000.0001) tempMultiDimAdvec =   /* use Muti-Dim Advec method for Temp */
(PID.TID 0000.0001)                   F
(PID.TID 0000.0001)     ;
(PID.TID 0000.0001) tempSOM_Advection = /* use 2nd Order Moment Advection for Temp */
(PID.TID 0000.0001)                   F
(PID.TID 0000.0001)     ;
(PID.TID 0000.0001) AdamsBashforthGt = /* apply Adams-Bashforth extrapolation on Gt */
(PID.TID 0000.0001)                   T
(PID.TID 0000.0001)     ;
(PID.TID 0000.0001) AdamsBashforth_T = /* apply Adams-Bashforth extrapolation on Temp */
(PID.TID 0000.0001)                   F
(PID.TID 0000.0001)     ;
(PID.TID 0000.0001) saltAdvScheme =   /* Salt. Horiz.advection scheme selector */
(PID.TID 0000.0001)                       2
(PID.TID 0000.0001)     ;
(PID.TID 0000.0001) saltVertAdvScheme =   /* Salt. Vert. Advection scheme selector */
(PID.TID 0000.0001)                       2
(PID.TID 0000.0001)     ;
(PID.TID 0000.0001) saltMultiDimAdvec =   /* use Muti-Dim Advec method for Salt */
(PID.TID 0000.0001)                   F
(PID.TID 0000.0001)     ;
(PID.TID 0000.0001) saltSOM_Advection = /* use 2nd Order Moment Advection for Salt */
(PID.TID 0000.0001)                   F
(PID.TID 0000.0001)     ;
(PID.TID 0000.0001) AdamsBashforthGs = /* apply Adams-Bashforth extrapolation on Gs */
(PID.TID 0000.0001)                   T
(PID.TID 0000.0001)     ;
(PID.TID 0000.0001) AdamsBashforth_S = /* apply Adams-Bashforth extrapolation on Salt */
(PID.TID 0000.0001)                   F
(PID.TID 0000.0001)     ;
(PID.TID 0000.0001) // ===================================
(PID.TID 0000.0001)  MDS_READ_FIELD: opening global file: phi0surf.exp1.jmd95z
(PID.TID 0000.0001) GAD_CHECK: #define ALLOW_GENERIC_ADVDIFF
(PID.TID 0000.0001) SHELFICE_CHECK: #define ALLOW_SHELFICE
(PID.TID 0000.0001) %MON fCori_max                    =  -1.3709057042516E-04
(PID.TID 0000.0001) %MON fCori_min                    =  -1.4360464034757E-04
(PID.TID 0000.0001) %MON fCori_mean                   =  -1.4069429304699E-04
(PID.TID 0000.0001) %MON fCori_sd                     =   1.9069739624987E-06
(PID.TID 0000.0001) %MON fCoriG_max                   =  -1.3713394327439E-04
(PID.TID 0000.0001) %MON fCoriG_min                   =  -1.4362679550910E-04
(PID.TID 0000.0001) %MON fCoriG_mean                  =  -1.4072713798624E-04
(PID.TID 0000.0001) %MON fCoriG_sd                    =   1.9008093726821E-06
(PID.TID 0000.0001) %MON fCoriCos_max                 =   4.9761447480159E-05
(PID.TID 0000.0001) %MON fCoriCos_min                 =   2.5450607565678E-05
(PID.TID 0000.0001) %MON fCoriCos_mean                =   3.7698922201606E-05
(PID.TID 0000.0001) %MON fCoriCos_sd                  =   7.0920218535054E-06
(PID.TID 0000.0001) INI_CG2D: CG2D normalisation factor =  1.0404366262810520E-03
(PID.TID 0000.0001) 
(PID.TID 0000.0001) CONFIG_CHECK: OK
(PID.TID 0000.0001) // =======================================================
(PID.TID 0000.0001) // Model configuration
(PID.TID 0000.0001) // =======================================================
(PID.TID 0000.0001) //
(PID.TID 0000.0001) // "Physical" paramters ( PARM01 in namelist )
(PID.TID 0000.0001) //
(PID.TID 0000.0001) buoyancyRelation = /* Type of relation to get Buoyancy */
(PID.TID 0000.0001)               'OCEANIC'
(PID.TID 0000.0001)     ;
(PID.TID 0000.0001) fluidIsAir  =  /* fluid major constituent is Air */
(PID.TID 0000.0001)                   F
(PID.TID 0000.0001)     ;
(PID.TID 0000.0001) fluidIsWater=  /* fluid major constituent is Water */
(PID.TID 0000.0001)                   T
(PID.TID 0000.0001)     ;
(PID.TID 0000.0001) usingPCoords =  /* use p (or p*) vertical coordinate */
(PID.TID 0000.0001)                   F
(PID.TID 0000.0001)     ;
(PID.TID 0000.0001) usingZCoords =  /* use z (or z*) vertical coordinate */
(PID.TID 0000.0001)                   T
(PID.TID 0000.0001)     ;
(PID.TID 0000.0001) tRef =   /* Reference temperature profile ( oC or K ) */
(PID.TID 0000.0001)    30 @ -1.900000000000000E+00              /* K =  1: 30 */
(PID.TID 0000.0001)     ;
(PID.TID 0000.0001) sRef =   /* Reference salinity profile ( psu ) */
(PID.TID 0000.0001)    30 @  3.440000000000000E+01              /* K =  1: 30 */
(PID.TID 0000.0001)     ;
(PID.TID 0000.0001) viscAh =   /* Lateral eddy viscosity ( m^2/s ) */
(PID.TID 0000.0001)                 6.000000000000000E+02
(PID.TID 0000.0001)     ;
(PID.TID 0000.0001) viscAhMax =   /* Maximum lateral eddy viscosity ( m^2/s ) */
(PID.TID 0000.0001)                 1.000000000000000E+21
(PID.TID 0000.0001)     ;
(PID.TID 0000.0001) viscAhGrid =   /* Grid dependent lateral eddy viscosity ( non-dim. ) */
(PID.TID 0000.0001)                 0.000000000000000E+00
(PID.TID 0000.0001)     ;
(PID.TID 0000.0001) useFullLeith =   /* Use Full Form of Leith Viscosity on/off flag*/
(PID.TID 0000.0001)                   F
(PID.TID 0000.0001)     ;
(PID.TID 0000.0001) useStrainTensionVisc =   /* Use StrainTension Form of Viscous Operator on/off flag*/
(PID.TID 0000.0001)                   F
(PID.TID 0000.0001)     ;
(PID.TID 0000.0001) useAreaViscLength =   /* Use area for visc length instead of geom. mean*/
(PID.TID 0000.0001)                   F
(PID.TID 0000.0001)     ;
(PID.TID 0000.0001) viscC2leith = /* Leith harmonic visc. factor (on grad(vort),non-dim.) */
(PID.TID 0000.0001)                 0.000000000000000E+00
(PID.TID 0000.0001)     ;
(PID.TID 0000.0001) viscC2leithD = /* Leith harmonic viscosity factor (on grad(div),non-dim.) */
(PID.TID 0000.0001)                 0.000000000000000E+00
(PID.TID 0000.0001)     ;
(PID.TID 0000.0001) viscC2smag =   /* Smagorinsky harmonic viscosity factor (non-dim.) */
(PID.TID 0000.0001)                 0.000000000000000E+00
(PID.TID 0000.0001)     ;
(PID.TID 0000.0001) viscA4 =   /* Lateral biharmonic viscosity ( m^4/s ) */
(PID.TID 0000.0001)                 0.000000000000000E+00
(PID.TID 0000.0001)     ;
(PID.TID 0000.0001) viscA4Max =   /* Maximum biharmonic viscosity ( m^2/s ) */
(PID.TID 0000.0001)                 1.000000000000000E+21
(PID.TID 0000.0001)     ;
(PID.TID 0000.0001) viscA4Grid =   /* Grid dependent biharmonic viscosity ( non-dim. ) */
(PID.TID 0000.0001)                 0.000000000000000E+00
(PID.TID 0000.0001)     ;
(PID.TID 0000.0001) viscC4leith = /* Leith biharm viscosity factor (on grad(vort), non-dim.) */
(PID.TID 0000.0001)                 0.000000000000000E+00
(PID.TID 0000.0001)     ;
(PID.TID 0000.0001) viscC4leithD = /* Leith biharm viscosity factor (on grad(div), non-dim.) */
(PID.TID 0000.0001)                 0.000000000000000E+00
(PID.TID 0000.0001)     ;
(PID.TID 0000.0001) viscC4Smag = /* Smagorinsky biharm viscosity factor (non-dim) */
(PID.TID 0000.0001)                 0.000000000000000E+00
(PID.TID 0000.0001)     ;
(PID.TID 0000.0001) no_slip_sides =  /* Viscous BCs: No-slip sides */
(PID.TID 0000.0001)                   F
(PID.TID 0000.0001)     ;
(PID.TID 0000.0001) sideDragFactor = /* side-drag scaling factor (non-dim) */
(PID.TID 0000.0001)                 2.000000000000000E+00
(PID.TID 0000.0001)     ;
(PID.TID 0000.0001) viscAr =   /* Vertical eddy viscosity ( m^2/s ) */
(PID.TID 0000.0001)                 1.000000000000000E-03
(PID.TID 0000.0001)     ;
(PID.TID 0000.0001) no_slip_bottom =  /* Viscous BCs: No-slip bottom */
(PID.TID 0000.0001)                   T
(PID.TID 0000.0001)     ;
(PID.TID 0000.0001) bottomDragLinear = /* linear bottom-drag coefficient ( m/s ) */
(PID.TID 0000.0001)                 0.000000000000000E+00
(PID.TID 0000.0001)     ;
(PID.TID 0000.0001) bottomDragQuadratic = /* quadratic bottom-drag coeff. ( m/m ) */
(PID.TID 0000.0001)                 2.500000000000000E-03
(PID.TID 0000.0001)     ;
(PID.TID 0000.0001) diffKhT =   /* Laplacian diffusion of heat laterally ( m^2/s ) */
(PID.TID 0000.0001)                 1.000000000000000E+02
(PID.TID 0000.0001)     ;
(PID.TID 0000.0001) diffK4T =   /* Biharmonic diffusion of heat laterally ( m^4/s ) */
(PID.TID 0000.0001)                 0.000000000000000E+00
(PID.TID 0000.0001)     ;
(PID.TID 0000.0001) diffKhS =   /* Laplacian diffusion of salt laterally ( m^2/s ) */
(PID.TID 0000.0001)                 1.000000000000000E+02
(PID.TID 0000.0001)     ;
(PID.TID 0000.0001) diffK4S =   /* Biharmonic diffusion of salt laterally ( m^4/s ) */
(PID.TID 0000.0001)                 0.000000000000000E+00
(PID.TID 0000.0001)     ;
(PID.TID 0000.0001) diffKrNrT = /* vertical profile of vertical diffusion of Temp ( m^2/s )*/
(PID.TID 0000.0001)    30 @  5.000000000000000E-05              /* K =  1: 30 */
(PID.TID 0000.0001)     ;
(PID.TID 0000.0001) diffKrNrS = /* vertical profile of vertical diffusion of Salt ( m^2/s )*/
(PID.TID 0000.0001)    30 @  5.000000000000000E-05              /* K =  1: 30 */
(PID.TID 0000.0001)     ;
(PID.TID 0000.0001) diffKrBL79surf = /* Surface diffusion for Bryan and Lewis 79 ( m^2/s ) */
(PID.TID 0000.0001)                 0.000000000000000E+00
(PID.TID 0000.0001)     ;
(PID.TID 0000.0001) diffKrBL79deep = /* Deep diffusion for Bryan and Lewis 1979 ( m^2/s ) */
(PID.TID 0000.0001)                 0.000000000000000E+00
(PID.TID 0000.0001)     ;
(PID.TID 0000.0001) diffKrBL79scl = /* Depth scale for Bryan and Lewis 1979 ( m ) */
(PID.TID 0000.0001)                 2.000000000000000E+02
(PID.TID 0000.0001)     ;
(PID.TID 0000.0001) diffKrBL79Ho = /* Turning depth for Bryan and Lewis 1979 ( m ) */
(PID.TID 0000.0001)                -2.000000000000000E+03
(PID.TID 0000.0001)     ;
(PID.TID 0000.0001) ivdc_kappa = /* Implicit Vertical Diffusivity for Convection ( m^2/s ) */
(PID.TID 0000.0001)                 0.000000000000000E+00
(PID.TID 0000.0001)     ;
(PID.TID 0000.0001) hMixCriteria=  /* Criteria for mixed-layer diagnostic */
(PID.TID 0000.0001)                -8.000000000000000E-01
(PID.TID 0000.0001)     ;
(PID.TID 0000.0001) eosType =  /* Type of Equation of State */
(PID.TID 0000.0001)               'JMD95Z'
(PID.TID 0000.0001)     ;
(PID.TID 0000.0001) tAlpha =   /* Linear EOS thermal expansion coefficient ( 1/oC ) */
(PID.TID 0000.0001)                 1.234567000000000E+05
(PID.TID 0000.0001)     ;
(PID.TID 0000.0001) sBeta =   /* Linear EOS haline contraction coefficient ( 1/psu ) */
(PID.TID 0000.0001)                 1.234567000000000E+05
(PID.TID 0000.0001)     ;
(PID.TID 0000.0001) rhonil =   /* Reference density ( kg/m^3 ) */
(PID.TID 0000.0001)                 1.030000000000000E+03
(PID.TID 0000.0001)     ;
(PID.TID 0000.0001) rhoConst =   /* Reference density ( kg/m^3 ) */
(PID.TID 0000.0001)                 1.030000000000000E+03
(PID.TID 0000.0001)     ;
(PID.TID 0000.0001) rhoFacC = /* normalized Reference density @ cell-Center (-) */
(PID.TID 0000.0001)    30 @  1.000000000000000E+00              /* K =  1: 30 */
(PID.TID 0000.0001)     ;
(PID.TID 0000.0001) rhoFacF = /* normalized Reference density @ W-Interface (-) */
(PID.TID 0000.0001)    31 @  1.000000000000000E+00              /* K =  1: 31 */
(PID.TID 0000.0001)     ;
(PID.TID 0000.0001) rhoConstFresh =   /* Reference density ( kg/m^3 ) */
(PID.TID 0000.0001)                 1.030000000000000E+03
(PID.TID 0000.0001)     ;
(PID.TID 0000.0001) gravity =   /* Gravitational acceleration ( m/s^2 ) */
(PID.TID 0000.0001)                 9.810000000000000E+00
(PID.TID 0000.0001)     ;
(PID.TID 0000.0001) gBaro =   /* Barotropic gravity ( m/s^2 ) */
(PID.TID 0000.0001)                 9.810000000000000E+00
(PID.TID 0000.0001)     ;
(PID.TID 0000.0001) rotationPeriod =   /* Rotation Period ( s ) */
(PID.TID 0000.0001)                 8.616400000000000E+04
(PID.TID 0000.0001)     ;
(PID.TID 0000.0001) omega =   /* Angular velocity ( rad/s ) */
(PID.TID 0000.0001)                 7.292123516990375E-05
(PID.TID 0000.0001)     ;
(PID.TID 0000.0001) f0 =   /* Reference coriolis parameter ( 1/s ) */
(PID.TID 0000.0001)                 1.000000000000000E-04
(PID.TID 0000.0001)     ;
(PID.TID 0000.0001) beta =   /* Beta ( 1/(m.s) ) */
(PID.TID 0000.0001)                 9.999999999999999E-12
(PID.TID 0000.0001)     ;
(PID.TID 0000.0001) freeSurfFac =   /* Implicit free surface factor */
(PID.TID 0000.0001)                 1.000000000000000E+00
(PID.TID 0000.0001)     ;
(PID.TID 0000.0001) implicitFreeSurface =   /* Implicit free surface on/off flag */
(PID.TID 0000.0001)                   T
(PID.TID 0000.0001)     ;
(PID.TID 0000.0001) rigidLid =   /* Rigid lid on/off flag */
(PID.TID 0000.0001)                   F
(PID.TID 0000.0001)     ;
(PID.TID 0000.0001) implicSurfPress =   /* Surface Pressure implicit factor (0-1)*/
(PID.TID 0000.0001)                 1.000000000000000E+00
(PID.TID 0000.0001)     ;
(PID.TID 0000.0001) implicDiv2Dflow =   /* Barot. Flow Div. implicit factor (0-1)*/
(PID.TID 0000.0001)                 1.000000000000000E+00
(PID.TID 0000.0001)     ;
(PID.TID 0000.0001) exactConserv =   /* Exact Volume Conservation on/off flag*/
(PID.TID 0000.0001)                   T
(PID.TID 0000.0001)     ;
(PID.TID 0000.0001) linFSConserveTr =   /* Tracer correction for Lin Free Surface on/off flag*/
(PID.TID 0000.0001)                   F
(PID.TID 0000.0001)     ;
(PID.TID 0000.0001) uniformLin_PhiSurf =   /* use uniform Bo_surf on/off flag*/
(PID.TID 0000.0001)                   T
(PID.TID 0000.0001)     ;
(PID.TID 0000.0001) nonlinFreeSurf =   /* Non-linear Free Surf. options (-1,0,1,2,3)*/
(PID.TID 0000.0001)                       0
(PID.TID 0000.0001)     ;
(PID.TID 0000.0001)      -1,0= Off ; 1,2,3= On, 2=+rescale gU,gV, 3=+update cg2d solv.
(PID.TID 0000.0001) hFacInf =   /* lower threshold for hFac (nonlinFreeSurf only)*/
(PID.TID 0000.0001)                 2.000000000000000E-01
(PID.TID 0000.0001)     ;
(PID.TID 0000.0001) hFacSup =   /* upper threshold for hFac (nonlinFreeSurf only)*/
(PID.TID 0000.0001)                 2.000000000000000E+00
(PID.TID 0000.0001)     ;
(PID.TID 0000.0001) select_rStar =   /* r* Coordinate options (not yet implemented)*/
(PID.TID 0000.0001)                       0
(PID.TID 0000.0001)     ;
(PID.TID 0000.0001) useRealFreshWaterFlux =   /* Real Fresh Water Flux on/off flag*/
(PID.TID 0000.0001)                   F
(PID.TID 0000.0001)     ;
(PID.TID 0000.0001) convertFW2Salt = /* convert F.W. Flux to Salt Flux (-1=use local S)(ppt)*/
(PID.TID 0000.0001)                 3.340000000000000E+01
(PID.TID 0000.0001)     ;
(PID.TID 0000.0001) use3Dsolver = /* use 3-D pressure solver on/off flag */
(PID.TID 0000.0001)                   F
(PID.TID 0000.0001)     ;
(PID.TID 0000.0001) nonHydrostatic =  /* Non-Hydrostatic on/off flag */
(PID.TID 0000.0001)                   F
(PID.TID 0000.0001)     ;
(PID.TID 0000.0001) nh_Am2 = /* Non-Hydrostatic terms scaling factor */
(PID.TID 0000.0001)                 1.000000000000000E+00
(PID.TID 0000.0001)     ;
(PID.TID 0000.0001) quasiHydrostatic = /* Quasi-Hydrostatic on/off flag */
(PID.TID 0000.0001)                   F
(PID.TID 0000.0001)     ;
(PID.TID 0000.0001) momStepping =  /* Momentum equation on/off flag */
(PID.TID 0000.0001)                   T
(PID.TID 0000.0001)     ;
(PID.TID 0000.0001) vectorInvariantMomentum= /* Vector-Invariant Momentum on/off */
(PID.TID 0000.0001)                   F
(PID.TID 0000.0001)     ;
(PID.TID 0000.0001) momAdvection =  /* Momentum advection on/off flag */
(PID.TID 0000.0001)                   T
(PID.TID 0000.0001)     ;
(PID.TID 0000.0001) momViscosity =  /* Momentum viscosity on/off flag */
(PID.TID 0000.0001)                   T
(PID.TID 0000.0001)     ;
(PID.TID 0000.0001) momImplVertAdv =/* Momentum implicit vert. advection on/off*/
(PID.TID 0000.0001)                   F
(PID.TID 0000.0001)     ;
(PID.TID 0000.0001) implicitViscosity = /* Implicit viscosity on/off flag */
(PID.TID 0000.0001)                   F
(PID.TID 0000.0001)     ;
(PID.TID 0000.0001) metricTerms =  /* metric-Terms on/off flag */
(PID.TID 0000.0001)                   T
(PID.TID 0000.0001)     ;
(PID.TID 0000.0001) useNHMTerms = /* Non-Hydrostatic Metric-Terms on/off */
(PID.TID 0000.0001)                   F
(PID.TID 0000.0001)     ;
(PID.TID 0000.0001) useConstantF =  /* use Constant f0 Coriolis flag */
(PID.TID 0000.0001)                   F
(PID.TID 0000.0001)     ;
(PID.TID 0000.0001) useBetaPlaneF = /* use Beta-Plane Coriolis flag */
(PID.TID 0000.0001)                   F
(PID.TID 0000.0001)     ;
(PID.TID 0000.0001) useSphereF  =   /* use Spherical Coriolis flag */
(PID.TID 0000.0001)                   T
(PID.TID 0000.0001)     ;
(PID.TID 0000.0001) use3dCoriolis = /* 3-D Coriolis on/off flag */
(PID.TID 0000.0001)                   F
(PID.TID 0000.0001)     ;
(PID.TID 0000.0001) useCoriolis =  /* Coriolis on/off flag */
(PID.TID 0000.0001)                   T
(PID.TID 0000.0001)     ;
(PID.TID 0000.0001) useCDscheme =  /* CD scheme on/off flag */
(PID.TID 0000.0001)                   T
(PID.TID 0000.0001)     ;
(PID.TID 0000.0001) useJamartWetPoints= /* Coriolis WetPoints method flag */
(PID.TID 0000.0001)                   F
(PID.TID 0000.0001)     ;
(PID.TID 0000.0001) useJamartMomAdv= /* V.I. Non-linear terms Jamart flag */
(PID.TID 0000.0001)                   F
(PID.TID 0000.0001)     ;
(PID.TID 0000.0001) SadournyCoriolis= /* Sadourny Coriolis discr. flag */
(PID.TID 0000.0001)                   F
(PID.TID 0000.0001)     ;
(PID.TID 0000.0001) upwindVorticity= /* Upwind bias vorticity flag */
(PID.TID 0000.0001)                   F
(PID.TID 0000.0001)     ;
(PID.TID 0000.0001) useAbsVorticity= /* Work with f+zeta in Coriolis */
(PID.TID 0000.0001)                   F
(PID.TID 0000.0001)     ;
(PID.TID 0000.0001) highOrderVorticity= /* High order interp. of vort. flag */
(PID.TID 0000.0001)                   F
(PID.TID 0000.0001)     ;
(PID.TID 0000.0001) upwindShear= /* Upwind vertical Shear advection flag */
(PID.TID 0000.0001)                   F
(PID.TID 0000.0001)     ;
(PID.TID 0000.0001) selectKEscheme= /* Kinetic Energy scheme selector */
(PID.TID 0000.0001)                       0
(PID.TID 0000.0001)     ;
(PID.TID 0000.0001) momForcing =  /* Momentum forcing on/off flag */
(PID.TID 0000.0001)                   T
(PID.TID 0000.0001)     ;
(PID.TID 0000.0001) momPressureForcing =  /* Momentum pressure term on/off flag */
(PID.TID 0000.0001)                   T
(PID.TID 0000.0001)     ;
(PID.TID 0000.0001) implicitIntGravWave= /* Implicit Internal Gravity Wave flag */
(PID.TID 0000.0001)                   F
(PID.TID 0000.0001)     ;
(PID.TID 0000.0001) staggerTimeStep =   /* Stagger time stepping on/off flag */
(PID.TID 0000.0001)                   F
(PID.TID 0000.0001)     ;
(PID.TID 0000.0001) multiDimAdvection =   /* enable/disable Multi-Dim Advection */
(PID.TID 0000.0001)                   T
(PID.TID 0000.0001)     ;
(PID.TID 0000.0001) useMultiDimAdvec =   /* Multi-Dim Advection is/is-not used */
(PID.TID 0000.0001)                   F
(PID.TID 0000.0001)     ;
(PID.TID 0000.0001) implicitDiffusion =/* Implicit Diffusion on/off flag */
(PID.TID 0000.0001)                   F
(PID.TID 0000.0001)     ;
(PID.TID 0000.0001) tempStepping =  /* Temperature equation on/off flag */
(PID.TID 0000.0001)                   T
(PID.TID 0000.0001)     ;
(PID.TID 0000.0001) tempAdvection=  /* Temperature advection on/off flag */
(PID.TID 0000.0001)                   T
(PID.TID 0000.0001)     ;
(PID.TID 0000.0001) tempImplVertAdv =/* Temp. implicit vert. advection on/off */
(PID.TID 0000.0001)                   F
(PID.TID 0000.0001)     ;
(PID.TID 0000.0001) tempForcing  =  /* Temperature forcing on/off flag */
(PID.TID 0000.0001)                   T
(PID.TID 0000.0001)     ;
(PID.TID 0000.0001) saltStepping =  /* Salinity equation on/off flag */
(PID.TID 0000.0001)                   T
(PID.TID 0000.0001)     ;
(PID.TID 0000.0001) saltAdvection=  /* Salinity advection on/off flag */
(PID.TID 0000.0001)                   T
(PID.TID 0000.0001)     ;
(PID.TID 0000.0001) saltImplVertAdv =/* Sali. implicit vert. advection on/off */
(PID.TID 0000.0001)                   F
(PID.TID 0000.0001)     ;
(PID.TID 0000.0001) saltForcing  =  /* Salinity forcing on/off flag */
(PID.TID 0000.0001)                   T
(PID.TID 0000.0001)     ;
(PID.TID 0000.0001)  readBinaryPrec = /* Precision used for reading binary files */
(PID.TID 0000.0001)                      64
(PID.TID 0000.0001)     ;
(PID.TID 0000.0001) writeBinaryPrec = /* Precision used for writing binary files */
(PID.TID 0000.0001)                      32
(PID.TID 0000.0001)     ;
(PID.TID 0000.0001)  globalFiles = /* write "global" (=not per tile) files */
(PID.TID 0000.0001)                   F
(PID.TID 0000.0001)     ;
(PID.TID 0000.0001)  useSingleCpuIO = /* only master MPI process does I/O */
(PID.TID 0000.0001)                   F
(PID.TID 0000.0001)     ;
(PID.TID 0000.0001)  debugMode  =  /* Debug Mode on/off flag */
(PID.TID 0000.0001)                   F
(PID.TID 0000.0001)     ;
(PID.TID 0000.0001)    debLevA  =  /* 1rst level of debugging */
(PID.TID 0000.0001)                       1
(PID.TID 0000.0001)     ;
(PID.TID 0000.0001)    debLevB  =  /* 2nd  level of debugging */
(PID.TID 0000.0001)                       2
(PID.TID 0000.0001)     ;
(PID.TID 0000.0001)  debugLevel =  /* select debugging level */
(PID.TID 0000.0001)                       1
(PID.TID 0000.0001)     ;
(PID.TID 0000.0001) //
(PID.TID 0000.0001) // Elliptic solver(s) paramters ( PARM02 in namelist )
(PID.TID 0000.0001) //
(PID.TID 0000.0001) cg2dMaxIters =   /* Upper limit on 2d con. grad iterations  */
(PID.TID 0000.0001)                    1000
(PID.TID 0000.0001)     ;
(PID.TID 0000.0001) cg2dChkResFreq =   /* 2d con. grad convergence test frequency */
(PID.TID 0000.0001)                       1
(PID.TID 0000.0001)     ;
(PID.TID 0000.0001) cg2dTargetResidual =   /* 2d con. grad target residual  */
(PID.TID 0000.0001)                 1.000000000000000E-13
(PID.TID 0000.0001)     ;
(PID.TID 0000.0001) cg2dTargetResWunit =   /* CG2d target residual [W units] */
(PID.TID 0000.0001)                -1.000000000000000E+00
(PID.TID 0000.0001)     ;
(PID.TID 0000.0001) cg2dPreCondFreq =   /* Freq. for updating cg2d preconditioner */
(PID.TID 0000.0001)                       1
(PID.TID 0000.0001)     ;
(PID.TID 0000.0001) //
(PID.TID 0000.0001) // Time stepping paramters ( PARM03 in namelist )
(PID.TID 0000.0001) //
(PID.TID 0000.0001) deltaTmom =   /* Momentum equation timestep ( s ) */
(PID.TID 0000.0001)                 1.800000000000000E+03
(PID.TID 0000.0001)     ;
(PID.TID 0000.0001) deltaTfreesurf =   /* FreeSurface equation timestep ( s ) */
(PID.TID 0000.0001)                 1.800000000000000E+03
(PID.TID 0000.0001)     ;
(PID.TID 0000.0001) dTtracerLev =   /* Tracer equation timestep ( s ) */
(PID.TID 0000.0001)    30 @  1.800000000000000E+03              /* K =  1: 30 */
(PID.TID 0000.0001)     ;
(PID.TID 0000.0001) deltaTClock  =   /* Model clock timestep ( s ) */
(PID.TID 0000.0001)                 1.800000000000000E+03
(PID.TID 0000.0001)     ;
(PID.TID 0000.0001) cAdjFreq =   /* Convective adjustment interval ( s ) */
(PID.TID 0000.0001)                 1.800000000000000E+03
(PID.TID 0000.0001)     ;
(PID.TID 0000.0001) momForcingOutAB = /* =1: take Momentum Forcing out of Adams-Bash. stepping */
(PID.TID 0000.0001)                       0
(PID.TID 0000.0001)     ;
(PID.TID 0000.0001) tracForcingOutAB = /* =1: take T,S,pTr Forcing out of Adams-Bash. stepping */
(PID.TID 0000.0001)                       0
(PID.TID 0000.0001)     ;
(PID.TID 0000.0001) momDissip_In_AB = /* put Dissipation Tendency in Adams-Bash. stepping */
(PID.TID 0000.0001)                   T
(PID.TID 0000.0001)     ;
(PID.TID 0000.0001) doAB_onGtGs = /* apply AB on Tendencies (rather than on T,S)*/
(PID.TID 0000.0001)                   T
(PID.TID 0000.0001)     ;
(PID.TID 0000.0001) abEps =   /* Adams-Bashforth-2 stabilizing weight */
(PID.TID 0000.0001)                 1.000000000000000E-01
(PID.TID 0000.0001)     ;
(PID.TID 0000.0001) tauCD =   /* CD coupling time-scale ( s ) */
(PID.TID 0000.0001)                 4.000000000000000E+05
(PID.TID 0000.0001)     ;
(PID.TID 0000.0001) rCD =   /* Normalised CD coupling parameter */
(PID.TID 0000.0001)                 9.955000000000001E-01
(PID.TID 0000.0001)     ;
(PID.TID 0000.0001) pickupStrictlyMatch= /* stop if pickup do not strictly match */
(PID.TID 0000.0001)                   T
(PID.TID 0000.0001)     ;
(PID.TID 0000.0001) nIter0 =   /* Run starting timestep number  */
(PID.TID 0000.0001)                       0
(PID.TID 0000.0001)     ;
(PID.TID 0000.0001) nTimeSteps =   /* Number of timesteps */
(PID.TID 0000.0001)                      20
(PID.TID 0000.0001)     ;
(PID.TID 0000.0001) baseTime =   /* Model base time ( s ). */
(PID.TID 0000.0001)                 0.000000000000000E+00
(PID.TID 0000.0001)     ;
(PID.TID 0000.0001) startTime =   /* Run start time ( s ). */
(PID.TID 0000.0001)                 0.000000000000000E+00
(PID.TID 0000.0001)     ;
(PID.TID 0000.0001) endTime =   /* Integration ending time ( s ). */
(PID.TID 0000.0001)                 3.600000000000000E+04
(PID.TID 0000.0001)     ;
(PID.TID 0000.0001) pChkPtFreq =   /* Permanent restart/checkpoint file interval ( s ). */
(PID.TID 0000.0001)                 0.000000000000000E+00
(PID.TID 0000.0001)     ;
(PID.TID 0000.0001) chkPtFreq =   /* Rolling restart/checkpoint file interval ( s ). */
(PID.TID 0000.0001)                 0.000000000000000E+00
(PID.TID 0000.0001)     ;
(PID.TID 0000.0001) pickup_write_mdsio =   /* Model IO flag. */
(PID.TID 0000.0001)                   T
(PID.TID 0000.0001)     ;
(PID.TID 0000.0001) pickup_read_mdsio =   /* Model IO flag. */
(PID.TID 0000.0001)                   T
(PID.TID 0000.0001)     ;
(PID.TID 0000.0001) pickup_write_mnc =   /* Model IO flag. */
(PID.TID 0000.0001)                   F
(PID.TID 0000.0001)     ;
(PID.TID 0000.0001) pickup_read_mnc =   /* Model IO flag. */
(PID.TID 0000.0001)                   F
(PID.TID 0000.0001)     ;
(PID.TID 0000.0001) pickup_write_immed =   /* Model IO flag. */
(PID.TID 0000.0001)                   F
(PID.TID 0000.0001)     ;
(PID.TID 0000.0001) writePickupAtEnd =   /* Model IO flag. */
(PID.TID 0000.0001)                   T
(PID.TID 0000.0001)     ;
(PID.TID 0000.0001) dumpFreq =   /* Model state write out interval ( s ). */
(PID.TID 0000.0001)                 0.000000000000000E+00
(PID.TID 0000.0001)     ;
(PID.TID 0000.0001) dumpInitAndLast= /* write out Initial & Last iter. model state */
(PID.TID 0000.0001)                   T
(PID.TID 0000.0001)     ;
(PID.TID 0000.0001) snapshot_mdsio =   /* Model IO flag. */
(PID.TID 0000.0001)                   F
(PID.TID 0000.0001)     ;
(PID.TID 0000.0001) snapshot_mnc =   /* Model IO flag. */
(PID.TID 0000.0001)                   T
(PID.TID 0000.0001)     ;
(PID.TID 0000.0001) monitorFreq =   /* Monitor output interval ( s ). */
(PID.TID 0000.0001)                 1.000000000000000E+00
(PID.TID 0000.0001)     ;
(PID.TID 0000.0001) monitorSelect = /* select group of variables to monitor */
(PID.TID 0000.0001)                       3
(PID.TID 0000.0001)     ;
(PID.TID 0000.0001) monitor_stdio =   /* Model IO flag. */
(PID.TID 0000.0001)                   T
(PID.TID 0000.0001)     ;
(PID.TID 0000.0001) monitor_mnc =   /* Model IO flag. */
(PID.TID 0000.0001)                   F
(PID.TID 0000.0001)     ;
(PID.TID 0000.0001) externForcingPeriod =   /* forcing period (s) */
(PID.TID 0000.0001)                 0.000000000000000E+00
(PID.TID 0000.0001)     ;
(PID.TID 0000.0001) externForcingCycle =   /* period of the cyle (s). */
(PID.TID 0000.0001)                 0.000000000000000E+00
(PID.TID 0000.0001)     ;
(PID.TID 0000.0001) tauThetaClimRelax =   /* relaxation time scale (s) */
(PID.TID 0000.0001)                 0.000000000000000E+00
(PID.TID 0000.0001)     ;
(PID.TID 0000.0001) tauSaltClimRelax =   /* relaxation time scale (s) */
(PID.TID 0000.0001)                 0.000000000000000E+00
(PID.TID 0000.0001)     ;
(PID.TID 0000.0001) latBandClimRelax =   /* max. Lat. where relaxation */
(PID.TID 0000.0001)                 1.800000000000000E+02
(PID.TID 0000.0001)     ;
(PID.TID 0000.0001) //
(PID.TID 0000.0001) // Gridding paramters ( PARM04 in namelist )
(PID.TID 0000.0001) //
(PID.TID 0000.0001) usingCartesianGrid = /* Cartesian coordinates flag ( True/False ) */
(PID.TID 0000.0001)                   F
(PID.TID 0000.0001)     ;
(PID.TID 0000.0001) usingCylindricalGrid = /* Cylindrical coordinates flag ( True/False ) */
(PID.TID 0000.0001)                   F
(PID.TID 0000.0001)     ;
(PID.TID 0000.0001) usingSphericalPolarGrid = /* Spherical coordinates flag ( True/False ) */
(PID.TID 0000.0001)                   T
(PID.TID 0000.0001)     ;
(PID.TID 0000.0001) usingCurvilinearGrid = /* Curvilinear coordinates flag ( True/False ) */
(PID.TID 0000.0001)                   F
(PID.TID 0000.0001)     ;
(PID.TID 0000.0001) Ro_SeaLevel = /* r(1) ( units of r ==  m ) */
(PID.TID 0000.0001)                 0.000000000000000E+00
(PID.TID 0000.0001)     ;
(PID.TID 0000.0001) rkSign =   /* index orientation relative to vertical coordinate */
(PID.TID 0000.0001)                -1.000000000000000E+00
(PID.TID 0000.0001)     ;
(PID.TID 0000.0001) gravitySign = /* gravity orientation relative to vertical coordinate */
(PID.TID 0000.0001)                -1.000000000000000E+00
(PID.TID 0000.0001)     ;
(PID.TID 0000.0001) mass2rUnit = /* convert mass per unit area [kg/m2] to r-units [m] */
(PID.TID 0000.0001)                 9.708737864077669E-04
(PID.TID 0000.0001)     ;
(PID.TID 0000.0001) rUnit2mass = /* convert r-units [m] to mass per unit area [kg/m2] */
(PID.TID 0000.0001)                 1.030000000000000E+03
(PID.TID 0000.0001)     ;
(PID.TID 0000.0001) drC =   /* C spacing ( units of r ) */
(PID.TID 0000.0001)                 1.500000000000000E+01,      /* K =  1 */
(PID.TID 0000.0001)    29 @  3.000000000000000E+01              /* K =  2: 30 */
(PID.TID 0000.0001)     ;
(PID.TID 0000.0001) drF =   /* W spacing ( units of r ) */
(PID.TID 0000.0001)    30 @  3.000000000000000E+01              /* K =  1: 30 */
(PID.TID 0000.0001)     ;
(PID.TID 0000.0001) delX =   /* U spacing ( m - cartesian, degrees - spherical ) */
(PID.TID 0000.0001)    50 @  3.000000000000000E-01              /* I =  1: 50 */
(PID.TID 0000.0001)     ;
(PID.TID 0000.0001) delY =   /* V spacing ( m - cartesian, degrees - spherical ) */
(PID.TID 0000.0001)   100 @  1.000000000000000E-01              /* J =  1:100 */
(PID.TID 0000.0001)     ;
(PID.TID 0000.0001) phiMin =    /* South edge (ignored - cartesian, degrees - spherical ) */
(PID.TID 0000.0001)                -8.000000000000000E+01
(PID.TID 0000.0001)     ;
(PID.TID 0000.0001) thetaMin =    /* West edge ( ignored - cartesian, degrees - spherical ) */
(PID.TID 0000.0001)                 0.000000000000000E+00
(PID.TID 0000.0001)     ;
(PID.TID 0000.0001) rSphere =  /* Radius ( ignored - cartesian, m - spherical ) */
(PID.TID 0000.0001)                 6.370000000000000E+06
(PID.TID 0000.0001)     ;
(PID.TID 0000.0001) deepAtmosphere = /* Deep/Shallow Atmosphere flag (True/False) */
(PID.TID 0000.0001)                   F
(PID.TID 0000.0001)     ;
(PID.TID 0000.0001) xcoord =   /* P-point X coord ( m - cartesian, degrees - spherical ) */
(PID.TID 0000.0001)                 1.500000000000001E-01,      /* I =  1 */
(PID.TID 0000.0001)                 4.500000000000001E-01,      /* I =  2 */
(PID.TID 0000.0001)                 7.500000000000002E-01,      /* I =  3 */
(PID.TID 0000.0001)                 1.050000000000000E+00,      /* I =  4 */
(PID.TID 0000.0001)                 1.350000000000000E+00,      /* I =  5 */
(PID.TID 0000.0001)                 1.650000000000000E+00,      /* I =  6 */
(PID.TID 0000.0001)                 1.950000000000000E+00,      /* I =  7 */
(PID.TID 0000.0001)                 2.250000000000000E+00,      /* I =  8 */
(PID.TID 0000.0001)                 2.550000000000000E+00,      /* I =  9 */
(PID.TID 0000.0001)                 2.850000000000000E+00,      /* I = 10 */
(PID.TID 0000.0001)                 3.149999999999999E+00,      /* I = 11 */
(PID.TID 0000.0001)                 3.449999999999999E+00,      /* I = 12 */
(PID.TID 0000.0001)                 3.749999999999999E+00,      /* I = 13 */
(PID.TID 0000.0001)                 4.049999999999999E+00,      /* I = 14 */
(PID.TID 0000.0001)                 4.350000000000000E+00,      /* I = 15 */
(PID.TID 0000.0001)                 4.649999999999999E+00,      /* I = 16 */
(PID.TID 0000.0001)                 4.949999999999999E+00,      /* I = 17 */
(PID.TID 0000.0001)                 5.249999999999998E+00,      /* I = 18 */
(PID.TID 0000.0001)                 5.549999999999999E+00,      /* I = 19 */
(PID.TID 0000.0001)                 5.849999999999998E+00,      /* I = 20 */
(PID.TID 0000.0001)                 6.149999999999999E+00,      /* I = 21 */
(PID.TID 0000.0001)                 6.449999999999998E+00,      /* I = 22 */
(PID.TID 0000.0001)                 6.749999999999998E+00,      /* I = 23 */
(PID.TID 0000.0001)                 7.049999999999997E+00,      /* I = 24 */
(PID.TID 0000.0001)                 7.349999999999997E+00,      /* I = 25 */
(PID.TID 0000.0001)                 7.649999999999997E+00,      /* I = 26 */
(PID.TID 0000.0001)                 7.949999999999998E+00,      /* I = 27 */
(PID.TID 0000.0001)                 8.249999999999998E+00,      /* I = 28 */
(PID.TID 0000.0001)                 8.549999999999999E+00,      /* I = 29 */
(PID.TID 0000.0001)                 8.850000000000000E+00,      /* I = 30 */
(PID.TID 0000.0001)                 9.150000000000000E+00,      /* I = 31 */
(PID.TID 0000.0001)                 9.450000000000001E+00,      /* I = 32 */
(PID.TID 0000.0001)                 9.750000000000002E+00,      /* I = 33 */
(PID.TID 0000.0001)                 1.005000000000000E+01,      /* I = 34 */
(PID.TID 0000.0001)                 1.035000000000000E+01,      /* I = 35 */
(PID.TID 0000.0001)                 1.065000000000000E+01,      /* I = 36 */
(PID.TID 0000.0001)                 1.095000000000001E+01,      /* I = 37 */
(PID.TID 0000.0001)                 1.125000000000001E+01,      /* I = 38 */
(PID.TID 0000.0001)                 1.155000000000000E+01,      /* I = 39 */
(PID.TID 0000.0001)                 1.185000000000001E+01,      /* I = 40 */
(PID.TID 0000.0001)                 1.215000000000001E+01,      /* I = 41 */
(PID.TID 0000.0001)                 1.245000000000001E+01,      /* I = 42 */
(PID.TID 0000.0001)                 1.275000000000001E+01,      /* I = 43 */
(PID.TID 0000.0001)                 1.305000000000001E+01,      /* I = 44 */
(PID.TID 0000.0001)                 1.335000000000001E+01,      /* I = 45 */
(PID.TID 0000.0001)                 1.365000000000001E+01,      /* I = 46 */
(PID.TID 0000.0001)                 1.395000000000001E+01,      /* I = 47 */
(PID.TID 0000.0001)                 1.425000000000001E+01,      /* I = 48 */
(PID.TID 0000.0001)                 1.455000000000001E+01,      /* I = 49 */
(PID.TID 0000.0001)                 1.485000000000001E+01       /* I = 50 */
(PID.TID 0000.0001)     ;
(PID.TID 0000.0001) ycoord =   /* P-point Y coord ( m - cartesian, degrees - spherical ) */
(PID.TID 0000.0001)                -7.995000000000000E+01,      /* J =  1 */
(PID.TID 0000.0001)                -7.985000000000001E+01,      /* J =  2 */
(PID.TID 0000.0001)                -7.975000000000001E+01,      /* J =  3 */
(PID.TID 0000.0001)                -7.965000000000002E+01,      /* J =  4 */
(PID.TID 0000.0001)                -7.955000000000003E+01,      /* J =  5 */
(PID.TID 0000.0001)                -7.945000000000003E+01,      /* J =  6 */
(PID.TID 0000.0001)                -7.935000000000004E+01,      /* J =  7 */
(PID.TID 0000.0001)                -7.925000000000004E+01,      /* J =  8 */
(PID.TID 0000.0001)                -7.915000000000005E+01,      /* J =  9 */
(PID.TID 0000.0001)                -7.905000000000005E+01,      /* J = 10 */
(PID.TID 0000.0001)                -7.895000000000006E+01,      /* J = 11 */
(PID.TID 0000.0001)                -7.885000000000007E+01,      /* J = 12 */
(PID.TID 0000.0001)                -7.875000000000007E+01,      /* J = 13 */
(PID.TID 0000.0001)                -7.865000000000008E+01,      /* J = 14 */
(PID.TID 0000.0001)                -7.855000000000008E+01,      /* J = 15 */
(PID.TID 0000.0001)                -7.845000000000009E+01,      /* J = 16 */
(PID.TID 0000.0001)                -7.835000000000009E+01,      /* J = 17 */
(PID.TID 0000.0001)                -7.825000000000010E+01,      /* J = 18 */
(PID.TID 0000.0001)                -7.815000000000011E+01,      /* J = 19 */
(PID.TID 0000.0001)                -7.805000000000011E+01,      /* J = 20 */
(PID.TID 0000.0001)                -7.795000000000012E+01,      /* J = 21 */
(PID.TID 0000.0001)                -7.785000000000012E+01,      /* J = 22 */
(PID.TID 0000.0001)                -7.775000000000013E+01,      /* J = 23 */
(PID.TID 0000.0001)                -7.765000000000013E+01,      /* J = 24 */
(PID.TID 0000.0001)                -7.755000000000014E+01,      /* J = 25 */
(PID.TID 0000.0001)                -7.745000000000014E+01,      /* J = 26 */
(PID.TID 0000.0001)                -7.735000000000015E+01,      /* J = 27 */
(PID.TID 0000.0001)                -7.725000000000016E+01,      /* J = 28 */
(PID.TID 0000.0001)                -7.715000000000016E+01,      /* J = 29 */
(PID.TID 0000.0001)                -7.705000000000017E+01,      /* J = 30 */
(PID.TID 0000.0001)                -7.695000000000017E+01,      /* J = 31 */
(PID.TID 0000.0001)                -7.685000000000018E+01,      /* J = 32 */
(PID.TID 0000.0001)                -7.675000000000018E+01,      /* J = 33 */
(PID.TID 0000.0001)                -7.665000000000019E+01,      /* J = 34 */
(PID.TID 0000.0001)                -7.655000000000020E+01,      /* J = 35 */
(PID.TID 0000.0001)                -7.645000000000020E+01,      /* J = 36 */
(PID.TID 0000.0001)                -7.635000000000021E+01,      /* J = 37 */
(PID.TID 0000.0001)                -7.625000000000021E+01,      /* J = 38 */
(PID.TID 0000.0001)                -7.615000000000022E+01,      /* J = 39 */
(PID.TID 0000.0001)                -7.605000000000022E+01,      /* J = 40 */
(PID.TID 0000.0001)                -7.595000000000023E+01,      /* J = 41 */
(PID.TID 0000.0001)                -7.585000000000024E+01,      /* J = 42 */
(PID.TID 0000.0001)                -7.575000000000024E+01,      /* J = 43 */
(PID.TID 0000.0001)                -7.565000000000025E+01,      /* J = 44 */
(PID.TID 0000.0001)                -7.555000000000025E+01,      /* J = 45 */
(PID.TID 0000.0001)                -7.545000000000026E+01,      /* J = 46 */
(PID.TID 0000.0001)                -7.535000000000026E+01,      /* J = 47 */
(PID.TID 0000.0001)                -7.525000000000027E+01,      /* J = 48 */
(PID.TID 0000.0001)                -7.515000000000028E+01,      /* J = 49 */
(PID.TID 0000.0001)                -7.505000000000028E+01,      /* J = 50 */
(PID.TID 0000.0001)                -7.495000000000029E+01,      /* J = 51 */
(PID.TID 0000.0001)                -7.485000000000029E+01,      /* J = 52 */
(PID.TID 0000.0001)                -7.475000000000030E+01,      /* J = 53 */
(PID.TID 0000.0001)                -7.465000000000030E+01,      /* J = 54 */
(PID.TID 0000.0001)                -7.455000000000031E+01,      /* J = 55 */
(PID.TID 0000.0001)                -7.445000000000032E+01,      /* J = 56 */
(PID.TID 0000.0001)                -7.435000000000032E+01,      /* J = 57 */
(PID.TID 0000.0001)                -7.425000000000033E+01,      /* J = 58 */
(PID.TID 0000.0001)                -7.415000000000033E+01,      /* J = 59 */
(PID.TID 0000.0001)                -7.405000000000034E+01,      /* J = 60 */
(PID.TID 0000.0001)                -7.395000000000034E+01,      /* J = 61 */
(PID.TID 0000.0001)                -7.385000000000035E+01,      /* J = 62 */
(PID.TID 0000.0001)                -7.375000000000036E+01,      /* J = 63 */
(PID.TID 0000.0001)                -7.365000000000036E+01,      /* J = 64 */
(PID.TID 0000.0001)                -7.355000000000037E+01,      /* J = 65 */
(PID.TID 0000.0001)                -7.345000000000037E+01,      /* J = 66 */
(PID.TID 0000.0001)                -7.335000000000038E+01,      /* J = 67 */
(PID.TID 0000.0001)                -7.325000000000038E+01,      /* J = 68 */
(PID.TID 0000.0001)                -7.315000000000039E+01,      /* J = 69 */
(PID.TID 0000.0001)                -7.305000000000040E+01,      /* J = 70 */
(PID.TID 0000.0001)                -7.295000000000040E+01,      /* J = 71 */
(PID.TID 0000.0001)                -7.285000000000041E+01,      /* J = 72 */
(PID.TID 0000.0001)                -7.275000000000041E+01,      /* J = 73 */
(PID.TID 0000.0001)                -7.265000000000042E+01,      /* J = 74 */
(PID.TID 0000.0001)                -7.255000000000042E+01,      /* J = 75 */
(PID.TID 0000.0001)                -7.245000000000043E+01,      /* J = 76 */
(PID.TID 0000.0001)                -7.235000000000043E+01,      /* J = 77 */
(PID.TID 0000.0001)                -7.225000000000044E+01,      /* J = 78 */
(PID.TID 0000.0001)                -7.215000000000045E+01,      /* J = 79 */
(PID.TID 0000.0001)                -7.205000000000045E+01,      /* J = 80 */
(PID.TID 0000.0001)                -7.195000000000046E+01,      /* J = 81 */
(PID.TID 0000.0001)                -7.185000000000046E+01,      /* J = 82 */
(PID.TID 0000.0001)                -7.175000000000047E+01,      /* J = 83 */
(PID.TID 0000.0001)                -7.165000000000047E+01,      /* J = 84 */
(PID.TID 0000.0001)                -7.155000000000048E+01,      /* J = 85 */
(PID.TID 0000.0001)                -7.145000000000049E+01,      /* J = 86 */
(PID.TID 0000.0001)                -7.135000000000049E+01,      /* J = 87 */
(PID.TID 0000.0001)                -7.125000000000050E+01,      /* J = 88 */
(PID.TID 0000.0001)                -7.115000000000050E+01,      /* J = 89 */
(PID.TID 0000.0001)                -7.105000000000051E+01,      /* J = 90 */
(PID.TID 0000.0001)                -7.095000000000051E+01,      /* J = 91 */
(PID.TID 0000.0001)                -7.085000000000052E+01,      /* J = 92 */
(PID.TID 0000.0001)                -7.075000000000053E+01,      /* J = 93 */
(PID.TID 0000.0001)                -7.065000000000053E+01,      /* J = 94 */
(PID.TID 0000.0001)                -7.055000000000054E+01,      /* J = 95 */
(PID.TID 0000.0001)                -7.045000000000054E+01,      /* J = 96 */
(PID.TID 0000.0001)                -7.035000000000055E+01,      /* J = 97 */
(PID.TID 0000.0001)                -7.025000000000055E+01,      /* J = 98 */
(PID.TID 0000.0001)                -7.015000000000056E+01,      /* J = 99 */
(PID.TID 0000.0001)                -7.005000000000057E+01       /* J =100 */
(PID.TID 0000.0001)     ;
(PID.TID 0000.0001) rcoord =   /* P-point R coordinate (  units of r ) */
(PID.TID 0000.0001)                -1.500000000000000E+01,      /* K =  1 */
(PID.TID 0000.0001)                -4.500000000000000E+01,      /* K =  2 */
(PID.TID 0000.0001)                -7.500000000000000E+01,      /* K =  3 */
(PID.TID 0000.0001)                -1.050000000000000E+02,      /* K =  4 */
(PID.TID 0000.0001)                -1.350000000000000E+02,      /* K =  5 */
(PID.TID 0000.0001)                -1.650000000000000E+02,      /* K =  6 */
(PID.TID 0000.0001)                -1.950000000000000E+02,      /* K =  7 */
(PID.TID 0000.0001)                -2.250000000000000E+02,      /* K =  8 */
(PID.TID 0000.0001)                -2.550000000000000E+02,      /* K =  9 */
(PID.TID 0000.0001)                -2.850000000000000E+02,      /* K = 10 */
(PID.TID 0000.0001)                -3.150000000000000E+02,      /* K = 11 */
(PID.TID 0000.0001)                -3.450000000000000E+02,      /* K = 12 */
(PID.TID 0000.0001)                -3.750000000000000E+02,      /* K = 13 */
(PID.TID 0000.0001)                -4.050000000000000E+02,      /* K = 14 */
(PID.TID 0000.0001)                -4.350000000000000E+02,      /* K = 15 */
(PID.TID 0000.0001)                -4.650000000000000E+02,      /* K = 16 */
(PID.TID 0000.0001)                -4.950000000000000E+02,      /* K = 17 */
(PID.TID 0000.0001)                -5.250000000000000E+02,      /* K = 18 */
(PID.TID 0000.0001)                -5.550000000000000E+02,      /* K = 19 */
(PID.TID 0000.0001)                -5.850000000000000E+02,      /* K = 20 */
(PID.TID 0000.0001)                -6.150000000000000E+02,      /* K = 21 */
(PID.TID 0000.0001)                -6.450000000000000E+02,      /* K = 22 */
(PID.TID 0000.0001)                -6.750000000000000E+02,      /* K = 23 */
(PID.TID 0000.0001)                -7.050000000000000E+02,      /* K = 24 */
(PID.TID 0000.0001)                -7.350000000000000E+02,      /* K = 25 */
(PID.TID 0000.0001)                -7.650000000000000E+02,      /* K = 26 */
(PID.TID 0000.0001)                -7.950000000000000E+02,      /* K = 27 */
(PID.TID 0000.0001)                -8.250000000000000E+02,      /* K = 28 */
(PID.TID 0000.0001)                -8.550000000000000E+02,      /* K = 29 */
(PID.TID 0000.0001)                -8.850000000000000E+02       /* K = 30 */
(PID.TID 0000.0001)     ;
(PID.TID 0000.0001) rF =   /* W-Interf. R coordinate (  units of r ) */
(PID.TID 0000.0001)                 0.000000000000000E+00,      /* K =  1 */
(PID.TID 0000.0001)                -3.000000000000000E+01,      /* K =  2 */
(PID.TID 0000.0001)                -6.000000000000000E+01,      /* K =  3 */
(PID.TID 0000.0001)                -9.000000000000000E+01,      /* K =  4 */
(PID.TID 0000.0001)                -1.200000000000000E+02,      /* K =  5 */
(PID.TID 0000.0001)                -1.500000000000000E+02,      /* K =  6 */
(PID.TID 0000.0001)                -1.800000000000000E+02,      /* K =  7 */
(PID.TID 0000.0001)                -2.100000000000000E+02,      /* K =  8 */
(PID.TID 0000.0001)                -2.400000000000000E+02,      /* K =  9 */
(PID.TID 0000.0001)                -2.700000000000000E+02,      /* K = 10 */
(PID.TID 0000.0001)                -3.000000000000000E+02,      /* K = 11 */
(PID.TID 0000.0001)                -3.300000000000000E+02,      /* K = 12 */
(PID.TID 0000.0001)                -3.600000000000000E+02,      /* K = 13 */
(PID.TID 0000.0001)                -3.900000000000000E+02,      /* K = 14 */
(PID.TID 0000.0001)                -4.200000000000000E+02,      /* K = 15 */
(PID.TID 0000.0001)                -4.500000000000000E+02,      /* K = 16 */
(PID.TID 0000.0001)                -4.800000000000000E+02,      /* K = 17 */
(PID.TID 0000.0001)                -5.100000000000000E+02,      /* K = 18 */
(PID.TID 0000.0001)                -5.400000000000000E+02,      /* K = 19 */
(PID.TID 0000.0001)                -5.700000000000000E+02,      /* K = 20 */
(PID.TID 0000.0001)                -6.000000000000000E+02,      /* K = 21 */
(PID.TID 0000.0001)                -6.300000000000000E+02,      /* K = 22 */
(PID.TID 0000.0001)                -6.600000000000000E+02,      /* K = 23 */
(PID.TID 0000.0001)                -6.900000000000000E+02,      /* K = 24 */
(PID.TID 0000.0001)                -7.200000000000000E+02,      /* K = 25 */
(PID.TID 0000.0001)                -7.500000000000000E+02,      /* K = 26 */
(PID.TID 0000.0001)                -7.800000000000000E+02,      /* K = 27 */
(PID.TID 0000.0001)                -8.100000000000000E+02,      /* K = 28 */
(PID.TID 0000.0001)                -8.400000000000000E+02,      /* K = 29 */
(PID.TID 0000.0001)                -8.700000000000000E+02,      /* K = 30 */
(PID.TID 0000.0001)                -9.000000000000000E+02       /* K = 31 */
(PID.TID 0000.0001)     ;
(PID.TID 0000.0001) deepFacC = /* deep-model grid factor @ cell-Center (-) */
(PID.TID 0000.0001)    30 @  1.000000000000000E+00              /* K =  1: 30 */
(PID.TID 0000.0001)     ;
(PID.TID 0000.0001) deepFacF = /* deep-model grid factor @ W-Interface (-) */
(PID.TID 0000.0001)    31 @  1.000000000000000E+00              /* K =  1: 31 */
(PID.TID 0000.0001)     ;
(PID.TID 0000.0001) rVel2wUnit = /* convert units: rVel -> wSpeed (=1 if z-coord)*/
(PID.TID 0000.0001)    31 @  1.000000000000000E+00              /* K =  1: 31 */
(PID.TID 0000.0001)     ;
(PID.TID 0000.0001) wUnit2rVel = /* convert units: wSpeed -> rVel (=1 if z-coord)*/
(PID.TID 0000.0001)    31 @  1.000000000000000E+00              /* K =  1: 31 */
(PID.TID 0000.0001)     ;
(PID.TID 0000.0001) dBdrRef = /* Vertical gradient of reference boyancy [(m/s/r)^2)] */
(PID.TID 0000.0001)    30 @  0.000000000000000E+00              /* K =  1: 30 */
(PID.TID 0000.0001)     ;
(PID.TID 0000.0001) rotateGrid = /* use rotated grid ( True/False ) */
(PID.TID 0000.0001)                   F
(PID.TID 0000.0001)     ;
(PID.TID 0000.0001) phiEuler = /* Euler angle, rotation about original z-coordinate [rad] */
(PID.TID 0000.0001)                 9.708737864077669E-04
(PID.TID 0000.0001)     ;
(PID.TID 0000.0001) thetaEuler = /* Euler angle, rotation about new x-coordinate [rad] */
(PID.TID 0000.0001)                 9.708737864077669E-04
(PID.TID 0000.0001)     ;
(PID.TID 0000.0001) psiEuler = /* Euler angle, rotation about new z-coordinate [rad] */
(PID.TID 0000.0001)                 9.708737864077669E-04
(PID.TID 0000.0001)     ;
(PID.TID 0000.0001) dxF =  /* dxF(:,1,:,1) ( units: m ) */
(PID.TID 0000.0001)    50 @  5.820391490558872E+03              /* I =  1: 50 */
(PID.TID 0000.0001)     ;
(PID.TID 0000.0001) dxF =  /* dxF(1,:,1,:) ( units: m ) */
(PID.TID 0000.0001)                 5.820391490558872E+03,      /* J =  1 */
(PID.TID 0000.0001)                 5.877701765291692E+03,      /* J =  2 */
(PID.TID 0000.0001)                 5.934994135525598E+03,      /* J =  3 */
(PID.TID 0000.0001)                 5.992268426738092E+03,      /* J =  4 */
(PID.TID 0000.0001)                 6.049524464461751E+03,      /* J =  5 */
(PID.TID 0000.0001)                 6.106762074284755E+03,      /* J =  6 */
(PID.TID 0000.0001)                 6.163981081851418E+03,      /* J =  7 */
(PID.TID 0000.0001)                 6.221181312862721E+03,      /* J =  8 */
(PID.TID 0000.0001)                 6.278362593076839E+03,      /* J =  9 */
(PID.TID 0000.0001)                 6.335524748309675E+03,      /* J = 10 */
(PID.TID 0000.0001)                 6.392667604435392E+03,      /* J = 11 */
(PID.TID 0000.0001)                 6.449790987386939E+03,      /* J = 12 */
(PID.TID 0000.0001)                 6.506894723156589E+03,      /* J = 13 */
(PID.TID 0000.0001)                 6.563978637796454E+03,      /* J = 14 */
(PID.TID 0000.0001)                 6.621042557419033E+03,      /* J = 15 */
(PID.TID 0000.0001)                 6.678086308197730E+03,      /* J = 16 */
(PID.TID 0000.0001)                 6.735109716367390E+03,      /* J = 17 */
(PID.TID 0000.0001)                 6.792112608224819E+03,      /* J = 18 */
(PID.TID 0000.0001)                 6.849094810129332E+03,      /* J = 19 */
(PID.TID 0000.0001)                 6.906056148503244E+03,      /* J = 20 */
(PID.TID 0000.0001)                 6.962996449832446E+03,      /* J = 21 */
(PID.TID 0000.0001)                 7.019915540666910E+03,      /* J = 22 */
(PID.TID 0000.0001)                 7.076813247621209E+03,      /* J = 23 */
(PID.TID 0000.0001)                 7.133689397375063E+03,      /* J = 24 */
(PID.TID 0000.0001)                 7.190543816673855E+03,      /* J = 25 */
(PID.TID 0000.0001)                 7.247376332329164E+03,      /* J = 26 */
(PID.TID 0000.0001)                 7.304186771219292E+03,      /* J = 27 */
(PID.TID 0000.0001)                 7.360974960289787E+03,      /* J = 28 */
(PID.TID 0000.0001)                 7.417740726553981E+03,      /* J = 29 */
(PID.TID 0000.0001)                 7.474483897093503E+03,      /* J = 30 */
(PID.TID 0000.0001)                 7.531204299058815E+03,      /* J = 31 */
(PID.TID 0000.0001)                 7.587901759669735E+03,      /* J = 32 */
(PID.TID 0000.0001)                 7.644576106215967E+03,      /* J = 33 */
(PID.TID 0000.0001)                 7.701227166057623E+03,      /* J = 34 */
(PID.TID 0000.0001)                 7.757854766625747E+03,      /* J = 35 */
(PID.TID 0000.0001)                 7.814458735422849E+03,      /* J = 36 */
(PID.TID 0000.0001)                 7.871038900023425E+03,      /* J = 37 */
(PID.TID 0000.0001)                 7.927595088074479E+03,      /* J = 38 */
(PID.TID 0000.0001)                 7.984127127296055E+03,      /* J = 39 */
(PID.TID 0000.0001)                 8.040634845481757E+03,      /* J = 40 */
(PID.TID 0000.0001)                 8.097118070499275E+03,      /* J = 41 */
(PID.TID 0000.0001)                 8.153576630290919E+03,      /* J = 42 */
(PID.TID 0000.0001)                 8.210010352874109E+03,      /* J = 43 */
(PID.TID 0000.0001)                 8.266419066341947E+03,      /* J = 44 */
(PID.TID 0000.0001)                 8.322802598863705E+03,      /* J = 45 */
(PID.TID 0000.0001)                 8.379160778685373E+03,      /* J = 46 */
(PID.TID 0000.0001)                 8.435493434130152E+03,      /* J = 47 */
(PID.TID 0000.0001)                 8.491800393599013E+03,      /* J = 48 */
(PID.TID 0000.0001)                 8.548081485571185E+03,      /* J = 49 */
(PID.TID 0000.0001)                 8.604336538604706E+03,      /* J = 50 */
(PID.TID 0000.0001)                 8.660565381336924E+03,      /* J = 51 */
(PID.TID 0000.0001)                 8.716767842485036E+03,      /* J = 52 */
(PID.TID 0000.0001)                 8.772943750846600E+03,      /* J = 53 */
(PID.TID 0000.0001)                 8.829092935300054E+03,      /* J = 54 */
(PID.TID 0000.0001)                 8.885215224805244E+03,      /* J = 55 */
(PID.TID 0000.0001)                 8.941310448403947E+03,      /* J = 56 */
(PID.TID 0000.0001)                 8.997378435220378E+03,      /* J = 57 */
(PID.TID 0000.0001)                 9.053419014461731E+03,      /* J = 58 */
(PID.TID 0000.0001)                 9.109432015418679E+03,      /* J = 59 */
(PID.TID 0000.0001)                 9.165417267465908E+03,      /* J = 60 */
(PID.TID 0000.0001)                 9.221374600062631E+03,      /* J = 61 */
(PID.TID 0000.0001)                 9.277303842753110E+03,      /* J = 62 */
(PID.TID 0000.0001)                 9.333204825167171E+03,      /* J = 63 */
(PID.TID 0000.0001)                 9.389077377020727E+03,      /* J = 64 */
(PID.TID 0000.0001)                 9.444921328116297E+03,      /* J = 65 */
(PID.TID 0000.0001)                 9.500736508343525E+03,      /* J = 66 */
(PID.TID 0000.0001)                 9.556522747679681E+03,      /* J = 67 */
(PID.TID 0000.0001)                 9.612279876190212E+03,      /* J = 68 */
(PID.TID 0000.0001)                 9.668007724029234E+03,      /* J = 69 */
(PID.TID 0000.0001)                 9.723706121440056E+03,      /* J = 70 */
(PID.TID 0000.0001)                 9.779374898755706E+03,      /* J = 71 */
(PID.TID 0000.0001)                 9.835013886399427E+03,      /* J = 72 */
(PID.TID 0000.0001)                 9.890622914885218E+03,      /* J = 73 */
(PID.TID 0000.0001)                 9.946201814818334E+03,      /* J = 74 */
(PID.TID 0000.0001)                 1.000175041689580E+04,      /* J = 75 */
(PID.TID 0000.0001)                 1.005726855190695E+04,      /* J = 76 */
(PID.TID 0000.0001)                 1.011275605073392E+04,      /* J = 77 */
(PID.TID 0000.0001)                 1.016821274435215E+04,      /* J = 78 */
(PID.TID 0000.0001)                 1.022363846383095E+04,      /* J = 79 */
(PID.TID 0000.0001)                 1.027903304033395E+04,      /* J = 80 */
(PID.TID 0000.0001)                 1.033439630511968E+04,      /* J = 81 */
(PID.TID 0000.0001)                 1.038972808954202E+04,      /* J = 82 */
(PID.TID 0000.0001)                 1.044502822505077E+04,      /* J = 83 */
(PID.TID 0000.0001)                 1.050029654319212E+04,      /* J = 84 */
(PID.TID 0000.0001)                 1.055553287560919E+04,      /* J = 85 */
(PID.TID 0000.0001)                 1.061073705404253E+04,      /* J = 86 */
(PID.TID 0000.0001)                 1.066590891033064E+04,      /* J = 87 */
(PID.TID 0000.0001)                 1.072104827641048E+04,      /* J = 88 */
(PID.TID 0000.0001)                 1.077615498431797E+04,      /* J = 89 */
(PID.TID 0000.0001)                 1.083122886618854E+04,      /* J = 90 */
(PID.TID 0000.0001)                 1.088626975425758E+04,      /* J = 91 */
(PID.TID 0000.0001)                 1.094127748086099E+04,      /* J = 92 */
(PID.TID 0000.0001)                 1.099625187843571E+04,      /* J = 93 */
(PID.TID 0000.0001)                 1.105119277952020E+04,      /* J = 94 */
(PID.TID 0000.0001)                 1.110610001675492E+04,      /* J = 95 */
(PID.TID 0000.0001)                 1.116097342288293E+04,      /* J = 96 */
(PID.TID 0000.0001)                 1.121581283075030E+04,      /* J = 97 */
(PID.TID 0000.0001)                 1.127061807330668E+04,      /* J = 98 */
(PID.TID 0000.0001)                 1.132538898360582E+04,      /* J = 99 */
(PID.TID 0000.0001)                 1.138012539480601E+04       /* J =100 */
(PID.TID 0000.0001)     ;
(PID.TID 0000.0001) dyF =  /* dyF(:,1,:,1) ( units: m ) */
(PID.TID 0000.0001)    50 @  1.111774733520388E+04              /* I =  1: 50 */
(PID.TID 0000.0001)     ;
(PID.TID 0000.0001) dyF =  /* dyF(1,:,1,:) ( units: m ) */
(PID.TID 0000.0001)   100 @  1.111774733520388E+04              /* J =  1:100 */
(PID.TID 0000.0001)     ;
(PID.TID 0000.0001) dxG =  /* dxG(:,1,:,1) ( units: m ) */
(PID.TID 0000.0001)    50 @  5.791729693558576E+03              /* I =  1: 50 */
(PID.TID 0000.0001)     ;
(PID.TID 0000.0001) dxG =  /* dxG(1,:,1,:) ( units: m ) */
(PID.TID 0000.0001)                 5.791729693558576E+03,      /* J =  1 */
(PID.TID 0000.0001)                 5.849048855077854E+03,      /* J =  2 */
(PID.TID 0000.0001)                 5.906350199379949E+03,      /* J =  3 */
(PID.TID 0000.0001)                 5.963633551915032E+03,      /* J =  4 */
(PID.TID 0000.0001)                 6.020898738188074E+03,      /* J =  5 */
(PID.TID 0000.0001)                 6.078145583759388E+03,      /* J =  6 */
(PID.TID 0000.0001)                 6.135373914245153E+03,      /* J =  7 */
(PID.TID 0000.0001)                 6.192583555317951E+03,      /* J =  8 */
(PID.TID 0000.0001)                 6.249774332707294E+03,      /* J =  9 */
(PID.TID 0000.0001)                 6.306946072200154E+03,      /* J = 10 */
(PID.TID 0000.0001)                 6.364098599641497E+03,      /* J = 11 */
(PID.TID 0000.0001)                 6.421231740934816E+03,      /* J = 12 */
(PID.TID 0000.0001)                 6.478345322042654E+03,      /* J = 13 */
(PID.TID 0000.0001)                 6.535439168987135E+03,      /* J = 14 */
(PID.TID 0000.0001)                 6.592513107850500E+03,      /* J = 15 */
(PID.TID 0000.0001)                 6.649566964775637E+03,      /* J = 16 */
(PID.TID 0000.0001)                 6.706600565966598E+03,      /* J = 17 */
(PID.TID 0000.0001)                 6.763613737689147E+03,      /* J = 18 */
(PID.TID 0000.0001)                 6.820606306271281E+03,      /* J = 19 */
(PID.TID 0000.0001)                 6.877578098103740E+03,      /* J = 20 */
(PID.TID 0000.0001)                 6.934528939640570E+03,      /* J = 21 */
(PID.TID 0000.0001)                 6.991458657399629E+03,      /* J = 22 */
(PID.TID 0000.0001)                 7.048367077963129E+03,      /* J = 23 */
(PID.TID 0000.0001)                 7.105254027978149E+03,      /* J = 24 */
(PID.TID 0000.0001)                 7.162119334157175E+03,      /* J = 25 */
(PID.TID 0000.0001)                 7.218962823278620E+03,      /* J = 26 */
(PID.TID 0000.0001)                 7.275784322187360E+03,      /* J = 27 */
(PID.TID 0000.0001)                 7.332583657795253E+03,      /* J = 28 */
(PID.TID 0000.0001)                 7.389360657081677E+03,      /* J = 29 */
(PID.TID 0000.0001)                 7.446115147094042E+03,      /* J = 30 */
(PID.TID 0000.0001)                 7.502846954948329E+03,      /* J = 31 */
(PID.TID 0000.0001)                 7.559555907829611E+03,      /* J = 32 */
(PID.TID 0000.0001)                 7.616241832992587E+03,      /* J = 33 */
(PID.TID 0000.0001)                 7.672904557762095E+03,      /* J = 34 */
(PID.TID 0000.0001)                 7.729543909533650E+03,      /* J = 35 */
(PID.TID 0000.0001)                 7.786159715773963E+03,      /* J = 36 */
(PID.TID 0000.0001)                 7.842751804021470E+03,      /* J = 37 */
(PID.TID 0000.0001)                 7.899320001886857E+03,      /* J = 38 */
(PID.TID 0000.0001)                 7.955864137053582E+03,      /* J = 39 */
(PID.TID 0000.0001)                 8.012384037278402E+03,      /* J = 40 */
(PID.TID 0000.0001)                 8.068879530391900E+03,      /* J = 41 */
(PID.TID 0000.0001)                 8.125350444299005E+03,      /* J = 42 */
(PID.TID 0000.0001)                 8.181796606979530E+03,      /* J = 43 */
(PID.TID 0000.0001)                 8.238217846488658E+03,      /* J = 44 */
(PID.TID 0000.0001)                 8.294613990957514E+03,      /* J = 45 */
(PID.TID 0000.0001)                 8.350984868593665E+03,      /* J = 46 */
(PID.TID 0000.0001)                 8.407330307681643E+03,      /* J = 47 */
(PID.TID 0000.0001)                 8.463650136583461E+03,      /* J = 48 */
(PID.TID 0000.0001)                 8.519944183739159E+03,      /* J = 49 */
(PID.TID 0000.0001)                 8.576212277667308E+03,      /* J = 50 */
(PID.TID 0000.0001)                 8.632454246965530E+03,      /* J = 51 */
(PID.TID 0000.0001)                 8.688669920311038E+03,      /* J = 52 */
(PID.TID 0000.0001)                 8.744859126461139E+03,      /* J = 53 */
(PID.TID 0000.0001)                 8.801021694253765E+03,      /* J = 54 */
(PID.TID 0000.0001)                 8.857157452607997E+03,      /* J = 55 */
(PID.TID 0000.0001)                 8.913266230524581E+03,      /* J = 56 */
(PID.TID 0000.0001)                 8.969347857086450E+03,      /* J = 57 */
(PID.TID 0000.0001)                 9.025402161459237E+03,      /* J = 58 */
(PID.TID 0000.0001)                 9.081428972891812E+03,      /* J = 59 */
(PID.TID 0000.0001)                 9.137428120716793E+03,      /* J = 60 */
(PID.TID 0000.0001)                 9.193399434351066E+03,      /* J = 61 */
(PID.TID 0000.0001)                 9.249342743296300E+03,      /* J = 62 */
(PID.TID 0000.0001)                 9.305257877139473E+03,      /* J = 63 */
(PID.TID 0000.0001)                 9.361144665553391E+03,      /* J = 64 */
(PID.TID 0000.0001)                 9.417002938297206E+03,      /* J = 65 */
(PID.TID 0000.0001)                 9.472832525216931E+03,      /* J = 66 */
(PID.TID 0000.0001)                 9.528633256245968E+03,      /* J = 67 */
(PID.TID 0000.0001)                 9.584404961405600E+03,      /* J = 68 */
(PID.TID 0000.0001)                 9.640147470805550E+03,      /* J = 69 */
(PID.TID 0000.0001)                 9.695860614644464E+03,      /* J = 70 */
(PID.TID 0000.0001)                 9.751544223210447E+03,      /* J = 71 */
(PID.TID 0000.0001)                 9.807198126881565E+03,      /* J = 72 */
(PID.TID 0000.0001)                 9.862822156126382E+03,      /* J = 73 */
(PID.TID 0000.0001)                 9.918416141504455E+03,      /* J = 74 */
(PID.TID 0000.0001)                 9.973979913666863E+03,      /* J = 75 */
(PID.TID 0000.0001)                 1.002951330335672E+04,      /* J = 76 */
(PID.TID 0000.0001)                 1.008501614140969E+04,      /* J = 77 */
(PID.TID 0000.0001)                 1.014048825875450E+04,      /* J = 78 */
(PID.TID 0000.0001)                 1.019592948641347E+04,      /* J = 79 */
(PID.TID 0000.0001)                 1.025133965550300E+04,      /* J = 80 */
(PID.TID 0000.0001)                 1.030671859723410E+04,      /* J = 81 */
(PID.TID 0000.0001)                 1.036206614291292E+04,      /* J = 82 */
(PID.TID 0000.0001)                 1.041738212394122E+04,      /* J = 83 */
(PID.TID 0000.0001)                 1.047266637181695E+04,      /* J = 84 */
(PID.TID 0000.0001)                 1.052791871813469E+04,      /* J = 85 */
(PID.TID 0000.0001)                 1.058313899458622E+04,      /* J = 86 */
(PID.TID 0000.0001)                 1.063832703296099E+04,      /* J = 87 */
(PID.TID 0000.0001)                 1.069348266514667E+04,      /* J = 88 */
(PID.TID 0000.0001)                 1.074860572312964E+04,      /* J = 89 */
(PID.TID 0000.0001)                 1.080369603899551E+04,      /* J = 90 */
(PID.TID 0000.0001)                 1.085875344492962E+04,      /* J = 91 */
(PID.TID 0000.0001)                 1.091377777321755E+04,      /* J = 92 */
(PID.TID 0000.0001)                 1.096876885624567E+04,      /* J = 93 */
(PID.TID 0000.0001)                 1.102372652650160E+04,      /* J = 94 */
(PID.TID 0000.0001)                 1.107865061657475E+04,      /* J = 95 */
(PID.TID 0000.0001)                 1.113354095915680E+04,      /* J = 96 */
(PID.TID 0000.0001)                 1.118839738704227E+04,      /* J = 97 */
(PID.TID 0000.0001)                 1.124321973312895E+04,      /* J = 98 */
(PID.TID 0000.0001)                 1.129800783041847E+04,      /* J = 99 */
(PID.TID 0000.0001)                 1.135276151201679E+04       /* J =100 */
(PID.TID 0000.0001)     ;
(PID.TID 0000.0001) dyG =  /* dyG(:,1,:,1) ( units: m ) */
(PID.TID 0000.0001)    50 @  1.111774733520388E+04              /* I =  1: 50 */
(PID.TID 0000.0001)     ;
(PID.TID 0000.0001) dyG =  /* dyG(1,:,1,:) ( units: m ) */
(PID.TID 0000.0001)   100 @  1.111774733520388E+04              /* J =  1:100 */
(PID.TID 0000.0001)     ;
(PID.TID 0000.0001) dxC =  /* dxC(:,1,:,1) ( units: m ) */
(PID.TID 0000.0001)    50 @  5.820391490558872E+03              /* I =  1: 50 */
(PID.TID 0000.0001)     ;
(PID.TID 0000.0001) dxC =  /* dxC(1,:,1,:) ( units: m ) */
(PID.TID 0000.0001)                 5.820391490558872E+03,      /* J =  1 */
(PID.TID 0000.0001)                 5.877701765291692E+03,      /* J =  2 */
(PID.TID 0000.0001)                 5.934994135525598E+03,      /* J =  3 */
(PID.TID 0000.0001)                 5.992268426738092E+03,      /* J =  4 */
(PID.TID 0000.0001)                 6.049524464461751E+03,      /* J =  5 */
(PID.TID 0000.0001)                 6.106762074284755E+03,      /* J =  6 */
(PID.TID 0000.0001)                 6.163981081851418E+03,      /* J =  7 */
(PID.TID 0000.0001)                 6.221181312862721E+03,      /* J =  8 */
(PID.TID 0000.0001)                 6.278362593076839E+03,      /* J =  9 */
(PID.TID 0000.0001)                 6.335524748309675E+03,      /* J = 10 */
(PID.TID 0000.0001)                 6.392667604435392E+03,      /* J = 11 */
(PID.TID 0000.0001)                 6.449790987386939E+03,      /* J = 12 */
(PID.TID 0000.0001)                 6.506894723156589E+03,      /* J = 13 */
(PID.TID 0000.0001)                 6.563978637796454E+03,      /* J = 14 */
(PID.TID 0000.0001)                 6.621042557419033E+03,      /* J = 15 */
(PID.TID 0000.0001)                 6.678086308197730E+03,      /* J = 16 */
(PID.TID 0000.0001)                 6.735109716367390E+03,      /* J = 17 */
(PID.TID 0000.0001)                 6.792112608224819E+03,      /* J = 18 */
(PID.TID 0000.0001)                 6.849094810129332E+03,      /* J = 19 */
(PID.TID 0000.0001)                 6.906056148503244E+03,      /* J = 20 */
(PID.TID 0000.0001)                 6.962996449832446E+03,      /* J = 21 */
(PID.TID 0000.0001)                 7.019915540666910E+03,      /* J = 22 */
(PID.TID 0000.0001)                 7.076813247621209E+03,      /* J = 23 */
(PID.TID 0000.0001)                 7.133689397375063E+03,      /* J = 24 */
(PID.TID 0000.0001)                 7.190543816673855E+03,      /* J = 25 */
(PID.TID 0000.0001)                 7.247376332329164E+03,      /* J = 26 */
(PID.TID 0000.0001)                 7.304186771219292E+03,      /* J = 27 */
(PID.TID 0000.0001)                 7.360974960289787E+03,      /* J = 28 */
(PID.TID 0000.0001)                 7.417740726553981E+03,      /* J = 29 */
(PID.TID 0000.0001)                 7.474483897093503E+03,      /* J = 30 */
(PID.TID 0000.0001)                 7.531204299058815E+03,      /* J = 31 */
(PID.TID 0000.0001)                 7.587901759669735E+03,      /* J = 32 */
(PID.TID 0000.0001)                 7.644576106215967E+03,      /* J = 33 */
(PID.TID 0000.0001)                 7.701227166057623E+03,      /* J = 34 */
(PID.TID 0000.0001)                 7.757854766625747E+03,      /* J = 35 */
(PID.TID 0000.0001)                 7.814458735422849E+03,      /* J = 36 */
(PID.TID 0000.0001)                 7.871038900023425E+03,      /* J = 37 */
(PID.TID 0000.0001)                 7.927595088074479E+03,      /* J = 38 */
(PID.TID 0000.0001)                 7.984127127296055E+03,      /* J = 39 */
(PID.TID 0000.0001)                 8.040634845481757E+03,      /* J = 40 */
(PID.TID 0000.0001)                 8.097118070499275E+03,      /* J = 41 */
(PID.TID 0000.0001)                 8.153576630290919E+03,      /* J = 42 */
(PID.TID 0000.0001)                 8.210010352874109E+03,      /* J = 43 */
(PID.TID 0000.0001)                 8.266419066341947E+03,      /* J = 44 */
(PID.TID 0000.0001)                 8.322802598863705E+03,      /* J = 45 */
(PID.TID 0000.0001)                 8.379160778685373E+03,      /* J = 46 */
(PID.TID 0000.0001)                 8.435493434130152E+03,      /* J = 47 */
(PID.TID 0000.0001)                 8.491800393599013E+03,      /* J = 48 */
(PID.TID 0000.0001)                 8.548081485571185E+03,      /* J = 49 */
(PID.TID 0000.0001)                 8.604336538604706E+03,      /* J = 50 */
(PID.TID 0000.0001)                 8.660565381336924E+03,      /* J = 51 */
(PID.TID 0000.0001)                 8.716767842485036E+03,      /* J = 52 */
(PID.TID 0000.0001)                 8.772943750846600E+03,      /* J = 53 */
(PID.TID 0000.0001)                 8.829092935300054E+03,      /* J = 54 */
(PID.TID 0000.0001)                 8.885215224805244E+03,      /* J = 55 */
(PID.TID 0000.0001)                 8.941310448403947E+03,      /* J = 56 */
(PID.TID 0000.0001)                 8.997378435220378E+03,      /* J = 57 */
(PID.TID 0000.0001)                 9.053419014461731E+03,      /* J = 58 */
(PID.TID 0000.0001)                 9.109432015418679E+03,      /* J = 59 */
(PID.TID 0000.0001)                 9.165417267465908E+03,      /* J = 60 */
(PID.TID 0000.0001)                 9.221374600062631E+03,      /* J = 61 */
(PID.TID 0000.0001)                 9.277303842753110E+03,      /* J = 62 */
(PID.TID 0000.0001)                 9.333204825167171E+03,      /* J = 63 */
(PID.TID 0000.0001)                 9.389077377020727E+03,      /* J = 64 */
(PID.TID 0000.0001)                 9.444921328116297E+03,      /* J = 65 */
(PID.TID 0000.0001)                 9.500736508343525E+03,      /* J = 66 */
(PID.TID 0000.0001)                 9.556522747679681E+03,      /* J = 67 */
(PID.TID 0000.0001)                 9.612279876190212E+03,      /* J = 68 */
(PID.TID 0000.0001)                 9.668007724029234E+03,      /* J = 69 */
(PID.TID 0000.0001)                 9.723706121440056E+03,      /* J = 70 */
(PID.TID 0000.0001)                 9.779374898755706E+03,      /* J = 71 */
(PID.TID 0000.0001)                 9.835013886399427E+03,      /* J = 72 */
(PID.TID 0000.0001)                 9.890622914885218E+03,      /* J = 73 */
(PID.TID 0000.0001)                 9.946201814818334E+03,      /* J = 74 */
(PID.TID 0000.0001)                 1.000175041689580E+04,      /* J = 75 */
(PID.TID 0000.0001)                 1.005726855190695E+04,      /* J = 76 */
(PID.TID 0000.0001)                 1.011275605073392E+04,      /* J = 77 */
(PID.TID 0000.0001)                 1.016821274435215E+04,      /* J = 78 */
(PID.TID 0000.0001)                 1.022363846383095E+04,      /* J = 79 */
(PID.TID 0000.0001)                 1.027903304033395E+04,      /* J = 80 */
(PID.TID 0000.0001)                 1.033439630511968E+04,      /* J = 81 */
(PID.TID 0000.0001)                 1.038972808954202E+04,      /* J = 82 */
(PID.TID 0000.0001)                 1.044502822505077E+04,      /* J = 83 */
(PID.TID 0000.0001)                 1.050029654319212E+04,      /* J = 84 */
(PID.TID 0000.0001)                 1.055553287560919E+04,      /* J = 85 */
(PID.TID 0000.0001)                 1.061073705404253E+04,      /* J = 86 */
(PID.TID 0000.0001)                 1.066590891033064E+04,      /* J = 87 */
(PID.TID 0000.0001)                 1.072104827641048E+04,      /* J = 88 */
(PID.TID 0000.0001)                 1.077615498431797E+04,      /* J = 89 */
(PID.TID 0000.0001)                 1.083122886618854E+04,      /* J = 90 */
(PID.TID 0000.0001)                 1.088626975425758E+04,      /* J = 91 */
(PID.TID 0000.0001)                 1.094127748086099E+04,      /* J = 92 */
(PID.TID 0000.0001)                 1.099625187843571E+04,      /* J = 93 */
(PID.TID 0000.0001)                 1.105119277952020E+04,      /* J = 94 */
(PID.TID 0000.0001)                 1.110610001675492E+04,      /* J = 95 */
(PID.TID 0000.0001)                 1.116097342288293E+04,      /* J = 96 */
(PID.TID 0000.0001)                 1.121581283075030E+04,      /* J = 97 */
(PID.TID 0000.0001)                 1.127061807330668E+04,      /* J = 98 */
(PID.TID 0000.0001)                 1.132538898360582E+04,      /* J = 99 */
(PID.TID 0000.0001)                 1.138012539480601E+04       /* J =100 */
(PID.TID 0000.0001)     ;
(PID.TID 0000.0001) dyC =  /* dyC(:,1,:,1) ( units: m ) */
(PID.TID 0000.0001)    50 @  1.111774733520388E+04              /* I =  1: 50 */
(PID.TID 0000.0001)     ;
(PID.TID 0000.0001) dyC =  /* dyC(1,:,1,:) ( units: m ) */
(PID.TID 0000.0001)   100 @  1.111774733520388E+04              /* J =  1:100 */
(PID.TID 0000.0001)     ;
(PID.TID 0000.0001) dxV =  /* dxV(:,1,:,1) ( units: m ) */
(PID.TID 0000.0001)    50 @  5.791729693558576E+03              /* I =  1: 50 */
(PID.TID 0000.0001)     ;
(PID.TID 0000.0001) dxV =  /* dxV(1,:,1,:) ( units: m ) */
(PID.TID 0000.0001)                 5.791729693558576E+03,      /* J =  1 */
(PID.TID 0000.0001)                 5.849048855077854E+03,      /* J =  2 */
(PID.TID 0000.0001)                 5.906350199379949E+03,      /* J =  3 */
(PID.TID 0000.0001)                 5.963633551915032E+03,      /* J =  4 */
(PID.TID 0000.0001)                 6.020898738188074E+03,      /* J =  5 */
(PID.TID 0000.0001)                 6.078145583759388E+03,      /* J =  6 */
(PID.TID 0000.0001)                 6.135373914245153E+03,      /* J =  7 */
(PID.TID 0000.0001)                 6.192583555317951E+03,      /* J =  8 */
(PID.TID 0000.0001)                 6.249774332707294E+03,      /* J =  9 */
(PID.TID 0000.0001)                 6.306946072200154E+03,      /* J = 10 */
(PID.TID 0000.0001)                 6.364098599641497E+03,      /* J = 11 */
(PID.TID 0000.0001)                 6.421231740934816E+03,      /* J = 12 */
(PID.TID 0000.0001)                 6.478345322042654E+03,      /* J = 13 */
(PID.TID 0000.0001)                 6.535439168987135E+03,      /* J = 14 */
(PID.TID 0000.0001)                 6.592513107850500E+03,      /* J = 15 */
(PID.TID 0000.0001)                 6.649566964775637E+03,      /* J = 16 */
(PID.TID 0000.0001)                 6.706600565966598E+03,      /* J = 17 */
(PID.TID 0000.0001)                 6.763613737689147E+03,      /* J = 18 */
(PID.TID 0000.0001)                 6.820606306271281E+03,      /* J = 19 */
(PID.TID 0000.0001)                 6.877578098103740E+03,      /* J = 20 */
(PID.TID 0000.0001)                 6.934528939640570E+03,      /* J = 21 */
(PID.TID 0000.0001)                 6.991458657399629E+03,      /* J = 22 */
(PID.TID 0000.0001)                 7.048367077963129E+03,      /* J = 23 */
(PID.TID 0000.0001)                 7.105254027978149E+03,      /* J = 24 */
(PID.TID 0000.0001)                 7.162119334157175E+03,      /* J = 25 */
(PID.TID 0000.0001)                 7.218962823278620E+03,      /* J = 26 */
(PID.TID 0000.0001)                 7.275784322187360E+03,      /* J = 27 */
(PID.TID 0000.0001)                 7.332583657795253E+03,      /* J = 28 */
(PID.TID 0000.0001)                 7.389360657081677E+03,      /* J = 29 */
(PID.TID 0000.0001)                 7.446115147094042E+03,      /* J = 30 */
(PID.TID 0000.0001)                 7.502846954948329E+03,      /* J = 31 */
(PID.TID 0000.0001)                 7.559555907829611E+03,      /* J = 32 */
(PID.TID 0000.0001)                 7.616241832992587E+03,      /* J = 33 */
(PID.TID 0000.0001)                 7.672904557762095E+03,      /* J = 34 */
(PID.TID 0000.0001)                 7.729543909533650E+03,      /* J = 35 */
(PID.TID 0000.0001)                 7.786159715773963E+03,      /* J = 36 */
(PID.TID 0000.0001)                 7.842751804021470E+03,      /* J = 37 */
(PID.TID 0000.0001)                 7.899320001886857E+03,      /* J = 38 */
(PID.TID 0000.0001)                 7.955864137053582E+03,      /* J = 39 */
(PID.TID 0000.0001)                 8.012384037278402E+03,      /* J = 40 */
(PID.TID 0000.0001)                 8.068879530391900E+03,      /* J = 41 */
(PID.TID 0000.0001)                 8.125350444299005E+03,      /* J = 42 */
(PID.TID 0000.0001)                 8.181796606979530E+03,      /* J = 43 */
(PID.TID 0000.0001)                 8.238217846488658E+03,      /* J = 44 */
(PID.TID 0000.0001)                 8.294613990957514E+03,      /* J = 45 */
(PID.TID 0000.0001)                 8.350984868593665E+03,      /* J = 46 */
(PID.TID 0000.0001)                 8.407330307681643E+03,      /* J = 47 */
(PID.TID 0000.0001)                 8.463650136583461E+03,      /* J = 48 */
(PID.TID 0000.0001)                 8.519944183739159E+03,      /* J = 49 */
(PID.TID 0000.0001)                 8.576212277667308E+03,      /* J = 50 */
(PID.TID 0000.0001)                 8.632454246965530E+03,      /* J = 51 */
(PID.TID 0000.0001)                 8.688669920311038E+03,      /* J = 52 */
(PID.TID 0000.0001)                 8.744859126461139E+03,      /* J = 53 */
(PID.TID 0000.0001)                 8.801021694253765E+03,      /* J = 54 */
(PID.TID 0000.0001)                 8.857157452607997E+03,      /* J = 55 */
(PID.TID 0000.0001)                 8.913266230524581E+03,      /* J = 56 */
(PID.TID 0000.0001)                 8.969347857086450E+03,      /* J = 57 */
(PID.TID 0000.0001)                 9.025402161459237E+03,      /* J = 58 */
(PID.TID 0000.0001)                 9.081428972891812E+03,      /* J = 59 */
(PID.TID 0000.0001)                 9.137428120716793E+03,      /* J = 60 */
(PID.TID 0000.0001)                 9.193399434351066E+03,      /* J = 61 */
(PID.TID 0000.0001)                 9.249342743296300E+03,      /* J = 62 */
(PID.TID 0000.0001)                 9.305257877139473E+03,      /* J = 63 */
(PID.TID 0000.0001)                 9.361144665553391E+03,      /* J = 64 */
(PID.TID 0000.0001)                 9.417002938297206E+03,      /* J = 65 */
(PID.TID 0000.0001)                 9.472832525216931E+03,      /* J = 66 */
(PID.TID 0000.0001)                 9.528633256245968E+03,      /* J = 67 */
(PID.TID 0000.0001)                 9.584404961405600E+03,      /* J = 68 */
(PID.TID 0000.0001)                 9.640147470805550E+03,      /* J = 69 */
(PID.TID 0000.0001)                 9.695860614644464E+03,      /* J = 70 */
(PID.TID 0000.0001)                 9.751544223210447E+03,      /* J = 71 */
(PID.TID 0000.0001)                 9.807198126881565E+03,      /* J = 72 */
(PID.TID 0000.0001)                 9.862822156126382E+03,      /* J = 73 */
(PID.TID 0000.0001)                 9.918416141504455E+03,      /* J = 74 */
(PID.TID 0000.0001)                 9.973979913666863E+03,      /* J = 75 */
(PID.TID 0000.0001)                 1.002951330335672E+04,      /* J = 76 */
(PID.TID 0000.0001)                 1.008501614140969E+04,      /* J = 77 */
(PID.TID 0000.0001)                 1.014048825875450E+04,      /* J = 78 */
(PID.TID 0000.0001)                 1.019592948641347E+04,      /* J = 79 */
(PID.TID 0000.0001)                 1.025133965550300E+04,      /* J = 80 */
(PID.TID 0000.0001)                 1.030671859723410E+04,      /* J = 81 */
(PID.TID 0000.0001)                 1.036206614291292E+04,      /* J = 82 */
(PID.TID 0000.0001)                 1.041738212394122E+04,      /* J = 83 */
(PID.TID 0000.0001)                 1.047266637181695E+04,      /* J = 84 */
(PID.TID 0000.0001)                 1.052791871813469E+04,      /* J = 85 */
(PID.TID 0000.0001)                 1.058313899458622E+04,      /* J = 86 */
(PID.TID 0000.0001)                 1.063832703296099E+04,      /* J = 87 */
(PID.TID 0000.0001)                 1.069348266514667E+04,      /* J = 88 */
(PID.TID 0000.0001)                 1.074860572312964E+04,      /* J = 89 */
(PID.TID 0000.0001)                 1.080369603899551E+04,      /* J = 90 */
(PID.TID 0000.0001)                 1.085875344492962E+04,      /* J = 91 */
(PID.TID 0000.0001)                 1.091377777321755E+04,      /* J = 92 */
(PID.TID 0000.0001)                 1.096876885624567E+04,      /* J = 93 */
(PID.TID 0000.0001)                 1.102372652650160E+04,      /* J = 94 */
(PID.TID 0000.0001)                 1.107865061657475E+04,      /* J = 95 */
(PID.TID 0000.0001)                 1.113354095915680E+04,      /* J = 96 */
(PID.TID 0000.0001)                 1.118839738704227E+04,      /* J = 97 */
(PID.TID 0000.0001)                 1.124321973312895E+04,      /* J = 98 */
(PID.TID 0000.0001)                 1.129800783041847E+04,      /* J = 99 */
(PID.TID 0000.0001)                 1.135276151201679E+04       /* J =100 */
(PID.TID 0000.0001)     ;
(PID.TID 0000.0001) dyU =  /* dyU(:,1,:,1) ( units: m ) */
(PID.TID 0000.0001)    50 @  1.111774733520388E+04              /* I =  1: 50 */
(PID.TID 0000.0001)     ;
(PID.TID 0000.0001) dyU =  /* dyU(1,:,1,:) ( units: m ) */
(PID.TID 0000.0001)   100 @  1.111774733520388E+04              /* J =  1:100 */
(PID.TID 0000.0001)     ;
(PID.TID 0000.0001) rA  =  /* rA (:,1,:,1) ( units: m^2 ) */
(PID.TID 0000.0001)    50 @  6.470963377080289E+07              /* I =  1: 50 */
(PID.TID 0000.0001)     ;
(PID.TID 0000.0001) rA  =  /* rA (1,:,1,:) ( units: m^2 ) */
(PID.TID 0000.0001)                 6.470963377080289E+07,      /* J =  1 */
(PID.TID 0000.0001)                 6.534679484410104E+07,      /* J =  2 */
(PID.TID 0000.0001)                 6.598375685977945E+07,      /* J =  3 */
(PID.TID 0000.0001)                 6.662051787745729E+07,      /* J =  4 */
(PID.TID 0000.0001)                 6.725707595748492E+07,      /* J =  5 */
(PID.TID 0000.0001)                 6.789342916077879E+07,      /* J =  6 */
(PID.TID 0000.0001)                 6.852957554896304E+07,      /* J =  7 */
(PID.TID 0000.0001)                 6.916551318413351E+07,      /* J =  8 */
(PID.TID 0000.0001)                 6.980124012916450E+07,      /* J =  9 */
(PID.TID 0000.0001)                 7.043675444751994E+07,      /* J = 10 */
(PID.TID 0000.0001)                 7.107205420332426E+07,      /* J = 11 */
(PID.TID 0000.0001)                 7.170713746129155E+07,      /* J = 12 */
(PID.TID 0000.0001)                 7.234200228686719E+07,      /* J = 13 */
(PID.TID 0000.0001)                 7.297664674622770E+07,      /* J = 14 */
(PID.TID 0000.0001)                 7.361106890599781E+07,      /* J = 15 */
(PID.TID 0000.0001)                 7.424526683372219E+07,      /* J = 16 */
(PID.TID 0000.0001)                 7.487923859746441E+07,      /* J = 17 */
(PID.TID 0000.0001)                 7.551298226611364E+07,      /* J = 18 */
(PID.TID 0000.0001)                 7.614649590905435E+07,      /* J = 19 */
(PID.TID 0000.0001)                 7.677977759659100E+07,      /* J = 20 */
(PID.TID 0000.0001)                 7.741282539961770E+07,      /* J = 21 */
(PID.TID 0000.0001)                 7.804563738973619E+07,      /* J = 22 */
(PID.TID 0000.0001)                 7.867821163932665E+07,      /* J = 23 */
(PID.TID 0000.0001)                 7.931054622142966E+07,      /* J = 24 */
(PID.TID 0000.0001)                 7.994263920984067E+07,      /* J = 25 */
(PID.TID 0000.0001)                 8.057448867913349E+07,      /* J = 26 */
(PID.TID 0000.0001)                 8.120609270456599E+07,      /* J = 27 */
(PID.TID 0000.0001)                 8.183744936212724E+07,      /* J = 28 */
(PID.TID 0000.0001)                 8.246855672863193E+07,      /* J = 29 */
(PID.TID 0000.0001)                 8.309941288162594E+07,      /* J = 30 */
(PID.TID 0000.0001)                 8.373001589938636E+07,      /* J = 31 */
(PID.TID 0000.0001)                 8.436036386101587E+07,      /* J = 32 */
(PID.TID 0000.0001)                 8.499045484630123E+07,      /* J = 33 */
(PID.TID 0000.0001)                 8.562028693597265E+07,      /* J = 34 */
(PID.TID 0000.0001)                 8.624985821137366E+07,      /* J = 35 */
(PID.TID 0000.0001)                 8.687916675476770E+07,      /* J = 36 */
(PID.TID 0000.0001)                 8.750821064912586E+07,      /* J = 37 */
(PID.TID 0000.0001)                 8.813698797831558E+07,      /* J = 38 */
(PID.TID 0000.0001)                 8.876549682695904E+07,      /* J = 39 */
(PID.TID 0000.0001)                 8.939373528048050E+07,      /* J = 40 */
(PID.TID 0000.0001)                 9.002170142522410E+07,      /* J = 41 */
(PID.TID 0000.0001)                 9.064939334821798E+07,      /* J = 42 */
(PID.TID 0000.0001)                 9.127680913743389E+07,      /* J = 43 */
(PID.TID 0000.0001)                 9.190394688169266E+07,      /* J = 44 */
(PID.TID 0000.0001)                 9.253080467056999E+07,      /* J = 45 */
(PID.TID 0000.0001)                 9.315738059456144E+07,      /* J = 46 */
(PID.TID 0000.0001)                 9.378367274503537E+07,      /* J = 47 */
(PID.TID 0000.0001)                 9.440967921416211E+07,      /* J = 48 */
(PID.TID 0000.0001)                 9.503539809503193E+07,      /* J = 49 */
(PID.TID 0000.0001)                 9.566082748163140E+07,      /* J = 50 */
(PID.TID 0000.0001)                 9.628596546870193E+07,      /* J = 51 */
(PID.TID 0000.0001)                 9.691081015209354E+07,      /* J = 52 */
(PID.TID 0000.0001)                 9.753535962826957E+07,      /* J = 53 */
(PID.TID 0000.0001)                 9.815961199489628E+07,      /* J = 54 */
(PID.TID 0000.0001)                 9.878356535030043E+07,      /* J = 55 */
(PID.TID 0000.0001)                 9.940721779379947E+07,      /* J = 56 */
(PID.TID 0000.0001)                 1.000305674257251E+08,      /* J = 57 */
(PID.TID 0000.0001)                 1.006536123471403E+08,      /* J = 58 */
(PID.TID 0000.0001)                 1.012763506602401E+08,      /* J = 59 */
(PID.TID 0000.0001)                 1.018987804679982E+08,      /* J = 60 */
(PID.TID 0000.0001)                 1.025208998744024E+08,      /* J = 61 */
(PID.TID 0000.0001)                 1.031427069843603E+08,      /* J = 62 */
(PID.TID 0000.0001)                 1.037641999037469E+08,      /* J = 63 */
(PID.TID 0000.0001)                 1.043853767394042E+08,      /* J = 64 */
(PID.TID 0000.0001)                 1.050062355990467E+08,      /* J = 65 */
(PID.TID 0000.0001)                 1.056267745915686E+08,      /* J = 66 */
(PID.TID 0000.0001)                 1.062469918265245E+08,      /* J = 67 */
(PID.TID 0000.0001)                 1.068668854147899E+08,      /* J = 68 */
(PID.TID 0000.0001)                 1.074864534679241E+08,      /* J = 69 */
(PID.TID 0000.0001)                 1.081056940987605E+08,      /* J = 70 */
(PID.TID 0000.0001)                 1.087246054208165E+08,      /* J = 71 */
(PID.TID 0000.0001)                 1.093431855489537E+08,      /* J = 72 */
(PID.TID 0000.0001)                 1.099614325987181E+08,      /* J = 73 */
(PID.TID 0000.0001)                 1.105793446869293E+08,      /* J = 74 */
(PID.TID 0000.0001)                 1.111969199312560E+08,      /* J = 75 */
(PID.TID 0000.0001)                 1.118141564504991E+08,      /* J = 76 */
(PID.TID 0000.0001)                 1.124310523644033E+08,      /* J = 77 */
(PID.TID 0000.0001)                 1.130476057938687E+08,      /* J = 78 */
(PID.TID 0000.0001)                 1.136638148606683E+08,      /* J = 79 */
(PID.TID 0000.0001)                 1.142796776878255E+08,      /* J = 80 */
(PID.TID 0000.0001)                 1.148951923992126E+08,      /* J = 81 */
(PID.TID 0000.0001)                 1.155103571199756E+08,      /* J = 82 */
(PID.TID 0000.0001)                 1.161251699761098E+08,      /* J = 83 */
(PID.TID 0000.0001)                 1.167396290948606E+08,      /* J = 84 */
(PID.TID 0000.0001)                 1.173537326044641E+08,      /* J = 85 */
(PID.TID 0000.0001)                 1.179674786342178E+08,      /* J = 86 */
(PID.TID 0000.0001)                 1.185808653145988E+08,      /* J = 87 */
(PID.TID 0000.0001)                 1.191938907770982E+08,      /* J = 88 */
(PID.TID 0000.0001)                 1.198065531543159E+08,      /* J = 89 */
(PID.TID 0000.0001)                 1.204188505800075E+08,      /* J = 90 */
(PID.TID 0000.0001)                 1.210307811890137E+08,      /* J = 91 */
(PID.TID 0000.0001)                 1.216423431172366E+08,      /* J = 92 */
(PID.TID 0000.0001)                 1.222535345018050E+08,      /* J = 93 */
(PID.TID 0000.0001)                 1.228643534808854E+08,      /* J = 94 */
(PID.TID 0000.0001)                 1.234747981938710E+08,      /* J = 95 */
(PID.TID 0000.0001)                 1.240848667811927E+08,      /* J = 96 */
(PID.TID 0000.0001)                 1.246945573844846E+08,      /* J = 97 */
(PID.TID 0000.0001)                 1.253038681465364E+08,      /* J = 98 */
(PID.TID 0000.0001)                 1.259127972112936E+08,      /* J = 99 */
(PID.TID 0000.0001)                 1.265213427237870E+08       /* J =100 */
(PID.TID 0000.0001)     ;
(PID.TID 0000.0001) rAw =  /* rAw(:,1,:,1) ( units: m^2 ) */
(PID.TID 0000.0001)    50 @  6.470963377080289E+07              /* I =  1: 50 */
(PID.TID 0000.0001)     ;
(PID.TID 0000.0001) rAw =  /* rAw(1,:,1,:) ( units: m^2 ) */
(PID.TID 0000.0001)                 6.470963377080289E+07,      /* J =  1 */
(PID.TID 0000.0001)                 6.534679484410104E+07,      /* J =  2 */
(PID.TID 0000.0001)                 6.598375685977945E+07,      /* J =  3 */
(PID.TID 0000.0001)                 6.662051787745729E+07,      /* J =  4 */
(PID.TID 0000.0001)                 6.725707595748492E+07,      /* J =  5 */
(PID.TID 0000.0001)                 6.789342916077879E+07,      /* J =  6 */
(PID.TID 0000.0001)                 6.852957554896304E+07,      /* J =  7 */
(PID.TID 0000.0001)                 6.916551318413351E+07,      /* J =  8 */
(PID.TID 0000.0001)                 6.980124012916450E+07,      /* J =  9 */
(PID.TID 0000.0001)                 7.043675444751994E+07,      /* J = 10 */
(PID.TID 0000.0001)                 7.107205420332426E+07,      /* J = 11 */
(PID.TID 0000.0001)                 7.170713746129155E+07,      /* J = 12 */
(PID.TID 0000.0001)                 7.234200228686719E+07,      /* J = 13 */
(PID.TID 0000.0001)                 7.297664674622770E+07,      /* J = 14 */
(PID.TID 0000.0001)                 7.361106890599781E+07,      /* J = 15 */
(PID.TID 0000.0001)                 7.424526683372219E+07,      /* J = 16 */
(PID.TID 0000.0001)                 7.487923859746441E+07,      /* J = 17 */
(PID.TID 0000.0001)                 7.551298226611364E+07,      /* J = 18 */
(PID.TID 0000.0001)                 7.614649590905435E+07,      /* J = 19 */
(PID.TID 0000.0001)                 7.677977759659100E+07,      /* J = 20 */
(PID.TID 0000.0001)                 7.741282539961770E+07,      /* J = 21 */
(PID.TID 0000.0001)                 7.804563738973619E+07,      /* J = 22 */
(PID.TID 0000.0001)                 7.867821163932665E+07,      /* J = 23 */
(PID.TID 0000.0001)                 7.931054622142966E+07,      /* J = 24 */
(PID.TID 0000.0001)                 7.994263920984067E+07,      /* J = 25 */
(PID.TID 0000.0001)                 8.057448867913349E+07,      /* J = 26 */
(PID.TID 0000.0001)                 8.120609270456599E+07,      /* J = 27 */
(PID.TID 0000.0001)                 8.183744936212724E+07,      /* J = 28 */
(PID.TID 0000.0001)                 8.246855672863193E+07,      /* J = 29 */
(PID.TID 0000.0001)                 8.309941288162594E+07,      /* J = 30 */
(PID.TID 0000.0001)                 8.373001589938636E+07,      /* J = 31 */
(PID.TID 0000.0001)                 8.436036386101587E+07,      /* J = 32 */
(PID.TID 0000.0001)                 8.499045484630123E+07,      /* J = 33 */
(PID.TID 0000.0001)                 8.562028693597265E+07,      /* J = 34 */
(PID.TID 0000.0001)                 8.624985821137366E+07,      /* J = 35 */
(PID.TID 0000.0001)                 8.687916675476770E+07,      /* J = 36 */
(PID.TID 0000.0001)                 8.750821064912586E+07,      /* J = 37 */
(PID.TID 0000.0001)                 8.813698797831558E+07,      /* J = 38 */
(PID.TID 0000.0001)                 8.876549682695904E+07,      /* J = 39 */
(PID.TID 0000.0001)                 8.939373528048050E+07,      /* J = 40 */
(PID.TID 0000.0001)                 9.002170142522410E+07,      /* J = 41 */
(PID.TID 0000.0001)                 9.064939334821798E+07,      /* J = 42 */
(PID.TID 0000.0001)                 9.127680913743389E+07,      /* J = 43 */
(PID.TID 0000.0001)                 9.190394688169266E+07,      /* J = 44 */
(PID.TID 0000.0001)                 9.253080467056999E+07,      /* J = 45 */
(PID.TID 0000.0001)                 9.315738059456144E+07,      /* J = 46 */
(PID.TID 0000.0001)                 9.378367274503537E+07,      /* J = 47 */
(PID.TID 0000.0001)                 9.440967921416211E+07,      /* J = 48 */
(PID.TID 0000.0001)                 9.503539809503193E+07,      /* J = 49 */
(PID.TID 0000.0001)                 9.566082748163140E+07,      /* J = 50 */
(PID.TID 0000.0001)                 9.628596546870193E+07,      /* J = 51 */
(PID.TID 0000.0001)                 9.691081015209354E+07,      /* J = 52 */
(PID.TID 0000.0001)                 9.753535962826957E+07,      /* J = 53 */
(PID.TID 0000.0001)                 9.815961199489628E+07,      /* J = 54 */
(PID.TID 0000.0001)                 9.878356535030043E+07,      /* J = 55 */
(PID.TID 0000.0001)                 9.940721779379947E+07,      /* J = 56 */
(PID.TID 0000.0001)                 1.000305674257251E+08,      /* J = 57 */
(PID.TID 0000.0001)                 1.006536123471403E+08,      /* J = 58 */
(PID.TID 0000.0001)                 1.012763506602401E+08,      /* J = 59 */
(PID.TID 0000.0001)                 1.018987804679982E+08,      /* J = 60 */
(PID.TID 0000.0001)                 1.025208998744024E+08,      /* J = 61 */
(PID.TID 0000.0001)                 1.031427069843603E+08,      /* J = 62 */
(PID.TID 0000.0001)                 1.037641999037469E+08,      /* J = 63 */
(PID.TID 0000.0001)                 1.043853767394042E+08,      /* J = 64 */
(PID.TID 0000.0001)                 1.050062355990467E+08,      /* J = 65 */
(PID.TID 0000.0001)                 1.056267745915686E+08,      /* J = 66 */
(PID.TID 0000.0001)                 1.062469918265245E+08,      /* J = 67 */
(PID.TID 0000.0001)                 1.068668854147899E+08,      /* J = 68 */
(PID.TID 0000.0001)                 1.074864534679241E+08,      /* J = 69 */
(PID.TID 0000.0001)                 1.081056940987605E+08,      /* J = 70 */
(PID.TID 0000.0001)                 1.087246054208165E+08,      /* J = 71 */
(PID.TID 0000.0001)                 1.093431855489537E+08,      /* J = 72 */
(PID.TID 0000.0001)                 1.099614325987181E+08,      /* J = 73 */
(PID.TID 0000.0001)                 1.105793446869293E+08,      /* J = 74 */
(PID.TID 0000.0001)                 1.111969199312560E+08,      /* J = 75 */
(PID.TID 0000.0001)                 1.118141564504991E+08,      /* J = 76 */
(PID.TID 0000.0001)                 1.124310523644033E+08,      /* J = 77 */
(PID.TID 0000.0001)                 1.130476057938687E+08,      /* J = 78 */
(PID.TID 0000.0001)                 1.136638148606683E+08,      /* J = 79 */
(PID.TID 0000.0001)                 1.142796776878255E+08,      /* J = 80 */
(PID.TID 0000.0001)                 1.148951923992126E+08,      /* J = 81 */
(PID.TID 0000.0001)                 1.155103571199756E+08,      /* J = 82 */
(PID.TID 0000.0001)                 1.161251699761098E+08,      /* J = 83 */
(PID.TID 0000.0001)                 1.167396290948606E+08,      /* J = 84 */
(PID.TID 0000.0001)                 1.173537326044641E+08,      /* J = 85 */
(PID.TID 0000.0001)                 1.179674786342178E+08,      /* J = 86 */
(PID.TID 0000.0001)                 1.185808653145988E+08,      /* J = 87 */
(PID.TID 0000.0001)                 1.191938907770982E+08,      /* J = 88 */
(PID.TID 0000.0001)                 1.198065531543159E+08,      /* J = 89 */
(PID.TID 0000.0001)                 1.204188505800075E+08,      /* J = 90 */
(PID.TID 0000.0001)                 1.210307811890137E+08,      /* J = 91 */
(PID.TID 0000.0001)                 1.216423431172366E+08,      /* J = 92 */
(PID.TID 0000.0001)                 1.222535345018050E+08,      /* J = 93 */
(PID.TID 0000.0001)                 1.228643534808854E+08,      /* J = 94 */
(PID.TID 0000.0001)                 1.234747981938710E+08,      /* J = 95 */
(PID.TID 0000.0001)                 1.240848667811927E+08,      /* J = 96 */
(PID.TID 0000.0001)                 1.246945573844846E+08,      /* J = 97 */
(PID.TID 0000.0001)                 1.253038681465364E+08,      /* J = 98 */
(PID.TID 0000.0001)                 1.259127972112936E+08,      /* J = 99 */
(PID.TID 0000.0001)                 1.265213427237870E+08       /* J =100 */
(PID.TID 0000.0001)     ;
(PID.TID 0000.0001) rAs =  /* rAs(:,1,:,1) ( units: m^2 ) */
(PID.TID 0000.0001)    50 @  6.439097919401864E+07              /* I =  1: 50 */
(PID.TID 0000.0001)     ;
(PID.TID 0000.0001) rAs =  /* rAs(1,:,1,:) ( units: m^2 ) */
(PID.TID 0000.0001)                 6.439097919401864E+07,      /* J =  1 */
(PID.TID 0000.0001)                 6.502823906837179E+07,      /* J =  2 */
(PID.TID 0000.0001)                 6.566530085543716E+07,      /* J =  3 */
(PID.TID 0000.0001)                 6.630216261459803E+07,      /* J =  4 */
(PID.TID 0000.0001)                 6.693882240587452E+07,      /* J =  5 */
(PID.TID 0000.0001)                 6.757527828990008E+07,      /* J =  6 */
(PID.TID 0000.0001)                 6.821152832789779E+07,      /* J =  7 */
(PID.TID 0000.0001)                 6.884757058175126E+07,      /* J =  8 */
(PID.TID 0000.0001)                 6.948340311398090E+07,      /* J =  9 */
(PID.TID 0000.0001)                 7.011902398769690E+07,      /* J = 10 */
(PID.TID 0000.0001)                 7.075443126669341E+07,      /* J = 11 */
(PID.TID 0000.0001)                 7.138962301544867E+07,      /* J = 12 */
(PID.TID 0000.0001)                 7.202459729903063E+07,      /* J = 13 */
(PID.TID 0000.0001)                 7.265935218316765E+07,      /* J = 14 */
(PID.TID 0000.0001)                 7.329388573434296E+07,      /* J = 15 */
(PID.TID 0000.0001)                 7.392819601962943E+07,      /* J = 16 */
(PID.TID 0000.0001)                 7.456228110680762E+07,      /* J = 17 */
(PID.TID 0000.0001)                 7.519613906436566E+07,      /* J = 18 */
(PID.TID 0000.0001)                 7.582976796140501E+07,      /* J = 19 */
(PID.TID 0000.0001)                 7.646316586782910E+07,      /* J = 20 */
(PID.TID 0000.0001)                 7.709633085422541E+07,      /* J = 21 */
(PID.TID 0000.0001)                 7.772926099177113E+07,      /* J = 22 */
(PID.TID 0000.0001)                 7.836195435256335E+07,      /* J = 23 */
(PID.TID 0000.0001)                 7.899440900921808E+07,      /* J = 24 */
(PID.TID 0000.0001)                 7.962662303520055E+07,      /* J = 25 */
(PID.TID 0000.0001)                 8.025859450470714E+07,      /* J = 26 */
(PID.TID 0000.0001)                 8.089032149259475E+07,      /* J = 27 */
(PID.TID 0000.0001)                 8.152180207452223E+07,      /* J = 28 */
(PID.TID 0000.0001)                 8.215303432695043E+07,      /* J = 29 */
(PID.TID 0000.0001)                 8.278401632695346E+07,      /* J = 30 */
(PID.TID 0000.0001)                 8.341474615247822E+07,      /* J = 31 */
(PID.TID 0000.0001)                 8.404522188224998E+07,      /* J = 32 */
(PID.TID 0000.0001)                 8.467544159567805E+07,      /* J = 33 */
(PID.TID 0000.0001)                 8.530540337302092E+07,      /* J = 34 */
(PID.TID 0000.0001)                 8.593510529533908E+07,      /* J = 35 */
(PID.TID 0000.0001)                 8.656454544440059E+07,      /* J = 36 */
(PID.TID 0000.0001)                 8.719372190284635E+07,      /* J = 37 */
(PID.TID 0000.0001)                 8.782263275409557E+07,      /* J = 38 */
(PID.TID 0000.0001)                 8.845127608236952E+07,      /* J = 39 */
(PID.TID 0000.0001)                 8.907964997273858E+07,      /* J = 40 */
(PID.TID 0000.0001)                 8.970775251102796E+07,      /* J = 41 */
(PID.TID 0000.0001)                 9.033558178395921E+07,      /* J = 42 */
(PID.TID 0000.0001)                 9.096313587903227E+07,      /* J = 43 */
(PID.TID 0000.0001)                 9.159041288459623E+07,      /* J = 44 */
(PID.TID 0000.0001)                 9.221741088992015E+07,      /* J = 45 */
(PID.TID 0000.0001)                 9.284412798498066E+07,      /* J = 46 */
(PID.TID 0000.0001)                 9.347056226076873E+07,      /* J = 47 */
(PID.TID 0000.0001)                 9.409671180895932E+07,      /* J = 48 */
(PID.TID 0000.0001)                 9.472257472228888E+07,      /* J = 49 */
(PID.TID 0000.0001)                 9.534814909420149E+07,      /* J = 50 */
(PID.TID 0000.0001)                 9.597343301913190E+07,      /* J = 51 */
(PID.TID 0000.0001)                 9.659842459236403E+07,      /* J = 52 */
(PID.TID 0000.0001)                 9.722312190998378E+07,      /* J = 53 */
(PID.TID 0000.0001)                 9.784752306916212E+07,      /* J = 54 */
(PID.TID 0000.0001)                 9.847162616780120E+07,      /* J = 55 */
(PID.TID 0000.0001)                 9.909542930479389E+07,      /* J = 56 */
(PID.TID 0000.0001)                 9.971893057990581E+07,      /* J = 57 */
(PID.TID 0000.0001)                 1.003421280938932E+08,      /* J = 58 */
(PID.TID 0000.0001)                 1.009650199483144E+08,      /* J = 59 */
(PID.TID 0000.0001)                 1.015876042458127E+08,      /* J = 60 */
(PID.TID 0000.0001)                 1.022098790898334E+08,      /* J = 61 */
(PID.TID 0000.0001)                 1.028318425848597E+08,      /* J = 62 */
(PID.TID 0000.0001)                 1.034534928362239E+08,      /* J = 63 */
(PID.TID 0000.0001)                 1.040748279503199E+08,      /* J = 64 */
(PID.TID 0000.0001)                 1.046958460344376E+08,      /* J = 65 */
(PID.TID 0000.0001)                 1.053165451968815E+08,      /* J = 66 */
(PID.TID 0000.0001)                 1.059369235468288E+08,      /* J = 67 */
(PID.TID 0000.0001)                 1.065569791945417E+08,      /* J = 68 */
(PID.TID 0000.0001)                 1.071767102512258E+08,      /* J = 69 */
(PID.TID 0000.0001)                 1.077961148290539E+08,      /* J = 70 */
(PID.TID 0000.0001)                 1.084151910412367E+08,      /* J = 71 */
(PID.TID 0000.0001)                 1.090339370019284E+08,      /* J = 72 */
(PID.TID 0000.0001)                 1.096523508263446E+08,      /* J = 73 */
(PID.TID 0000.0001)                 1.102704306306916E+08,      /* J = 74 */
(PID.TID 0000.0001)                 1.108881745321664E+08,      /* J = 75 */
(PID.TID 0000.0001)                 1.115055806490511E+08,      /* J = 76 */
(PID.TID 0000.0001)                 1.121226471005947E+08,      /* J = 77 */
(PID.TID 0000.0001)                 1.127393720071080E+08,      /* J = 78 */
(PID.TID 0000.0001)                 1.133557534899393E+08,      /* J = 79 */
(PID.TID 0000.0001)                 1.139717896714750E+08,      /* J = 80 */
(PID.TID 0000.0001)                 1.145874786751864E+08,      /* J = 81 */
(PID.TID 0000.0001)                 1.152028186255828E+08,      /* J = 82 */
(PID.TID 0000.0001)                 1.158178076481876E+08,      /* J = 83 */
(PID.TID 0000.0001)                 1.164324438696802E+08,      /* J = 84 */
(PID.TID 0000.0001)                 1.170467254177541E+08,      /* J = 85 */
(PID.TID 0000.0001)                 1.176606504211880E+08,      /* J = 86 */
(PID.TID 0000.0001)                 1.182742170098927E+08,      /* J = 87 */
(PID.TID 0000.0001)                 1.188874233148169E+08,      /* J = 88 */
(PID.TID 0000.0001)                 1.195002674680178E+08,      /* J = 89 */
(PID.TID 0000.0001)                 1.201127476027324E+08,      /* J = 90 */
(PID.TID 0000.0001)                 1.207248618531171E+08,      /* J = 91 */
(PID.TID 0000.0001)                 1.213366083546731E+08,      /* J = 92 */
(PID.TID 0000.0001)                 1.219479852438687E+08,      /* J = 93 */
(PID.TID 0000.0001)                 1.225589906583516E+08,      /* J = 94 */
(PID.TID 0000.0001)                 1.231696227369014E+08,      /* J = 95 */
(PID.TID 0000.0001)                 1.237798796194069E+08,      /* J = 96 */
(PID.TID 0000.0001)                 1.243897594469357E+08,      /* J = 97 */
(PID.TID 0000.0001)                 1.249992603617116E+08,      /* J = 98 */
(PID.TID 0000.0001)                 1.256083805070198E+08,      /* J = 99 */
(PID.TID 0000.0001)                 1.262171180274426E+08       /* J =100 */
(PID.TID 0000.0001)     ;
(PID.TID 0000.0001) globalArea = /* Integrated horizontal Area (m^2) */
(PID.TID 0000.0001)                 4.665024516720103E+11
(PID.TID 0000.0001)     ;
(PID.TID 0000.0001) // =======================================================
(PID.TID 0000.0001) // End of Model config. summary
(PID.TID 0000.0001) // =======================================================
(PID.TID 0000.0001) 
(PID.TID 0000.0001) // =======================================================
(PID.TID 0000.0001) // Field Initial Temperature at iteration          1
(PID.TID 0000.0001) // CMIN =          1.000000000000000E+32
(PID.TID 0000.0001) // CMAX =         -1.000000000000000E+32
(PID.TID 0000.0001) // CINT =          0.000000000000000E+00
(PID.TID 0000.0001) // SYMBOLS (CMIN->CMAX): -abcdefghijklmnopqrstuvwxyz+
(PID.TID 0000.0001) //                  0.0: .
(PID.TID 0000.0001) // RANGE I (Lo:Hi:Step):(   1:  50:   1)
(PID.TID 0000.0001) // RANGE J (Lo:Hi:Step):( 100:   1:  -1)
(PID.TID 0000.0001) // RANGE K (Lo:Hi:Step):(   1:   1:   1)
(PID.TID 0000.0001) // =======================================================
(PID.TID 0000.0001) // =======================================================
(PID.TID 0000.0001) // END OF FIELD                                          =
(PID.TID 0000.0001) // =======================================================
(PID.TID 0000.0001) 
(PID.TID 0000.0001) // =======================================================
(PID.TID 0000.0001) // Field Initial Salinity at iteration          1
(PID.TID 0000.0001) // CMIN =          1.000000000000000E+32
(PID.TID 0000.0001) // CMAX =         -1.000000000000000E+32
(PID.TID 0000.0001) // CINT =          0.000000000000000E+00
(PID.TID 0000.0001) // SYMBOLS (CMIN->CMAX): -abcdefghijklmnopqrstuvwxyz+
(PID.TID 0000.0001) //                  0.0: .
(PID.TID 0000.0001) // RANGE I (Lo:Hi:Step):(   1:  50:   1)
(PID.TID 0000.0001) // RANGE J (Lo:Hi:Step):( 100:   1:  -1)
(PID.TID 0000.0001) // RANGE K (Lo:Hi:Step):(   1:   1:   1)
(PID.TID 0000.0001) // =======================================================
(PID.TID 0000.0001) // =======================================================
(PID.TID 0000.0001) // END OF FIELD                                          =
(PID.TID 0000.0001) // =======================================================
(PID.TID 0000.0001) 
(PID.TID 0000.0001) Start initial hydrostatic pressure computation
(PID.TID 0000.0001) Pressure is predetermined for buoyancyRelation OCEANIC
(PID.TID 0000.0001) 
(PID.TID 0000.0001) // =======================================================
(PID.TID 0000.0001) // Model current state
(PID.TID 0000.0001) // =======================================================
(PID.TID 0000.0001) 
(PID.TID 0000.0001) // =======================================================
(PID.TID 0000.0001) // Begin MONITOR dynamic field statistics
(PID.TID 0000.0001) // =======================================================
(PID.TID 0000.0001) %MON time_tsnumber                =                     0
(PID.TID 0000.0001) %MON time_secondsf                =   0.0000000000000E+00
(PID.TID 0000.0001) %MON dynstat_eta_max              =   0.0000000000000E+00
(PID.TID 0000.0001) %MON dynstat_eta_min              =   0.0000000000000E+00
(PID.TID 0000.0001) %MON dynstat_eta_mean             =   0.0000000000000E+00
(PID.TID 0000.0001) %MON dynstat_eta_sd               =   0.0000000000000E+00
(PID.TID 0000.0001) %MON dynstat_eta_del2             =   0.0000000000000E+00
(PID.TID 0000.0001) %MON dynstat_uvel_max             =   0.0000000000000E+00
(PID.TID 0000.0001) %MON dynstat_uvel_min             =   0.0000000000000E+00
(PID.TID 0000.0001) %MON dynstat_uvel_mean            =   0.0000000000000E+00
(PID.TID 0000.0001) %MON dynstat_uvel_sd              =   0.0000000000000E+00
(PID.TID 0000.0001) %MON dynstat_uvel_del2            =   0.0000000000000E+00
(PID.TID 0000.0001) %MON dynstat_vvel_max             =   0.0000000000000E+00
(PID.TID 0000.0001) %MON dynstat_vvel_min             =   0.0000000000000E+00
(PID.TID 0000.0001) %MON dynstat_vvel_mean            =   0.0000000000000E+00
(PID.TID 0000.0001) %MON dynstat_vvel_sd              =   0.0000000000000E+00
(PID.TID 0000.0001) %MON dynstat_vvel_del2            =   0.0000000000000E+00
(PID.TID 0000.0001) %MON dynstat_wvel_max             =   0.0000000000000E+00
(PID.TID 0000.0001) %MON dynstat_wvel_min             =   0.0000000000000E+00
(PID.TID 0000.0001) %MON dynstat_wvel_mean            =   0.0000000000000E+00
(PID.TID 0000.0001) %MON dynstat_wvel_sd              =   0.0000000000000E+00
(PID.TID 0000.0001) %MON dynstat_wvel_del2            =   0.0000000000000E+00
(PID.TID 0000.0001) %MON dynstat_theta_max            =  -1.9000000000000E+00
(PID.TID 0000.0001) %MON dynstat_theta_min            =  -1.9000000000000E+00
(PID.TID 0000.0001) %MON dynstat_theta_mean           =  -1.9000000000000E+00
(PID.TID 0000.0001) %MON dynstat_theta_sd             =   0.0000000000000E+00
(PID.TID 0000.0001) %MON dynstat_theta_del2           =   0.0000000000000E+00
(PID.TID 0000.0001) %MON dynstat_salt_max             =   3.4400000000000E+01
(PID.TID 0000.0001) %MON dynstat_salt_min             =   3.4400000000000E+01
(PID.TID 0000.0001) %MON dynstat_salt_mean            =   3.4400000000002E+01
(PID.TID 0000.0001) %MON dynstat_salt_sd              =   2.0961010704923E-12
(PID.TID 0000.0001) %MON dynstat_salt_del2            =   0.0000000000000E+00
(PID.TID 0000.0001) %MON extforcing_qnet_max          =   0.0000000000000E+00
(PID.TID 0000.0001) %MON extforcing_qnet_min          =   0.0000000000000E+00
(PID.TID 0000.0001) %MON extforcing_qnet_mean         =   0.0000000000000E+00
(PID.TID 0000.0001) %MON extforcing_qnet_sd           =   0.0000000000000E+00
(PID.TID 0000.0001) %MON extforcing_qnet_del2         =   0.0000000000000E+00
(PID.TID 0000.0001) %MON extforcing_qsw_max           =   0.0000000000000E+00
(PID.TID 0000.0001) %MON extforcing_qsw_min           =   0.0000000000000E+00
(PID.TID 0000.0001) %MON extforcing_qsw_mean          =   0.0000000000000E+00
(PID.TID 0000.0001) %MON extforcing_qsw_sd            =   0.0000000000000E+00
(PID.TID 0000.0001) %MON extforcing_qsw_del2          =   0.0000000000000E+00
(PID.TID 0000.0001) %MON extforcing_empmr_max         =   0.0000000000000E+00
(PID.TID 0000.0001) %MON extforcing_empmr_min         =   0.0000000000000E+00
(PID.TID 0000.0001) %MON extforcing_empmr_mean        =   0.0000000000000E+00
(PID.TID 0000.0001) %MON extforcing_empmr_sd          =   0.0000000000000E+00
(PID.TID 0000.0001) %MON extforcing_empmr_del2        =   0.0000000000000E+00
(PID.TID 0000.0001) %MON advcfl_uvel_max              =   0.0000000000000E+00
(PID.TID 0000.0001) %MON advcfl_vvel_max              =   0.0000000000000E+00
(PID.TID 0000.0001) %MON advcfl_wvel_max              =   0.0000000000000E+00
(PID.TID 0000.0001) %MON advcfl_W_hf_max              =   0.0000000000000E+00
(PID.TID 0000.0001) %MON pe_b_mean                    =   0.0000000000000E+00
(PID.TID 0000.0001) %MON ke_max                       =   0.0000000000000E+00
(PID.TID 0000.0001) %MON ke_mean                      =   0.0000000000000E+00
(PID.TID 0000.0001) %MON ke_vol                       =   2.9241705273104E+14
(PID.TID 0000.0001) %MON vort_r_min                   =   0.0000000000000E+00
(PID.TID 0000.0001) %MON vort_r_max                   =   0.0000000000000E+00
(PID.TID 0000.0001) %MON vort_a_mean                  =  -1.4007437277915E-04
(PID.TID 0000.0001) %MON vort_a_sd                    =   1.7682771465337E-06
(PID.TID 0000.0001) %MON vort_p_mean                  =  -1.5039772194955E-04
(PID.TID 0000.0001) %MON vort_p_sd                    =   8.7081213929711E-05
(PID.TID 0000.0001) %MON surfExpan_theta_mean         =   0.0000000000000E+00
(PID.TID 0000.0001) %MON surfExpan_salt_mean          =   0.0000000000000E+00
(PID.TID 0000.0001) // =======================================================
(PID.TID 0000.0001) // End MONITOR dynamic field statistics
(PID.TID 0000.0001) // =======================================================
 cg2d: Sum(rhs),rhsMax =  -1.83186799063151E-14  3.88700162323895E-14
(PID.TID 0000.0001)                    cg2d_init_res =    2.18953287600515E+01
(PID.TID 0000.0001)                       cg2d_iters =   216
(PID.TID 0000.0001)                         cg2d_res =    9.20750847985007E-14
(PID.TID 0000.0001) // =======================================================
(PID.TID 0000.0001) // Begin MONITOR dynamic field statistics
(PID.TID 0000.0001) // =======================================================
(PID.TID 0000.0001) %MON time_tsnumber                =                     1
(PID.TID 0000.0001) %MON time_secondsf                =   1.8000000000000E+03
(PID.TID 0000.0001) %MON dynstat_eta_max              =   2.9172428893540E-14
(PID.TID 0000.0001) %MON dynstat_eta_min              =  -1.8475101007472E-14
(PID.TID 0000.0001) %MON dynstat_eta_mean             =   2.9748584938996E-30
(PID.TID 0000.0001) %MON dynstat_eta_sd               =   7.3556156094534E-15
(PID.TID 0000.0001) %MON dynstat_eta_del2             =   5.3829126889289E-16
(PID.TID 0000.0001) %MON dynstat_uvel_max             =   1.0788672123772E-15
(PID.TID 0000.0001) %MON dynstat_uvel_min             =  -1.2238471730638E-15
(PID.TID 0000.0001) %MON dynstat_uvel_mean            =   9.9170813469251E-17
(PID.TID 0000.0001) %MON dynstat_uvel_sd              =   3.5676722034974E-16
(PID.TID 0000.0001) %MON dynstat_uvel_del2            =   7.1220547327556E-17
(PID.TID 0000.0001) %MON dynstat_vvel_max             =   9.6860214043329E-17
(PID.TID 0000.0001) %MON dynstat_vvel_min             =  -4.1124222343785E-15
(PID.TID 0000.0001) %MON dynstat_vvel_mean            =  -9.0699308283666E-16
(PID.TID 0000.0001) %MON dynstat_vvel_sd              =   1.1550308930280E-15
(PID.TID 0000.0001) %MON dynstat_vvel_del2            =   7.8928935467701E-18
(PID.TID 0000.0001) %MON dynstat_wvel_max             =   1.6206904940856E-17
(PID.TID 0000.0001) %MON dynstat_wvel_min             =  -1.3159813703832E-17
(PID.TID 0000.0001) %MON dynstat_wvel_mean            =  -7.2632899150968E-19
(PID.TID 0000.0001) %MON dynstat_wvel_sd              =   2.0036033020317E-18
(PID.TID 0000.0001) %MON dynstat_wvel_del2            =   1.3952463819852E-19
(PID.TID 0000.0001) %MON dynstat_theta_max            =  -1.9000000000000E+00
(PID.TID 0000.0001) %MON dynstat_theta_min            =  -1.9008396830775E+00
(PID.TID 0000.0001) %MON dynstat_theta_mean           =  -1.9000126491665E+00
(PID.TID 0000.0001) %MON dynstat_theta_sd             =   6.1193915729293E-05
(PID.TID 0000.0001) %MON dynstat_theta_del2           =   8.4459011133113E-07
(PID.TID 0000.0001) %MON dynstat_salt_max             =   3.4400000000000E+01
(PID.TID 0000.0001) %MON dynstat_salt_min             =   3.4399724914550E+01
(PID.TID 0000.0001) %MON dynstat_salt_mean            =   3.4399995431317E+01
(PID.TID 0000.0001) %MON dynstat_salt_sd              =   2.1416349990145E-05
(PID.TID 0000.0001) %MON dynstat_salt_del2            =   2.9163418682974E-07
(PID.TID 0000.0001) %MON extforcing_qnet_max          =   0.0000000000000E+00
(PID.TID 0000.0001) %MON extforcing_qnet_min          =   0.0000000000000E+00
(PID.TID 0000.0001) %MON extforcing_qnet_mean         =   0.0000000000000E+00
(PID.TID 0000.0001) %MON extforcing_qnet_sd           =   0.0000000000000E+00
(PID.TID 0000.0001) %MON extforcing_qnet_del2         =   0.0000000000000E+00
(PID.TID 0000.0001) %MON extforcing_qsw_max           =   0.0000000000000E+00
(PID.TID 0000.0001) %MON extforcing_qsw_min           =   0.0000000000000E+00
(PID.TID 0000.0001) %MON extforcing_qsw_mean          =   0.0000000000000E+00
(PID.TID 0000.0001) %MON extforcing_qsw_sd            =   0.0000000000000E+00
(PID.TID 0000.0001) %MON extforcing_qsw_del2          =   0.0000000000000E+00
(PID.TID 0000.0001) %MON extforcing_empmr_max         =   0.0000000000000E+00
(PID.TID 0000.0001) %MON extforcing_empmr_min         =   0.0000000000000E+00
(PID.TID 0000.0001) %MON extforcing_empmr_mean        =   0.0000000000000E+00
(PID.TID 0000.0001) %MON extforcing_empmr_sd          =   0.0000000000000E+00
(PID.TID 0000.0001) %MON extforcing_empmr_del2        =   0.0000000000000E+00
(PID.TID 0000.0001) %MON advcfl_uvel_max              =   3.4650666880849E-16
(PID.TID 0000.0001) %MON advcfl_vvel_max              =   6.6581473734719E-16
(PID.TID 0000.0001) %MON advcfl_wvel_max              =   9.7241429645133E-16
(PID.TID 0000.0001) %MON advcfl_W_hf_max              =   1.0607925590322E-14
(PID.TID 0000.0001) %MON pe_b_mean                    =  -5.9508927605322E-18
(PID.TID 0000.0001) %MON ke_max                       =   7.9251101869563E-30
(PID.TID 0000.0001) %MON ke_mean                      =   1.1328472119094E-30
(PID.TID 0000.0001) %MON ke_vol                       =   2.9241705273104E+14
(PID.TID 0000.0001) %MON vort_r_min                   =  -5.7096094687164E-19
(PID.TID 0000.0001) %MON vort_r_max                   =   6.0802152751963E-19
(PID.TID 0000.0001) %MON vort_a_mean                  =  -1.4007437277915E-04
(PID.TID 0000.0001) %MON vort_a_sd                    =   1.7682771465365E-06
(PID.TID 0000.0001) %MON vort_p_mean                  =  -1.5039772194955E-04
(PID.TID 0000.0001) %MON vort_p_sd                    =   8.7081213929711E-05
(PID.TID 0000.0001) %MON surfExpan_theta_mean         =  -6.0239622846450E-22
(PID.TID 0000.0001) %MON surfExpan_salt_mean          =  -1.9487511955450E-22
(PID.TID 0000.0001) // =======================================================
(PID.TID 0000.0001) // End MONITOR dynamic field statistics
(PID.TID 0000.0001) // =======================================================
 cg2d: Sum(rhs),rhsMax =  -1.22637683168402E-14  1.56999988947469E-05
(PID.TID 0000.0001)                    cg2d_init_res =    3.47834337292413E+01
(PID.TID 0000.0001)                       cg2d_iters =   212
(PID.TID 0000.0001)                         cg2d_res =    9.36207301800781E-14
(PID.TID 0000.0001) // =======================================================
(PID.TID 0000.0001) // Begin MONITOR dynamic field statistics
(PID.TID 0000.0001) // =======================================================
(PID.TID 0000.0001) %MON time_tsnumber                =                     2
(PID.TID 0000.0001) %MON time_secondsf                =   3.6000000000000E+03
(PID.TID 0000.0001) %MON dynstat_eta_max              =   3.8841047441024E-06
(PID.TID 0000.0001) %MON dynstat_eta_min              =  -3.1269976022551E-06
(PID.TID 0000.0001) %MON dynstat_eta_mean             =  -9.1501379789577E-23
(PID.TID 0000.0001) %MON dynstat_eta_sd               =   9.2705865873555E-07
(PID.TID 0000.0001) %MON dynstat_eta_del2             =   4.3298272073138E-07
(PID.TID 0000.0001) %MON dynstat_uvel_max             =   9.0362590323461E-07
(PID.TID 0000.0001) %MON dynstat_uvel_min             =  -1.0010654270738E-06
(PID.TID 0000.0001) %MON dynstat_uvel_mean            =   2.5004763866527E-09
(PID.TID 0000.0001) %MON dynstat_uvel_sd              =   1.2178438917106E-07
(PID.TID 0000.0001) %MON dynstat_uvel_del2            =   3.2472329392391E-08
(PID.TID 0000.0001) %MON dynstat_vvel_max             =   5.4942900885608E-06
(PID.TID 0000.0001) %MON dynstat_vvel_min             =  -1.2025519577149E-06
(PID.TID 0000.0001) %MON dynstat_vvel_mean            =  -3.8880866689360E-08
(PID.TID 0000.0001) %MON dynstat_vvel_sd              =   3.2429575908710E-07
(PID.TID 0000.0001) %MON dynstat_vvel_del2            =   1.7312363335857E-08
(PID.TID 0000.0001) %MON dynstat_wvel_max             =   1.2615861806073E-08
(PID.TID 0000.0001) %MON dynstat_wvel_min             =  -1.0953170565768E-08
(PID.TID 0000.0001) %MON dynstat_wvel_mean            =  -2.6588591915249E-11
(PID.TID 0000.0001) %MON dynstat_wvel_sd              =   8.7609648950615E-10
(PID.TID 0000.0001) %MON dynstat_wvel_del2            =   3.1022721589703E-10
(PID.TID 0000.0001) %MON dynstat_theta_max            =  -1.9000000000000E+00
(PID.TID 0000.0001) %MON dynstat_theta_min            =  -1.9016767529306E+00
(PID.TID 0000.0001) %MON dynstat_theta_mean           =  -1.9000252717593E+00
(PID.TID 0000.0001) %MON dynstat_theta_sd             =   1.2220856488850E-04
(PID.TID 0000.0001) %MON dynstat_theta_del2           =   1.6842115498635E-06
(PID.TID 0000.0001) %MON dynstat_salt_max             =   3.4400000000000E+01
(PID.TID 0000.0001) %MON dynstat_salt_min             =   3.4399450567780E+01
(PID.TID 0000.0001) %MON dynstat_salt_mean            =   3.4399990871325E+01
(PID.TID 0000.0001) %MON dynstat_salt_sd              =   4.2776875769815E-05
(PID.TID 0000.0001) %MON dynstat_salt_del2            =   5.8178263053816E-07
(PID.TID 0000.0001) %MON extforcing_qnet_max          =   0.0000000000000E+00
(PID.TID 0000.0001) %MON extforcing_qnet_min          =   0.0000000000000E+00
(PID.TID 0000.0001) %MON extforcing_qnet_mean         =   0.0000000000000E+00
(PID.TID 0000.0001) %MON extforcing_qnet_sd           =   0.0000000000000E+00
(PID.TID 0000.0001) %MON extforcing_qnet_del2         =   0.0000000000000E+00
(PID.TID 0000.0001) %MON extforcing_qsw_max           =   0.0000000000000E+00
(PID.TID 0000.0001) %MON extforcing_qsw_min           =   0.0000000000000E+00
(PID.TID 0000.0001) %MON extforcing_qsw_mean          =   0.0000000000000E+00
(PID.TID 0000.0001) %MON extforcing_qsw_sd            =   0.0000000000000E+00
(PID.TID 0000.0001) %MON extforcing_qsw_del2          =   0.0000000000000E+00
(PID.TID 0000.0001) %MON extforcing_empmr_max         =   0.0000000000000E+00
(PID.TID 0000.0001) %MON extforcing_empmr_min         =   0.0000000000000E+00
(PID.TID 0000.0001) %MON extforcing_empmr_mean        =   0.0000000000000E+00
(PID.TID 0000.0001) %MON extforcing_empmr_sd          =   0.0000000000000E+00
(PID.TID 0000.0001) %MON extforcing_empmr_del2        =   0.0000000000000E+00
(PID.TID 0000.0001) %MON advcfl_uvel_max              =   3.0360902261840E-07
(PID.TID 0000.0001) %MON advcfl_vvel_max              =   8.8954370532366E-07
(PID.TID 0000.0001) %MON advcfl_wvel_max              =   7.5695170836437E-07
(PID.TID 0000.0001) %MON advcfl_W_hf_max              =   3.2990962386751E-06
(PID.TID 0000.0001) %MON pe_b_mean                    =  -3.0132035510834E-10
(PID.TID 0000.0001) %MON ke_max                       =   8.0389648421470E-12
(PID.TID 0000.0001) %MON ke_mean                      =   5.9980029468193E-14
(PID.TID 0000.0001) %MON ke_vol                       =   2.9241705273104E+14
(PID.TID 0000.0001) %MON vort_r_min                   =  -9.3023451039098E-10
(PID.TID 0000.0001) %MON vort_r_max                   =   9.0950882984502E-10
(PID.TID 0000.0001) %MON vort_a_mean                  =  -1.4007437277915E-04
(PID.TID 0000.0001) %MON vort_a_sd                    =   1.7682771504369E-06
(PID.TID 0000.0001) %MON vort_p_mean                  =  -1.5039772194954E-04
(PID.TID 0000.0001) %MON vort_p_sd                    =   8.7081213453957E-05
(PID.TID 0000.0001) %MON surfExpan_theta_mean         =  -4.8405005930845E-14
(PID.TID 0000.0001) %MON surfExpan_salt_mean          =  -1.5895023776722E-14
(PID.TID 0000.0001) // =======================================================
(PID.TID 0000.0001) // End MONITOR dynamic field statistics
(PID.TID 0000.0001) // =======================================================
 cg2d: Sum(rhs),rhsMax =   3.49720252756924E-15  2.54754722110630E-05
(PID.TID 0000.0001)                    cg2d_init_res =    1.34597487158934E+01
(PID.TID 0000.0001)                       cg2d_iters =   211
(PID.TID 0000.0001)                         cg2d_res =    9.45970316995802E-14
(PID.TID 0000.0001) // =======================================================
(PID.TID 0000.0001) // Begin MONITOR dynamic field statistics
(PID.TID 0000.0001) // =======================================================
(PID.TID 0000.0001) %MON time_tsnumber                =                     3
(PID.TID 0000.0001) %MON time_secondsf                =   5.4000000000000E+03
(PID.TID 0000.0001) %MON dynstat_eta_max              =   7.3801619132536E-06
(PID.TID 0000.0001) %MON dynstat_eta_min              =  -4.3357206455909E-06
(PID.TID 0000.0001) %MON dynstat_eta_mean             =  -5.3237166423027E-22
(PID.TID 0000.0001) %MON dynstat_eta_sd               =   1.6861534671713E-06
(PID.TID 0000.0001) %MON dynstat_eta_del2             =   7.0484431168592E-07
(PID.TID 0000.0001) %MON dynstat_uvel_max             =   1.4466208872288E-06
(PID.TID 0000.0001) %MON dynstat_uvel_min             =  -3.2598615107337E-06
(PID.TID 0000.0001) %MON dynstat_uvel_mean            =   5.2846666955058E-09
(PID.TID 0000.0001) %MON dynstat_uvel_sd              =   2.5819044110020E-07
(PID.TID 0000.0001) %MON dynstat_uvel_del2            =   4.6258657522837E-08
(PID.TID 0000.0001) %MON dynstat_vvel_max             =   1.3578620930289E-05
(PID.TID 0000.0001) %MON dynstat_vvel_min             =  -2.3866500509672E-06
(PID.TID 0000.0001) %MON dynstat_vvel_mean            =  -9.2479098738470E-08
(PID.TID 0000.0001) %MON dynstat_vvel_sd              =   8.2105875537053E-07
(PID.TID 0000.0001) %MON dynstat_vvel_del2            =   4.2538697023289E-08
(PID.TID 0000.0001) %MON dynstat_wvel_max             =   3.2446406644298E-08
(PID.TID 0000.0001) %MON dynstat_wvel_min             =  -2.8656210136274E-08
(PID.TID 0000.0001) %MON dynstat_wvel_mean            =  -5.9987058907469E-11
(PID.TID 0000.0001) %MON dynstat_wvel_sd              =   2.1436291921161E-09
(PID.TID 0000.0001) %MON dynstat_wvel_del2            =   7.5658415373677E-10
(PID.TID 0000.0001) %MON dynstat_theta_max            =  -1.9000000000000E+00
(PID.TID 0000.0001) %MON dynstat_theta_min            =  -1.9025122006099E+00
(PID.TID 0000.0001) %MON dynstat_theta_mean           =  -1.9000378778260E+00
(PID.TID 0000.0001) %MON dynstat_theta_sd             =   1.8311189356852E-04
(PID.TID 0000.0001) %MON dynstat_theta_del2           =   2.5215482965113E-06
(PID.TID 0000.0001) %MON dynstat_salt_max             =   3.4400000000000E+01
(PID.TID 0000.0001) %MON dynstat_salt_min             =   3.4399176679902E+01
(PID.TID 0000.0001) %MON dynstat_salt_mean            =   3.4399986316741E+01
(PID.TID 0000.0001) %MON dynstat_salt_sd              =   6.4102713862920E-05
(PID.TID 0000.0001) %MON dynstat_salt_del2            =   8.7115525784129E-07
(PID.TID 0000.0001) %MON extforcing_qnet_max          =   0.0000000000000E+00
(PID.TID 0000.0001) %MON extforcing_qnet_min          =   0.0000000000000E+00
(PID.TID 0000.0001) %MON extforcing_qnet_mean         =   0.0000000000000E+00
(PID.TID 0000.0001) %MON extforcing_qnet_sd           =   0.0000000000000E+00
(PID.TID 0000.0001) %MON extforcing_qnet_del2         =   0.0000000000000E+00
(PID.TID 0000.0001) %MON extforcing_qsw_max           =   0.0000000000000E+00
(PID.TID 0000.0001) %MON extforcing_qsw_min           =   0.0000000000000E+00
(PID.TID 0000.0001) %MON extforcing_qsw_mean          =   0.0000000000000E+00
(PID.TID 0000.0001) %MON extforcing_qsw_sd            =   0.0000000000000E+00
(PID.TID 0000.0001) %MON extforcing_qsw_del2          =   0.0000000000000E+00
(PID.TID 0000.0001) %MON extforcing_empmr_max         =   0.0000000000000E+00
(PID.TID 0000.0001) %MON extforcing_empmr_min         =   0.0000000000000E+00
(PID.TID 0000.0001) %MON extforcing_empmr_mean        =   0.0000000000000E+00
(PID.TID 0000.0001) %MON extforcing_empmr_sd          =   0.0000000000000E+00
(PID.TID 0000.0001) %MON extforcing_empmr_del2        =   0.0000000000000E+00
(PID.TID 0000.0001) %MON advcfl_uvel_max              =   9.8867001134804E-07
(PID.TID 0000.0001) %MON advcfl_vvel_max              =   2.1984235598814E-06
(PID.TID 0000.0001) %MON advcfl_wvel_max              =   1.9467843986579E-06
(PID.TID 0000.0001) %MON advcfl_W_hf_max              =   4.3433768833152E-06
(PID.TID 0000.0001) %MON pe_b_mean                    =  -9.0088459864969E-10
(PID.TID 0000.0001) %MON ke_max                       =   5.0852499876966E-11
(PID.TID 0000.0001) %MON ke_mean                      =   3.6999617564826E-13
(PID.TID 0000.0001) %MON ke_vol                       =   2.9241705273104E+14
(PID.TID 0000.0001) %MON vort_r_min                   =  -2.2989870555199E-09
(PID.TID 0000.0001) %MON vort_r_max                   =   2.2405227295297E-09
(PID.TID 0000.0001) %MON vort_a_mean                  =  -1.4007437277891E-04
(PID.TID 0000.0001) %MON vort_a_sd                    =   1.7682771432929E-06
(PID.TID 0000.0001) %MON vort_p_mean                  =  -1.5039772194928E-04
(PID.TID 0000.0001) %MON vort_p_sd                    =   8.7081192479164E-05
(PID.TID 0000.0001) %MON surfExpan_theta_mean         =  -1.5139023195605E-13
(PID.TID 0000.0001) %MON surfExpan_salt_mean          =  -4.9528089372583E-14
(PID.TID 0000.0001) // =======================================================
(PID.TID 0000.0001) // End MONITOR dynamic field statistics
(PID.TID 0000.0001) // =======================================================
 cg2d: Sum(rhs),rhsMax =  -1.31006316905768E-14  3.52539465591858E-05
(PID.TID 0000.0001)                    cg2d_init_res =    9.64825852543475E+00
(PID.TID 0000.0001)                       cg2d_iters =   210
(PID.TID 0000.0001)                         cg2d_res =    9.31356834732534E-14
(PID.TID 0000.0001) // =======================================================
(PID.TID 0000.0001) // Begin MONITOR dynamic field statistics
(PID.TID 0000.0001) // =======================================================
(PID.TID 0000.0001) %MON time_tsnumber                =                     4
(PID.TID 0000.0001) %MON time_secondsf                =   7.2000000000000E+03
(PID.TID 0000.0001) %MON dynstat_eta_max              =   1.1294275710893E-05
(PID.TID 0000.0001) %MON dynstat_eta_min              =  -4.6783892895687E-06
(PID.TID 0000.0001) %MON dynstat_eta_mean             =  -7.9855749634540E-22
(PID.TID 0000.0001) %MON dynstat_eta_sd               =   2.5935693866351E-06
(PID.TID 0000.0001) %MON dynstat_eta_del2             =   9.7427804886460E-07
(PID.TID 0000.0001) %MON dynstat_uvel_max             =   2.0094640069449E-06
(PID.TID 0000.0001) %MON dynstat_uvel_min             =  -7.4154416600029E-06
(PID.TID 0000.0001) %MON dynstat_uvel_mean            =   7.4367220951250E-09
(PID.TID 0000.0001) %MON dynstat_uvel_sd              =   5.4215820049461E-07
(PID.TID 0000.0001) %MON dynstat_uvel_del2            =   5.6568525347126E-08
(PID.TID 0000.0001) %MON dynstat_vvel_max             =   2.3770877082935E-05
(PID.TID 0000.0001) %MON dynstat_vvel_min             =  -3.6727902469175E-06
(PID.TID 0000.0001) %MON dynstat_vvel_mean            =  -1.5139936947173E-07
(PID.TID 0000.0001) %MON dynstat_vvel_sd              =   1.4580551434330E-06
(PID.TID 0000.0001) %MON dynstat_vvel_del2            =   7.4507525398474E-08
(PID.TID 0000.0001) %MON dynstat_wvel_max             =   6.0959330126344E-08
(PID.TID 0000.0001) %MON dynstat_wvel_min             =  -5.7684678233217E-08
(PID.TID 0000.0001) %MON dynstat_wvel_mean            =  -8.7715963764839E-11
(PID.TID 0000.0001) %MON dynstat_wvel_sd              =   3.8405207516788E-09
(PID.TID 0000.0001) %MON dynstat_wvel_del2            =   1.3316133128645E-09
(PID.TID 0000.0001) %MON dynstat_theta_max            =  -1.9000000000000E+00
(PID.TID 0000.0001) %MON dynstat_theta_min            =  -1.9033460294597E+00
(PID.TID 0000.0001) %MON dynstat_theta_mean           =  -1.9000504673919E+00
(PID.TID 0000.0001) %MON dynstat_theta_sd             =   2.4390412498870E-04
(PID.TID 0000.0001) %MON dynstat_theta_del2           =   3.3563073233849E-06
(PID.TID 0000.0001) %MON dynstat_salt_max             =   3.4400000000000E+01
(PID.TID 0000.0001) %MON dynstat_salt_min             =   3.4398903250162E+01
(PID.TID 0000.0001) %MON dynstat_salt_mean            =   3.4399981767560E+01
(PID.TID 0000.0001) %MON dynstat_salt_sd              =   8.5393922600256E-05
(PID.TID 0000.0001) %MON dynstat_salt_del2            =   1.1596893065934E-06
(PID.TID 0000.0001) %MON extforcing_qnet_max          =   0.0000000000000E+00
(PID.TID 0000.0001) %MON extforcing_qnet_min          =   0.0000000000000E+00
(PID.TID 0000.0001) %MON extforcing_qnet_mean         =   0.0000000000000E+00
(PID.TID 0000.0001) %MON extforcing_qnet_sd           =   0.0000000000000E+00
(PID.TID 0000.0001) %MON extforcing_qnet_del2         =   0.0000000000000E+00
(PID.TID 0000.0001) %MON extforcing_qsw_max           =   0.0000000000000E+00
(PID.TID 0000.0001) %MON extforcing_qsw_min           =   0.0000000000000E+00
(PID.TID 0000.0001) %MON extforcing_qsw_mean          =   0.0000000000000E+00
(PID.TID 0000.0001) %MON extforcing_qsw_sd            =   0.0000000000000E+00
(PID.TID 0000.0001) %MON extforcing_qsw_del2          =   0.0000000000000E+00
(PID.TID 0000.0001) %MON extforcing_empmr_max         =   0.0000000000000E+00
(PID.TID 0000.0001) %MON extforcing_empmr_min         =   0.0000000000000E+00
(PID.TID 0000.0001) %MON extforcing_empmr_mean        =   0.0000000000000E+00
(PID.TID 0000.0001) %MON extforcing_empmr_sd          =   0.0000000000000E+00
(PID.TID 0000.0001) %MON extforcing_empmr_del2        =   0.0000000000000E+00
(PID.TID 0000.0001) %MON advcfl_uvel_max              =   2.2489988504130E-06
(PID.TID 0000.0001) %MON advcfl_vvel_max              =   3.8485834818172E-06
(PID.TID 0000.0001) %MON advcfl_wvel_max              =   3.6575598075806E-06
(PID.TID 0000.0001) %MON advcfl_W_hf_max              =   6.5773452567783E-06
(PID.TID 0000.0001) %MON pe_b_mean                    =  -1.7549291998585E-09
(PID.TID 0000.0001) %MON ke_max                       =   1.7000383951995E-10
(PID.TID 0000.0001) %MON ke_mean                      =   1.2057862736394E-12
(PID.TID 0000.0001) %MON ke_vol                       =   2.9241705273104E+14
(PID.TID 0000.0001) %MON vort_r_min                   =  -4.0246309984335E-09
(PID.TID 0000.0001) %MON vort_r_max                   =   3.9206842887208E-09
(PID.TID 0000.0001) %MON vort_a_mean                  =  -1.4007437277769E-04
(PID.TID 0000.0001) %MON vort_a_sd                    =   1.7682771210785E-06
(PID.TID 0000.0001) %MON vort_p_mean                  =  -1.5039772194797E-04
(PID.TID 0000.0001) %MON vort_p_sd                    =   8.7081147581715E-05
(PID.TID 0000.0001) %MON surfExpan_theta_mean         =  -2.9211133147474E-13
(PID.TID 0000.0001) %MON surfExpan_salt_mean          =  -9.5456312409961E-14
(PID.TID 0000.0001) // =======================================================
(PID.TID 0000.0001) // End MONITOR dynamic field statistics
(PID.TID 0000.0001) // =======================================================
 cg2d: Sum(rhs),rhsMax =  -1.77635683940025E-15  4.49537627367394E-05
(PID.TID 0000.0001)                    cg2d_init_res =    7.56540472564851E+00
(PID.TID 0000.0001)                       cg2d_iters =   209
(PID.TID 0000.0001)                         cg2d_res =    9.22016658648309E-14
(PID.TID 0000.0001) // =======================================================
(PID.TID 0000.0001) // Begin MONITOR dynamic field statistics
(PID.TID 0000.0001) // =======================================================
(PID.TID 0000.0001) %MON time_tsnumber                =                     5
(PID.TID 0000.0001) %MON time_secondsf                =   9.0000000000000E+03
(PID.TID 0000.0001) %MON dynstat_eta_max              =   1.5440335255687E-05
(PID.TID 0000.0001) %MON dynstat_eta_min              =  -5.7393896107101E-06
(PID.TID 0000.0001) %MON dynstat_eta_mean             =   2.1294866569211E-21
(PID.TID 0000.0001) %MON dynstat_eta_sd               =   3.6289382704675E-06
(PID.TID 0000.0001) %MON dynstat_eta_del2             =   1.2436610256043E-06
(PID.TID 0000.0001) %MON dynstat_uvel_max             =   2.6805530359757E-06
(PID.TID 0000.0001) %MON dynstat_uvel_min             =  -1.3949763246758E-05
(PID.TID 0000.0001) %MON dynstat_uvel_mean            =   7.9287511293507E-09
(PID.TID 0000.0001) %MON dynstat_uvel_sd              =   1.0185842035156E-06
(PID.TID 0000.0001) %MON dynstat_uvel_del2            =   6.5042864400093E-08
(PID.TID 0000.0001) %MON dynstat_vvel_max             =   3.5397620840157E-05
(PID.TID 0000.0001) %MON dynstat_vvel_min             =  -4.9765460174266E-06
(PID.TID 0000.0001) %MON dynstat_vvel_mean            =  -2.0586962839391E-07
(PID.TID 0000.0001) %MON dynstat_vvel_sd              =   2.1930030284120E-06
(PID.TID 0000.0001) %MON dynstat_vvel_del2            =   1.1104272292467E-07
(PID.TID 0000.0001) %MON dynstat_wvel_max             =   9.7080469929144E-08
(PID.TID 0000.0001) %MON dynstat_wvel_min             =  -9.8755851734573E-08
(PID.TID 0000.0001) %MON dynstat_wvel_mean            =  -1.0725452884328E-10
(PID.TID 0000.0001) %MON dynstat_wvel_sd              =   5.8828604849670E-09
(PID.TID 0000.0001) %MON dynstat_wvel_del2            =   1.9905917997401E-09
(PID.TID 0000.0001) %MON dynstat_theta_max            =  -1.9000000000000E+00
(PID.TID 0000.0001) %MON dynstat_theta_min            =  -1.9041782441642E+00
(PID.TID 0000.0001) %MON dynstat_theta_mean           =  -1.9000630404918E+00
(PID.TID 0000.0001) %MON dynstat_theta_sd             =   3.0458556662143E-04
(PID.TID 0000.0001) %MON dynstat_theta_del2           =   4.1884682249550E-06
(PID.TID 0000.0001) %MON dynstat_salt_max             =   3.4400000000000E+01
(PID.TID 0000.0001) %MON dynstat_salt_min             =   3.4398630277434E+01
(PID.TID 0000.0001) %MON dynstat_salt_mean            =   3.4399977223771E+01
(PID.TID 0000.0001) %MON dynstat_salt_sd              =   1.0665058569112E-04
(PID.TID 0000.0001) %MON dynstat_salt_del2            =   1.4473875550417E-06
(PID.TID 0000.0001) %MON extforcing_qnet_max          =   0.0000000000000E+00
(PID.TID 0000.0001) %MON extforcing_qnet_min          =   0.0000000000000E+00
(PID.TID 0000.0001) %MON extforcing_qnet_mean         =   0.0000000000000E+00
(PID.TID 0000.0001) %MON extforcing_qnet_sd           =   0.0000000000000E+00
(PID.TID 0000.0001) %MON extforcing_qnet_del2         =   0.0000000000000E+00
(PID.TID 0000.0001) %MON extforcing_qsw_max           =   0.0000000000000E+00
(PID.TID 0000.0001) %MON extforcing_qsw_min           =   0.0000000000000E+00
(PID.TID 0000.0001) %MON extforcing_qsw_mean          =   0.0000000000000E+00
(PID.TID 0000.0001) %MON extforcing_qsw_sd            =   0.0000000000000E+00
(PID.TID 0000.0001) %MON extforcing_qsw_del2          =   0.0000000000000E+00
(PID.TID 0000.0001) %MON extforcing_empmr_max         =   0.0000000000000E+00
(PID.TID 0000.0001) %MON extforcing_empmr_min         =   0.0000000000000E+00
(PID.TID 0000.0001) %MON extforcing_empmr_mean        =   0.0000000000000E+00
(PID.TID 0000.0001) %MON extforcing_empmr_sd          =   0.0000000000000E+00
(PID.TID 0000.0001) %MON extforcing_empmr_del2        =   0.0000000000000E+00
(PID.TID 0000.0001) %MON advcfl_uvel_max              =   4.2307664120278E-06
(PID.TID 0000.0001) %MON advcfl_vvel_max              =   5.7309916830480E-06
(PID.TID 0000.0001) %MON advcfl_wvel_max              =   5.9253511040744E-06
(PID.TID 0000.0001) %MON advcfl_W_hf_max              =   9.2560751583579E-06
(PID.TID 0000.0001) %MON pe_b_mean                    =  -2.8053187069492E-09
(PID.TID 0000.0001) %MON ke_max                       =   4.2396291145095E-10
(PID.TID 0000.0001) %MON ke_mean                      =   2.9055015547440E-12
(PID.TID 0000.0001) %MON ke_vol                       =   2.9241705273104E+14
(PID.TID 0000.0001) %MON vort_r_min                   =  -5.9931470600371E-09
(PID.TID 0000.0001) %MON vort_r_max                   =   5.8363533468234E-09
(PID.TID 0000.0001) %MON vort_a_mean                  =  -1.4007437277413E-04
(PID.TID 0000.0001) %MON vort_a_sd                    =   1.7682770850036E-06
(PID.TID 0000.0001) %MON vort_p_mean                  =  -1.5039772194416E-04
(PID.TID 0000.0001) %MON vort_p_sd                    =   8.7081074187533E-05
(PID.TID 0000.0001) %MON surfExpan_theta_mean         =  -4.4331592364770E-13
(PID.TID 0000.0001) %MON surfExpan_salt_mean          =  -1.4496747957862E-13
(PID.TID 0000.0001) // =======================================================
(PID.TID 0000.0001) // End MONITOR dynamic field statistics
(PID.TID 0000.0001) // =======================================================
 cg2d: Sum(rhs),rhsMax =   3.24185123190546E-14  5.45594078899533E-05
(PID.TID 0000.0001)                    cg2d_init_res =    6.22415467782394E+00
(PID.TID 0000.0001)                       cg2d_iters =   208
(PID.TID 0000.0001)                         cg2d_res =    9.28786039437460E-14
(PID.TID 0000.0001) // =======================================================
(PID.TID 0000.0001) // Begin MONITOR dynamic field statistics
(PID.TID 0000.0001) // =======================================================
(PID.TID 0000.0001) %MON time_tsnumber                =                     6
(PID.TID 0000.0001) %MON time_secondsf                =   1.0800000000000E+04
(PID.TID 0000.0001) %MON dynstat_eta_max              =   1.9625862012021E-05
(PID.TID 0000.0001) %MON dynstat_eta_min              =  -6.5859964419568E-06
(PID.TID 0000.0001) %MON dynstat_eta_mean             =   2.3956724890362E-21
(PID.TID 0000.0001) %MON dynstat_eta_sd               =   4.7444751834887E-06
(PID.TID 0000.0001) %MON dynstat_eta_del2             =   1.5125639634148E-06
(PID.TID 0000.0001) %MON dynstat_uvel_max             =   3.5413984080573E-06
(PID.TID 0000.0001) %MON dynstat_uvel_min             =  -2.3916419399674E-05
(PID.TID 0000.0001) %MON dynstat_uvel_mean            =   6.3727127491474E-09
(PID.TID 0000.0001) %MON dynstat_uvel_sd              =   1.7050461976101E-06
(PID.TID 0000.0001) %MON dynstat_uvel_del2            =   7.5117192457605E-08
(PID.TID 0000.0001) %MON dynstat_vvel_max             =   4.7698107903224E-05
(PID.TID 0000.0001) %MON dynstat_vvel_min             =  -6.7738944364784E-06
(PID.TID 0000.0001) %MON dynstat_vvel_mean            =  -2.4729447547386E-07
(PID.TID 0000.0001) %MON dynstat_vvel_sd              =   2.9775829412591E-06
(PID.TID 0000.0001) %MON dynstat_vvel_del2            =   1.4972517926438E-07
(PID.TID 0000.0001) %MON dynstat_wvel_max             =   1.5040944717659E-07
(PID.TID 0000.0001) %MON dynstat_wvel_min             =  -1.5204302532557E-07
(PID.TID 0000.0001) %MON dynstat_wvel_mean            =  -1.1746580495433E-10
(PID.TID 0000.0001) %MON dynstat_wvel_sd              =   8.2042862476544E-09
(PID.TID 0000.0001) %MON dynstat_wvel_del2            =   2.6916515014302E-09
(PID.TID 0000.0001) %MON dynstat_theta_max            =  -1.9000000000000E+00
(PID.TID 0000.0001) %MON dynstat_theta_min            =  -1.9050088495614E+00
(PID.TID 0000.0001) %MON dynstat_theta_mean           =  -1.9000755971607E+00
(PID.TID 0000.0001) %MON dynstat_theta_sd             =   3.6515652544784E-04
(PID.TID 0000.0001) %MON dynstat_theta_del2           =   5.0180405482725E-06
(PID.TID 0000.0001) %MON dynstat_salt_max             =   3.4400000000000E+01
(PID.TID 0000.0001) %MON dynstat_salt_min             =   3.4398357760541E+01
(PID.TID 0000.0001) %MON dynstat_salt_mean            =   3.4399972685364E+01
(PID.TID 0000.0001) %MON dynstat_salt_sd              =   1.2787278677309E-04
(PID.TID 0000.0001) %MON dynstat_salt_del2            =   1.7342528531877E-06
(PID.TID 0000.0001) %MON extforcing_qnet_max          =   0.0000000000000E+00
(PID.TID 0000.0001) %MON extforcing_qnet_min          =   0.0000000000000E+00
(PID.TID 0000.0001) %MON extforcing_qnet_mean         =   0.0000000000000E+00
(PID.TID 0000.0001) %MON extforcing_qnet_sd           =   0.0000000000000E+00
(PID.TID 0000.0001) %MON extforcing_qnet_del2         =   0.0000000000000E+00
(PID.TID 0000.0001) %MON extforcing_qsw_max           =   0.0000000000000E+00
(PID.TID 0000.0001) %MON extforcing_qsw_min           =   0.0000000000000E+00
(PID.TID 0000.0001) %MON extforcing_qsw_mean          =   0.0000000000000E+00
(PID.TID 0000.0001) %MON extforcing_qsw_sd            =   0.0000000000000E+00
(PID.TID 0000.0001) %MON extforcing_qsw_del2          =   0.0000000000000E+00
(PID.TID 0000.0001) %MON extforcing_empmr_max         =   0.0000000000000E+00
(PID.TID 0000.0001) %MON extforcing_empmr_min         =   0.0000000000000E+00
(PID.TID 0000.0001) %MON extforcing_empmr_mean        =   0.0000000000000E+00
(PID.TID 0000.0001) %MON extforcing_empmr_sd          =   0.0000000000000E+00
(PID.TID 0000.0001) %MON extforcing_empmr_del2        =   0.0000000000000E+00
(PID.TID 0000.0001) %MON advcfl_uvel_max              =   7.1161882512106E-06
(PID.TID 0000.0001) %MON advcfl_vvel_max              =   7.7224811499305E-06
(PID.TID 0000.0001) %MON advcfl_wvel_max              =   9.1225815195344E-06
(PID.TID 0000.0001) %MON advcfl_W_hf_max              =   1.2336231214572E-05
(PID.TID 0000.0001) %MON pe_b_mean                    =  -3.9798956367021E-09
(PID.TID 0000.0001) %MON ke_max                       =   8.9355872338381E-10
(PID.TID 0000.0001) %MON ke_mean                      =   5.8350430605979E-12
(PID.TID 0000.0001) %MON ke_vol                       =   2.9241705273104E+14
(PID.TID 0000.0001) %MON vort_r_min                   =  -8.0757341415793E-09
(PID.TID 0000.0001) %MON vort_r_max                   =   7.9304717837054E-09
(PID.TID 0000.0001) %MON vort_a_mean                  =  -1.4007437276692E-04
(PID.TID 0000.0001) %MON vort_a_sd                    =   1.7682770396149E-06
(PID.TID 0000.0001) %MON vort_p_mean                  =  -1.5039772193641E-04
(PID.TID 0000.0001) %MON vort_p_sd                    =   8.7080969676047E-05
(PID.TID 0000.0001) %MON surfExpan_theta_mean         =  -5.7885441899795E-13
(PID.TID 0000.0001) %MON surfExpan_salt_mean          =  -1.8960115138230E-13
(PID.TID 0000.0001) // =======================================================
(PID.TID 0000.0001) // End MONITOR dynamic field statistics
(PID.TID 0000.0001) // =======================================================
 cg2d: Sum(rhs),rhsMax =   5.77315972805081E-15  6.42216311367828E-05
(PID.TID 0000.0001)                    cg2d_init_res =    5.27922155589234E+00
(PID.TID 0000.0001)                       cg2d_iters =   208
(PID.TID 0000.0001)                         cg2d_res =    9.37505585369513E-14
(PID.TID 0000.0001) // =======================================================
(PID.TID 0000.0001) // Begin MONITOR dynamic field statistics
(PID.TID 0000.0001) // =======================================================
(PID.TID 0000.0001) %MON time_tsnumber                =                     7
(PID.TID 0000.0001) %MON time_secondsf                =   1.2600000000000E+04
(PID.TID 0000.0001) %MON dynstat_eta_max              =   2.4324676659781E-05
(PID.TID 0000.0001) %MON dynstat_eta_min              =  -7.1448839262305E-06
(PID.TID 0000.0001) %MON dynstat_eta_mean             =  -2.1294866569211E-21
(PID.TID 0000.0001) %MON dynstat_eta_sd               =   5.8894081518929E-06
(PID.TID 0000.0001) %MON dynstat_eta_del2             =   1.7809351943663E-06
(PID.TID 0000.0001) %MON dynstat_uvel_max             =   5.5813043008617E-06
(PID.TID 0000.0001) %MON dynstat_uvel_min             =  -3.7285564624986E-05
(PID.TID 0000.0001) %MON dynstat_uvel_mean            =   3.0321900901109E-09
(PID.TID 0000.0001) %MON dynstat_uvel_sd              =   2.6053590093385E-06
(PID.TID 0000.0001) %MON dynstat_uvel_del2            =   9.9802762861827E-08
(PID.TID 0000.0001) %MON dynstat_vvel_max             =   5.9882680626734E-05
(PID.TID 0000.0001) %MON dynstat_vvel_min             =  -8.5757797863999E-06
(PID.TID 0000.0001) %MON dynstat_vvel_mean            =  -2.6956925651969E-07
(PID.TID 0000.0001) %MON dynstat_vvel_sd              =   3.7604382094984E-06
(PID.TID 0000.0001) %MON dynstat_vvel_del2            =   1.8794539526045E-07
(PID.TID 0000.0001) %MON dynstat_wvel_max             =   2.1780693264323E-07
(PID.TID 0000.0001) %MON dynstat_wvel_min             =  -2.1697065336950E-07
(PID.TID 0000.0001) %MON dynstat_wvel_mean            =  -1.1883453572565E-10
(PID.TID 0000.0001) %MON dynstat_wvel_sd              =   1.0738948370811E-08
(PID.TID 0000.0001) %MON dynstat_wvel_del2            =   3.3935172731636E-09
(PID.TID 0000.0001) %MON dynstat_theta_max            =  -1.9000000000000E+00
(PID.TID 0000.0001) %MON dynstat_theta_min            =  -1.9058378506954E+00
(PID.TID 0000.0001) %MON dynstat_theta_mean           =  -1.9000881374336E+00
(PID.TID 0000.0001) %MON dynstat_theta_sd             =   4.2561730772937E-04
(PID.TID 0000.0001) %MON dynstat_theta_del2           =   5.8450337766935E-06
(PID.TID 0000.0001) %MON dynstat_salt_max             =   3.4400000000000E+01
(PID.TID 0000.0001) %MON dynstat_salt_min             =   3.4398085698236E+01
(PID.TID 0000.0001) %MON dynstat_salt_mean            =   3.4399968152330E+01
(PID.TID 0000.0001) %MON dynstat_salt_sd              =   1.4906060934620E-04
(PID.TID 0000.0001) %MON dynstat_salt_del2            =   2.0202880315197E-06
(PID.TID 0000.0001) %MON extforcing_qnet_max          =   0.0000000000000E+00
(PID.TID 0000.0001) %MON extforcing_qnet_min          =   0.0000000000000E+00
(PID.TID 0000.0001) %MON extforcing_qnet_mean         =   0.0000000000000E+00
(PID.TID 0000.0001) %MON extforcing_qnet_sd           =   0.0000000000000E+00
(PID.TID 0000.0001) %MON extforcing_qnet_del2         =   0.0000000000000E+00
(PID.TID 0000.0001) %MON extforcing_qsw_max           =   0.0000000000000E+00
(PID.TID 0000.0001) %MON extforcing_qsw_min           =   0.0000000000000E+00
(PID.TID 0000.0001) %MON extforcing_qsw_mean          =   0.0000000000000E+00
(PID.TID 0000.0001) %MON extforcing_qsw_sd            =   0.0000000000000E+00
(PID.TID 0000.0001) %MON extforcing_qsw_del2          =   0.0000000000000E+00
(PID.TID 0000.0001) %MON extforcing_empmr_max         =   0.0000000000000E+00
(PID.TID 0000.0001) %MON extforcing_empmr_min         =   0.0000000000000E+00
(PID.TID 0000.0001) %MON extforcing_empmr_mean        =   0.0000000000000E+00
(PID.TID 0000.0001) %MON extforcing_empmr_sd          =   0.0000000000000E+00
(PID.TID 0000.0001) %MON extforcing_empmr_del2        =   0.0000000000000E+00
(PID.TID 0000.0001) %MON advcfl_uvel_max              =   1.1094097845085E-05
(PID.TID 0000.0001) %MON advcfl_vvel_max              =   9.6952037025353E-06
(PID.TID 0000.0001) %MON advcfl_wvel_max              =   1.3068415958594E-05
(PID.TID 0000.0001) %MON advcfl_W_hf_max              =   1.7314487536533E-05
(PID.TID 0000.0001) %MON pe_b_mean                    =  -5.1986742287422E-09
(PID.TID 0000.0001) %MON ke_max                       =   1.6633965762305E-09
(PID.TID 0000.0001) %MON ke_mean                      =   1.0347912031379E-11
(PID.TID 0000.0001) %MON ke_vol                       =   2.9241705273104E+14
(PID.TID 0000.0001) %MON vort_r_min                   =  -1.0138695845290E-08
(PID.TID 0000.0001) %MON vort_r_max                   =   1.0024037889495E-08
(PID.TID 0000.0001) %MON vort_a_mean                  =  -1.4007437275569E-04
(PID.TID 0000.0001) %MON vort_a_sd                    =   1.7682769873545E-06
(PID.TID 0000.0001) %MON vort_p_mean                  =  -1.5039772192436E-04
(PID.TID 0000.0001) %MON vort_p_sd                    =   8.7080833497328E-05
(PID.TID 0000.0001) %MON surfExpan_theta_mean         =  -6.7938854588985E-13
(PID.TID 0000.0001) %MON surfExpan_salt_mean          =  -2.2296557140841E-13
(PID.TID 0000.0001) // =======================================================
(PID.TID 0000.0001) // End MONITOR dynamic field statistics
(PID.TID 0000.0001) // =======================================================
 cg2d: Sum(rhs),rhsMax =   3.55271367880050E-14  7.39020743457137E-05
(PID.TID 0000.0001)                    cg2d_init_res =    4.58012741380149E+00
(PID.TID 0000.0001)                       cg2d_iters =   207
(PID.TID 0000.0001)                         cg2d_res =    9.26565614443205E-14
(PID.TID 0000.0001) // =======================================================
(PID.TID 0000.0001) // Begin MONITOR dynamic field statistics
(PID.TID 0000.0001) // =======================================================
(PID.TID 0000.0001) %MON time_tsnumber                =                     8
(PID.TID 0000.0001) %MON time_secondsf                =   1.4400000000000E+04
(PID.TID 0000.0001) %MON dynstat_eta_max              =   2.8962462026680E-05
(PID.TID 0000.0001) %MON dynstat_eta_min              =  -7.4852217750131E-06
(PID.TID 0000.0001) %MON dynstat_eta_mean             =  -5.8560883065330E-21
(PID.TID 0000.0001) %MON dynstat_eta_sd               =   7.0140054830074E-06
(PID.TID 0000.0001) %MON dynstat_eta_del2             =   2.0487496114153E-06
(PID.TID 0000.0001) %MON dynstat_uvel_max             =   8.1407929272167E-06
(PID.TID 0000.0001) %MON dynstat_uvel_min             =  -5.3579278283723E-05
(PID.TID 0000.0001) %MON dynstat_uvel_mean            =  -1.3468350461996E-09
(PID.TID 0000.0001) %MON dynstat_uvel_sd              =   3.7103342996716E-06
(PID.TID 0000.0001) %MON dynstat_uvel_del2            =   1.5855193395050E-07
(PID.TID 0000.0001) %MON dynstat_vvel_max             =   7.1187758559223E-05
(PID.TID 0000.0001) %MON dynstat_vvel_min             =  -1.0477815880996E-05
(PID.TID 0000.0001) %MON dynstat_vvel_mean            =  -2.7000897954191E-07
(PID.TID 0000.0001) %MON dynstat_vvel_sd              =   4.4906011814329E-06
(PID.TID 0000.0001) %MON dynstat_vvel_del2            =   2.2329682424077E-07
(PID.TID 0000.0001) %MON dynstat_wvel_max             =   2.9666908618512E-07
(PID.TID 0000.0001) %MON dynstat_wvel_min             =  -2.9222460806688E-07
(PID.TID 0000.0001) %MON dynstat_wvel_mean            =  -1.1274761766365E-10
(PID.TID 0000.0001) %MON dynstat_wvel_sd              =   1.3422862790703E-08
(PID.TID 0000.0001) %MON dynstat_wvel_del2            =   4.0567343055878E-09
(PID.TID 0000.0001) %MON dynstat_theta_max            =  -1.9000000000000E+00
(PID.TID 0000.0001) %MON dynstat_theta_min            =  -1.9066652528469E+00
(PID.TID 0000.0001) %MON dynstat_theta_mean           =  -1.9001006613452E+00
(PID.TID 0000.0001) %MON dynstat_theta_sd             =   4.8596821873125E-04
(PID.TID 0000.0001) %MON dynstat_theta_del2           =   6.6694573493288E-06
(PID.TID 0000.0001) %MON dynstat_salt_max             =   3.4400000000000E+01
(PID.TID 0000.0001) %MON dynstat_salt_min             =   3.4397814089191E+01
(PID.TID 0000.0001) %MON dynstat_salt_mean            =   3.4399963624659E+01
(PID.TID 0000.0001) %MON dynstat_salt_sd              =   1.7021413668989E-04
(PID.TID 0000.0001) %MON dynstat_salt_del2            =   2.3054959070914E-06
(PID.TID 0000.0001) %MON extforcing_qnet_max          =   0.0000000000000E+00
(PID.TID 0000.0001) %MON extforcing_qnet_min          =   0.0000000000000E+00
(PID.TID 0000.0001) %MON extforcing_qnet_mean         =   0.0000000000000E+00
(PID.TID 0000.0001) %MON extforcing_qnet_sd           =   0.0000000000000E+00
(PID.TID 0000.0001) %MON extforcing_qnet_del2         =   0.0000000000000E+00
(PID.TID 0000.0001) %MON extforcing_qsw_max           =   0.0000000000000E+00
(PID.TID 0000.0001) %MON extforcing_qsw_min           =   0.0000000000000E+00
(PID.TID 0000.0001) %MON extforcing_qsw_mean          =   0.0000000000000E+00
(PID.TID 0000.0001) %MON extforcing_qsw_sd            =   0.0000000000000E+00
(PID.TID 0000.0001) %MON extforcing_qsw_del2          =   0.0000000000000E+00
(PID.TID 0000.0001) %MON extforcing_empmr_max         =   0.0000000000000E+00
(PID.TID 0000.0001) %MON extforcing_empmr_min         =   0.0000000000000E+00
(PID.TID 0000.0001) %MON extforcing_empmr_mean        =   0.0000000000000E+00
(PID.TID 0000.0001) %MON extforcing_empmr_sd          =   0.0000000000000E+00
(PID.TID 0000.0001) %MON extforcing_empmr_del2        =   0.0000000000000E+00
(PID.TID 0000.0001) %MON advcfl_uvel_max              =   1.5942195370439E-05
(PID.TID 0000.0001) %MON advcfl_vvel_max              =   1.1525533144728E-05
(PID.TID 0000.0001) %MON advcfl_wvel_max              =   1.7800145171107E-05
(PID.TID 0000.0001) %MON advcfl_W_hf_max              =   2.2948853718107E-05
(PID.TID 0000.0001) %MON pe_b_mean                    =  -6.3836408935939E-09
(PID.TID 0000.0001) %MON ke_max                       =   2.8137691979675E-09
(PID.TID 0000.0001) %MON ke_mean                      =   1.6743042120466E-11
(PID.TID 0000.0001) %MON ke_vol                       =   2.9241705273104E+14
(PID.TID 0000.0001) %MON vort_r_min                   =  -1.2052750885332E-08
(PID.TID 0000.0001) %MON vort_r_max                   =   1.1973279615309E-08
(PID.TID 0000.0001) %MON vort_a_mean                  =  -1.4007437274164E-04
(PID.TID 0000.0001) %MON vort_a_sd                    =   1.7682769255745E-06
(PID.TID 0000.0001) %MON vort_p_mean                  =  -1.5039772190927E-04
(PID.TID 0000.0001) %MON vort_p_sd                    =   8.7080667130102E-05
(PID.TID 0000.0001) %MON surfExpan_theta_mean         =  -7.3359917039162E-13
(PID.TID 0000.0001) %MON surfExpan_salt_mean          =  -2.4121094249660E-13
(PID.TID 0000.0001) // =======================================================
(PID.TID 0000.0001) // End MONITOR dynamic field statistics
(PID.TID 0000.0001) // =======================================================
 cg2d: Sum(rhs),rhsMax =  -1.42108547152020E-14  8.36131198992619E-05
(PID.TID 0000.0001)                    cg2d_init_res =    4.04136614941890E+00
(PID.TID 0000.0001)                       cg2d_iters =   206
(PID.TID 0000.0001)                         cg2d_res =    9.29635929129702E-14
(PID.TID 0000.0001) // =======================================================
(PID.TID 0000.0001) // Begin MONITOR dynamic field statistics
(PID.TID 0000.0001) // =======================================================
(PID.TID 0000.0001) %MON time_tsnumber                =                     9
(PID.TID 0000.0001) %MON time_secondsf                =   1.6200000000000E+04
(PID.TID 0000.0001) %MON dynstat_eta_max              =   3.3377965912198E-05
(PID.TID 0000.0001) %MON dynstat_eta_min              =  -7.7367826296884E-06
(PID.TID 0000.0001) %MON dynstat_eta_mean             =   1.1712176613066E-20
(PID.TID 0000.0001) %MON dynstat_eta_sd               =   8.0726399557273E-06
(PID.TID 0000.0001) %MON dynstat_eta_del2             =   2.3159992540743E-06
(PID.TID 0000.0001) %MON dynstat_uvel_max             =   1.1114829327190E-05
(PID.TID 0000.0001) %MON dynstat_uvel_min             =  -7.2440466636553E-05
(PID.TID 0000.0001) %MON dynstat_uvel_mean            =  -5.7475123709347E-09
(PID.TID 0000.0001) %MON dynstat_uvel_sd              =   4.9981138998560E-06
(PID.TID 0000.0001) %MON dynstat_uvel_del2            =   2.2693199913277E-07
(PID.TID 0000.0001) %MON dynstat_vvel_max             =   8.1051154070680E-05
(PID.TID 0000.0001) %MON dynstat_vvel_min             =  -1.2471506999003E-05
(PID.TID 0000.0001) %MON dynstat_vvel_mean            =  -2.4959577493818E-07
(PID.TID 0000.0001) %MON dynstat_vvel_sd              =   5.1209399988247E-06
(PID.TID 0000.0001) %MON dynstat_vvel_del2            =   2.5373502722724E-07
(PID.TID 0000.0001) %MON dynstat_wvel_max             =   3.8502769155335E-07
(PID.TID 0000.0001) %MON dynstat_wvel_min             =  -3.7585714162943E-07
(PID.TID 0000.0001) %MON dynstat_wvel_mean            =  -1.0097927141320E-10
(PID.TID 0000.0001) %MON dynstat_wvel_sd              =   1.6195418030479E-08
(PID.TID 0000.0001) %MON dynstat_wvel_del2            =   4.6505736869720E-09
(PID.TID 0000.0001) %MON dynstat_theta_max            =  -1.9000000000000E+00
(PID.TID 0000.0001) %MON dynstat_theta_min            =  -1.9074910615434E+00
(PID.TID 0000.0001) %MON dynstat_theta_mean           =  -1.9001131689304E+00
(PID.TID 0000.0001) %MON dynstat_theta_sd             =   5.4620956254652E-04
(PID.TID 0000.0001) %MON dynstat_theta_del2           =   7.4913206525504E-06
(PID.TID 0000.0001) %MON dynstat_salt_max             =   3.4400000000000E+01
(PID.TID 0000.0001) %MON dynstat_salt_min             =   3.4397542931993E+01
(PID.TID 0000.0001) %MON dynstat_salt_mean            =   3.4399959102340E+01
(PID.TID 0000.0001) %MON dynstat_salt_sd              =   1.9133345180710E-04
(PID.TID 0000.0001) %MON dynstat_salt_del2            =   2.5898792799618E-06
(PID.TID 0000.0001) %MON extforcing_qnet_max          =   0.0000000000000E+00
(PID.TID 0000.0001) %MON extforcing_qnet_min          =   0.0000000000000E+00
(PID.TID 0000.0001) %MON extforcing_qnet_mean         =   0.0000000000000E+00
(PID.TID 0000.0001) %MON extforcing_qnet_sd           =   0.0000000000000E+00
(PID.TID 0000.0001) %MON extforcing_qnet_del2         =   0.0000000000000E+00
(PID.TID 0000.0001) %MON extforcing_qsw_max           =   0.0000000000000E+00
(PID.TID 0000.0001) %MON extforcing_qsw_min           =   0.0000000000000E+00
(PID.TID 0000.0001) %MON extforcing_qsw_mean          =   0.0000000000000E+00
(PID.TID 0000.0001) %MON extforcing_qsw_sd            =   0.0000000000000E+00
(PID.TID 0000.0001) %MON extforcing_qsw_del2          =   0.0000000000000E+00
(PID.TID 0000.0001) %MON extforcing_empmr_max         =   0.0000000000000E+00
(PID.TID 0000.0001) %MON extforcing_empmr_min         =   0.0000000000000E+00
(PID.TID 0000.0001) %MON extforcing_empmr_mean        =   0.0000000000000E+00
(PID.TID 0000.0001) %MON extforcing_empmr_sd          =   0.0000000000000E+00
(PID.TID 0000.0001) %MON extforcing_empmr_del2        =   0.0000000000000E+00
(PID.TID 0000.0001) %MON advcfl_uvel_max              =   2.1554229710417E-05
(PID.TID 0000.0001) %MON advcfl_vvel_max              =   1.3122449443087E-05
(PID.TID 0000.0001) %MON advcfl_wvel_max              =   2.3101661493201E-05
(PID.TID 0000.0001) %MON advcfl_W_hf_max              =   2.9069498694699E-05
(PID.TID 0000.0001) %MON pe_b_mean                    =  -7.4680757144399E-09
(PID.TID 0000.0001) %MON ke_max                       =   4.4120672787546E-09
(PID.TID 0000.0001) %MON ke_mean                      =   2.5224310907619E-11
(PID.TID 0000.0001) %MON ke_vol                       =   2.9241705273104E+14
(PID.TID 0000.0001) %MON vort_r_min                   =  -1.3701879082854E-08
(PID.TID 0000.0001) %MON vort_r_max                   =   1.3657604364003E-08
(PID.TID 0000.0001) %MON vort_a_mean                  =  -1.4007437272728E-04
(PID.TID 0000.0001) %MON vort_a_sd                    =   1.7682768474416E-06
(PID.TID 0000.0001) %MON vort_p_mean                  =  -1.5039772189385E-04
(PID.TID 0000.0001) %MON vort_p_sd                    =   8.7080473947156E-05
(PID.TID 0000.0001) %MON surfExpan_theta_mean         =  -7.3743428764099E-13
(PID.TID 0000.0001) %MON surfExpan_salt_mean          =  -2.4287314056472E-13
(PID.TID 0000.0001) // =======================================================
(PID.TID 0000.0001) // End MONITOR dynamic field statistics
(PID.TID 0000.0001) // =======================================================
 cg2d: Sum(rhs),rhsMax =  -5.32907051820075E-15  9.33242947984548E-05
(PID.TID 0000.0001)                    cg2d_init_res =    3.61466113249751E+00
(PID.TID 0000.0001)                       cg2d_iters =   206
(PID.TID 0000.0001)                         cg2d_res =    7.54431728398630E-14
(PID.TID 0000.0001) // =======================================================
(PID.TID 0000.0001) // Begin MONITOR dynamic field statistics
(PID.TID 0000.0001) // =======================================================
(PID.TID 0000.0001) %MON time_tsnumber                =                    10
(PID.TID 0000.0001) %MON time_secondsf                =   1.8000000000000E+04
(PID.TID 0000.0001) %MON dynstat_eta_max              =   3.7458361475825E-05
(PID.TID 0000.0001) %MON dynstat_eta_min              =  -8.1287582748241E-06
(PID.TID 0000.0001) %MON dynstat_eta_mean             =  -4.7913449780724E-21
(PID.TID 0000.0001) %MON dynstat_eta_sd               =   9.0292273943356E-06
(PID.TID 0000.0001) %MON dynstat_eta_del2             =   2.5826918296732E-06
(PID.TID 0000.0001) %MON dynstat_uvel_max             =   1.4419015037022E-05
(PID.TID 0000.0001) %MON dynstat_uvel_min             =  -9.3351629277853E-05
(PID.TID 0000.0001) %MON dynstat_uvel_mean            =  -9.1218433194372E-09
(PID.TID 0000.0001) %MON dynstat_uvel_sd              =   6.4354357978195E-06
(PID.TID 0000.0001) %MON dynstat_uvel_del2            =   3.0127611662979E-07
(PID.TID 0000.0001) %MON dynstat_vvel_max             =   8.8937781906642E-05
(PID.TID 0000.0001) %MON dynstat_vvel_min             =  -1.4236069154424E-05
(PID.TID 0000.0001) %MON dynstat_vvel_mean            =  -2.1251721662113E-07
(PID.TID 0000.0001) %MON dynstat_vvel_sd              =   5.6112975528079E-06
(PID.TID 0000.0001) %MON dynstat_vvel_del2            =   2.7757087599078E-07
(PID.TID 0000.0001) %MON dynstat_wvel_max             =   4.8033838209822E-07
(PID.TID 0000.0001) %MON dynstat_wvel_min             =  -4.6543266597228E-07
(PID.TID 0000.0001) %MON dynstat_wvel_mean            =  -8.5440576587729E-11
(PID.TID 0000.0001) %MON dynstat_wvel_sd              =   1.9000430581046E-08
(PID.TID 0000.0001) %MON dynstat_wvel_del2            =   5.1461036645788E-09
(PID.TID 0000.0001) %MON dynstat_theta_max            =  -1.9000000000000E+00
(PID.TID 0000.0001) %MON dynstat_theta_min            =  -1.9083152825429E+00
(PID.TID 0000.0001) %MON dynstat_theta_mean           =  -1.9001256602237E+00
(PID.TID 0000.0001) %MON dynstat_theta_sd             =   6.0634164199246E-04
(PID.TID 0000.0001) %MON dynstat_theta_del2           =   8.3106330106916E-06
(PID.TID 0000.0001) %MON dynstat_salt_max             =   3.4400000000000E+01
(PID.TID 0000.0001) %MON dynstat_salt_min             =   3.4397272225150E+01
(PID.TID 0000.0001) %MON dynstat_salt_mean            =   3.4399954585364E+01
(PID.TID 0000.0001) %MON dynstat_salt_sd              =   2.1241863738862E-04
(PID.TID 0000.0001) %MON dynstat_salt_del2            =   2.8734409295748E-06
(PID.TID 0000.0001) %MON extforcing_qnet_max          =   0.0000000000000E+00
(PID.TID 0000.0001) %MON extforcing_qnet_min          =   0.0000000000000E+00
(PID.TID 0000.0001) %MON extforcing_qnet_mean         =   0.0000000000000E+00
(PID.TID 0000.0001) %MON extforcing_qnet_sd           =   0.0000000000000E+00
(PID.TID 0000.0001) %MON extforcing_qnet_del2         =   0.0000000000000E+00
(PID.TID 0000.0001) %MON extforcing_qsw_max           =   0.0000000000000E+00
(PID.TID 0000.0001) %MON extforcing_qsw_min           =   0.0000000000000E+00
(PID.TID 0000.0001) %MON extforcing_qsw_mean          =   0.0000000000000E+00
(PID.TID 0000.0001) %MON extforcing_qsw_sd            =   0.0000000000000E+00
(PID.TID 0000.0001) %MON extforcing_qsw_del2          =   0.0000000000000E+00
(PID.TID 0000.0001) %MON extforcing_empmr_max         =   0.0000000000000E+00
(PID.TID 0000.0001) %MON extforcing_empmr_min         =   0.0000000000000E+00
(PID.TID 0000.0001) %MON extforcing_empmr_mean        =   0.0000000000000E+00
(PID.TID 0000.0001) %MON extforcing_empmr_sd          =   0.0000000000000E+00
(PID.TID 0000.0001) %MON extforcing_empmr_del2        =   0.0000000000000E+00
(PID.TID 0000.0001) %MON advcfl_uvel_max              =   2.7776221699285E-05
(PID.TID 0000.0001) %MON advcfl_vvel_max              =   1.4399320528273E-05
(PID.TID 0000.0001) %MON advcfl_wvel_max              =   2.8820302925893E-05
(PID.TID 0000.0001) %MON advcfl_W_hf_max              =   3.5477924548862E-05
(PID.TID 0000.0001) %MON pe_b_mean                    =  -8.4032177211512E-09
(PID.TID 0000.0001) %MON ke_max                       =   6.4984521116069E-09
(PID.TID 0000.0001) %MON ke_mean                      =   3.5865404105676E-11
(PID.TID 0000.0001) %MON ke_vol                       =   2.9241705273104E+14
(PID.TID 0000.0001) %MON vort_r_min                   =  -1.4990781208196E-08
(PID.TID 0000.0001) %MON vort_r_max                   =   1.4977827611638E-08
(PID.TID 0000.0001) %MON vort_a_mean                  =  -1.4007437271561E-04
(PID.TID 0000.0001) %MON vort_a_sd                    =   1.7682767450706E-06
(PID.TID 0000.0001) %MON vort_p_mean                  =  -1.5039772188132E-04
(PID.TID 0000.0001) %MON vort_p_sd                    =   8.7080258986774E-05
(PID.TID 0000.0001) %MON surfExpan_theta_mean         =  -6.9327168451807E-13
(PID.TID 0000.0001) %MON surfExpan_salt_mean          =  -2.2864871793922E-13
(PID.TID 0000.0001) // =======================================================
(PID.TID 0000.0001) // End MONITOR dynamic field statistics
(PID.TID 0000.0001) // =======================================================
 cg2d: Sum(rhs),rhsMax =  -8.88178419700125E-15  1.03036738481153E-04
(PID.TID 0000.0001)                    cg2d_init_res =    3.26834094832092E+00
(PID.TID 0000.0001)                       cg2d_iters =   204
(PID.TID 0000.0001)                         cg2d_res =    9.93919526742575E-14
(PID.TID 0000.0001) // =======================================================
(PID.TID 0000.0001) // Begin MONITOR dynamic field statistics
(PID.TID 0000.0001) // =======================================================
(PID.TID 0000.0001) %MON time_tsnumber                =                    11
(PID.TID 0000.0001) %MON time_secondsf                =   1.9800000000000E+04
(PID.TID 0000.0001) %MON dynstat_eta_max              =   4.1143262037285E-05
(PID.TID 0000.0001) %MON dynstat_eta_min              =  -8.8198315986616E-06
(PID.TID 0000.0001) %MON dynstat_eta_mean             =   2.6618583211513E-21
(PID.TID 0000.0001) %MON dynstat_eta_sd               =   9.8631723673368E-06
(PID.TID 0000.0001) %MON dynstat_eta_del2             =   2.8488449819598E-06
(PID.TID 0000.0001) %MON dynstat_uvel_max             =   1.7947942248799E-05
(PID.TID 0000.0001) %MON dynstat_uvel_min             =  -1.1566985098487E-04
(PID.TID 0000.0001) %MON dynstat_uvel_mean            =  -1.0631585436695E-08
(PID.TID 0000.0001) %MON dynstat_uvel_sd              =   7.9797614239115E-06
(PID.TID 0000.0001) %MON dynstat_uvel_del2            =   3.7841604492658E-07
(PID.TID 0000.0001) %MON dynstat_vvel_max             =   9.4260328686991E-05
(PID.TID 0000.0001) %MON dynstat_vvel_min             =  -1.5672378286758E-05
(PID.TID 0000.0001) %MON dynstat_vvel_mean            =  -1.6519548419248E-07
(PID.TID 0000.0001) %MON dynstat_vvel_sd              =   5.9311048327255E-06
(PID.TID 0000.0001) %MON dynstat_vvel_del2            =   2.9367450516837E-07
(PID.TID 0000.0001) %MON dynstat_wvel_max             =   5.7968042183031E-07
(PID.TID 0000.0001) %MON dynstat_wvel_min             =  -5.5820065058262E-07
(PID.TID 0000.0001) %MON dynstat_wvel_mean            =  -6.8097298769630E-11
(PID.TID 0000.0001) %MON dynstat_wvel_sd              =   2.1786672832061E-08
(PID.TID 0000.0001) %MON dynstat_wvel_del2            =   5.5283044494921E-09
(PID.TID 0000.0001) %MON dynstat_theta_max            =  -1.9000000000000E+00
(PID.TID 0000.0001) %MON dynstat_theta_min            =  -1.9091379217907E+00
(PID.TID 0000.0001) %MON dynstat_theta_mean           =  -1.9001381352596E+00
(PID.TID 0000.0001) %MON dynstat_theta_sd             =   6.6636475853393E-04
(PID.TID 0000.0001) %MON dynstat_theta_del2           =   9.1274036782374E-06
(PID.TID 0000.0001) %MON dynstat_salt_max             =   3.4400000000000E+01
(PID.TID 0000.0001) %MON dynstat_salt_min             =   3.4397001967106E+01
(PID.TID 0000.0001) %MON dynstat_salt_mean            =   3.4399950073722E+01
(PID.TID 0000.0001) %MON dynstat_salt_sd              =   2.3346977578546E-04
(PID.TID 0000.0001) %MON dynstat_salt_del2            =   3.1561836119076E-06
(PID.TID 0000.0001) %MON extforcing_qnet_max          =   0.0000000000000E+00
(PID.TID 0000.0001) %MON extforcing_qnet_min          =   0.0000000000000E+00
(PID.TID 0000.0001) %MON extforcing_qnet_mean         =   0.0000000000000E+00
(PID.TID 0000.0001) %MON extforcing_qnet_sd           =   0.0000000000000E+00
(PID.TID 0000.0001) %MON extforcing_qnet_del2         =   0.0000000000000E+00
(PID.TID 0000.0001) %MON extforcing_qsw_max           =   0.0000000000000E+00
(PID.TID 0000.0001) %MON extforcing_qsw_min           =   0.0000000000000E+00
(PID.TID 0000.0001) %MON extforcing_qsw_mean          =   0.0000000000000E+00
(PID.TID 0000.0001) %MON extforcing_qsw_sd            =   0.0000000000000E+00
(PID.TID 0000.0001) %MON extforcing_qsw_del2          =   0.0000000000000E+00
(PID.TID 0000.0001) %MON extforcing_empmr_max         =   0.0000000000000E+00
(PID.TID 0000.0001) %MON extforcing_empmr_min         =   0.0000000000000E+00
(PID.TID 0000.0001) %MON extforcing_empmr_mean        =   0.0000000000000E+00
(PID.TID 0000.0001) %MON extforcing_empmr_sd          =   0.0000000000000E+00
(PID.TID 0000.0001) %MON extforcing_empmr_del2        =   0.0000000000000E+00
(PID.TID 0000.0001) %MON advcfl_uvel_max              =   3.4416875738892E-05
(PID.TID 0000.0001) %MON advcfl_vvel_max              =   1.5261058424969E-05
(PID.TID 0000.0001) %MON advcfl_wvel_max              =   3.4780825309818E-05
(PID.TID 0000.0001) %MON advcfl_W_hf_max              =   4.1963192337614E-05
(PID.TID 0000.0001) %MON pe_b_mean                    =  -9.1621512283842E-09
(PID.TID 0000.0001) %MON ke_max                       =   9.0749513058483E-09
(PID.TID 0000.0001) %MON ke_mean                      =   4.8584278263076E-11
(PID.TID 0000.0001) %MON ke_vol                       =   2.9241705273104E+14
(PID.TID 0000.0001) %MON vort_r_min                   =  -1.5850595648280E-08
(PID.TID 0000.0001) %MON vort_r_max                   =   1.5862016585104E-08
(PID.TID 0000.0001) %MON vort_a_mean                  =  -1.4007437270917E-04
(PID.TID 0000.0001) %MON vort_a_sd                    =   1.7682766128809E-06
(PID.TID 0000.0001) %MON vort_p_mean                  =  -1.5039772187441E-04
(PID.TID 0000.0001) %MON vort_p_sd                    =   8.7080028629889E-05
(PID.TID 0000.0001) %MON surfExpan_theta_mean         =  -6.0964026149589E-13
(PID.TID 0000.0001) %MON surfExpan_salt_mean          =  -2.0131315404754E-13
(PID.TID 0000.0001) // =======================================================
(PID.TID 0000.0001) // End MONITOR dynamic field statistics
(PID.TID 0000.0001) // =======================================================
 cg2d: Sum(rhs),rhsMax =  -2.48689957516035E-14  1.12750843973225E-04
(PID.TID 0000.0001)                    cg2d_init_res =    2.98167506513562E+00
(PID.TID 0000.0001)                       cg2d_iters =   198
(PID.TID 0000.0001)                         cg2d_res =    9.67154257904609E-14
(PID.TID 0000.0001) // =======================================================
(PID.TID 0000.0001) // Begin MONITOR dynamic field statistics
(PID.TID 0000.0001) // =======================================================
(PID.TID 0000.0001) %MON time_tsnumber                =                    12
(PID.TID 0000.0001) %MON time_secondsf                =   2.1600000000000E+04
(PID.TID 0000.0001) %MON dynstat_eta_max              =   4.4420261689595E-05
(PID.TID 0000.0001) %MON dynstat_eta_min              =  -1.0012847554922E-05
(PID.TID 0000.0001) %MON dynstat_eta_mean             =   4.2589733138421E-21
(PID.TID 0000.0001) %MON dynstat_eta_sd               =   1.0572847246753E-05
(PID.TID 0000.0001) %MON dynstat_eta_del2             =   3.1144781539474E-06
(PID.TID 0000.0001) %MON dynstat_uvel_max             =   2.1582626552893E-05
(PID.TID 0000.0001) %MON dynstat_uvel_min             =  -1.3866976147814E-04
(PID.TID 0000.0001) %MON dynstat_uvel_mean            =  -9.8310370147095E-09
(PID.TID 0000.0001) %MON dynstat_uvel_sd              =   9.5820633424665E-06
(PID.TID 0000.0001) %MON dynstat_uvel_del2            =   4.5507326272663E-07
(PID.TID 0000.0001) %MON dynstat_vvel_max             =   9.6779301167381E-05
(PID.TID 0000.0001) %MON dynstat_vvel_min             =  -1.6703334630030E-05
(PID.TID 0000.0001) %MON dynstat_vvel_mean            =  -1.1508238705223E-07
(PID.TID 0000.0001) %MON dynstat_vvel_sd              =   6.0613245677543E-06
(PID.TID 0000.0001) %MON dynstat_vvel_del2            =   3.0120374815680E-07
(PID.TID 0000.0001) %MON dynstat_wvel_max             =   6.7996979154499E-07
(PID.TID 0000.0001) %MON dynstat_wvel_min             =  -6.5128263062062E-07
(PID.TID 0000.0001) %MON dynstat_wvel_mean            =  -5.0934407790582E-11
(PID.TID 0000.0001) %MON dynstat_wvel_sd              =   2.4507908587805E-08
(PID.TID 0000.0001) %MON dynstat_wvel_del2            =   5.7824453791369E-09
(PID.TID 0000.0001) %MON dynstat_theta_max            =  -1.9000000000000E+00
(PID.TID 0000.0001) %MON dynstat_theta_min            =  -1.9099589853558E+00
(PID.TID 0000.0001) %MON dynstat_theta_mean           =  -1.9001505940726E+00
(PID.TID 0000.0001) %MON dynstat_theta_sd             =   7.2627921219922E-04
(PID.TID 0000.0001) %MON dynstat_theta_del2           =   9.9416418345921E-06
(PID.TID 0000.0001) %MON dynstat_salt_max             =   3.4400000000000E+01
(PID.TID 0000.0001) %MON dynstat_salt_min             =   3.4396732156261E+01
(PID.TID 0000.0001) %MON dynstat_salt_mean            =   3.4399945567403E+01
(PID.TID 0000.0001) %MON dynstat_salt_sd              =   2.5448694897955E-04
(PID.TID 0000.0001) %MON dynstat_salt_del2            =   3.4381100576655E-06
(PID.TID 0000.0001) %MON extforcing_qnet_max          =   0.0000000000000E+00
(PID.TID 0000.0001) %MON extforcing_qnet_min          =   0.0000000000000E+00
(PID.TID 0000.0001) %MON extforcing_qnet_mean         =   0.0000000000000E+00
(PID.TID 0000.0001) %MON extforcing_qnet_sd           =   0.0000000000000E+00
(PID.TID 0000.0001) %MON extforcing_qnet_del2         =   0.0000000000000E+00
(PID.TID 0000.0001) %MON extforcing_qsw_max           =   0.0000000000000E+00
(PID.TID 0000.0001) %MON extforcing_qsw_min           =   0.0000000000000E+00
(PID.TID 0000.0001) %MON extforcing_qsw_mean          =   0.0000000000000E+00
(PID.TID 0000.0001) %MON extforcing_qsw_sd            =   0.0000000000000E+00
(PID.TID 0000.0001) %MON extforcing_qsw_del2          =   0.0000000000000E+00
(PID.TID 0000.0001) %MON extforcing_empmr_max         =   0.0000000000000E+00
(PID.TID 0000.0001) %MON extforcing_empmr_min         =   0.0000000000000E+00
(PID.TID 0000.0001) %MON extforcing_empmr_mean        =   0.0000000000000E+00
(PID.TID 0000.0001) %MON extforcing_empmr_sd          =   0.0000000000000E+00
(PID.TID 0000.0001) %MON extforcing_empmr_del2        =   0.0000000000000E+00
(PID.TID 0000.0001) %MON advcfl_uvel_max              =   4.1260362219704E-05
(PID.TID 0000.0001) %MON advcfl_vvel_max              =   1.5668888386200E-05
(PID.TID 0000.0001) %MON advcfl_wvel_max              =   4.0798187492700E-05
(PID.TID 0000.0001) %MON advcfl_W_hf_max              =   4.8317833340298E-05
(PID.TID 0000.0001) %MON pe_b_mean                    =  -9.7413317179868E-09
(PID.TID 0000.0001) %MON ke_max                       =   1.2098370883859E-08
(PID.TID 0000.0001) %MON ke_mean                      =   6.3131513275638E-11
(PID.TID 0000.0001) %MON ke_vol                       =   2.9241705273104E+14
(PID.TID 0000.0001) %MON vort_r_min                   =  -1.6242655623428E-08
(PID.TID 0000.0001) %MON vort_r_max                   =   1.6269361124498E-08
(PID.TID 0000.0001) %MON vort_a_mean                  =  -1.4007437270927E-04
(PID.TID 0000.0001) %MON vort_a_sd                    =   1.7682764509977E-06
(PID.TID 0000.0001) %MON vort_p_mean                  =  -1.5039772187451E-04
(PID.TID 0000.0001) %MON vort_p_sd                    =   8.7079790191737E-05
(PID.TID 0000.0001) %MON surfExpan_theta_mean         =  -5.0116246576998E-13
(PID.TID 0000.0001) %MON surfExpan_salt_mean          =  -1.6568874493959E-13
(PID.TID 0000.0001) // =======================================================
(PID.TID 0000.0001) // End MONITOR dynamic field statistics
(PID.TID 0000.0001) // =======================================================
 cg2d: Sum(rhs),rhsMax =   5.81756864903582E-14  1.22467087915674E-04
(PID.TID 0000.0001)                    cg2d_init_res =    2.74050378493439E+00
(PID.TID 0000.0001)                       cg2d_iters =   203
(PID.TID 0000.0001)                         cg2d_res =    7.74454357631426E-14
(PID.TID 0000.0001) // =======================================================
(PID.TID 0000.0001) // Begin MONITOR dynamic field statistics
(PID.TID 0000.0001) // =======================================================
(PID.TID 0000.0001) %MON time_tsnumber                =                    13
(PID.TID 0000.0001) %MON time_secondsf                =   2.3400000000000E+04
(PID.TID 0000.0001) %MON dynstat_eta_max              =   4.7317560883431E-05
(PID.TID 0000.0001) %MON dynstat_eta_min              =  -1.1678286900497E-05
(PID.TID 0000.0001) %MON dynstat_eta_mean             =   6.9208316349935E-21
(PID.TID 0000.0001) %MON dynstat_eta_sd               =   1.1175195491211E-05
(PID.TID 0000.0001) %MON dynstat_eta_del2             =   3.3796094357918E-06
(PID.TID 0000.0001) %MON dynstat_uvel_max             =   2.5213886498145E-05
(PID.TID 0000.0001) %MON dynstat_uvel_min             =  -1.6159142756459E-04
(PID.TID 0000.0001) %MON dynstat_uvel_mean            =  -6.7399354790331E-09
(PID.TID 0000.0001) %MON dynstat_uvel_sd              =   1.1190049716804E-05
(PID.TID 0000.0001) %MON dynstat_uvel_del2            =   5.2820423618743E-07
(PID.TID 0000.0001) %MON dynstat_vvel_max             =   9.6448037729686E-05
(PID.TID 0000.0001) %MON dynstat_vvel_min             =  -1.7277846602957E-05
(PID.TID 0000.0001) %MON dynstat_vvel_mean            =  -6.9466354115282E-08
(PID.TID 0000.0001) %MON dynstat_vvel_sd              =   5.9956248741589E-06
(PID.TID 0000.0001) %MON dynstat_vvel_del2            =   2.9996016923464E-07
(PID.TID 0000.0001) %MON dynstat_wvel_max             =   7.7816853602734E-07
(PID.TID 0000.0001) %MON dynstat_wvel_min             =  -7.4186023432545E-07
(PID.TID 0000.0001) %MON dynstat_wvel_mean            =  -3.5880587964867E-11
(PID.TID 0000.0001) %MON dynstat_wvel_sd              =   2.7122556005604E-08
(PID.TID 0000.0001) %MON dynstat_wvel_del2            =   5.8958352809747E-09
(PID.TID 0000.0001) %MON dynstat_theta_max            =  -1.9000000000000E+00
(PID.TID 0000.0001) %MON dynstat_theta_min            =  -1.9107784793511E+00
(PID.TID 0000.0001) %MON dynstat_theta_mean           =  -1.9001630366968E+00
(PID.TID 0000.0001) %MON dynstat_theta_sd             =   7.8608530148818E-04
(PID.TID 0000.0001) %MON dynstat_theta_del2           =   1.0753356582258E-05
(PID.TID 0000.0001) %MON dynstat_salt_max             =   3.4400000000000E+01
(PID.TID 0000.0001) %MON dynstat_salt_min             =   3.4396462790994E+01
(PID.TID 0000.0001) %MON dynstat_salt_mean            =   3.4399941066397E+01
(PID.TID 0000.0001) %MON dynstat_salt_sd              =   2.7547023855272E-04
(PID.TID 0000.0001) %MON dynstat_salt_del2            =   3.7192229719106E-06
(PID.TID 0000.0001) %MON extforcing_qnet_max          =   0.0000000000000E+00
(PID.TID 0000.0001) %MON extforcing_qnet_min          =   0.0000000000000E+00
(PID.TID 0000.0001) %MON extforcing_qnet_mean         =   0.0000000000000E+00
(PID.TID 0000.0001) %MON extforcing_qnet_sd           =   0.0000000000000E+00
(PID.TID 0000.0001) %MON extforcing_qnet_del2         =   0.0000000000000E+00
(PID.TID 0000.0001) %MON extforcing_qsw_max           =   0.0000000000000E+00
(PID.TID 0000.0001) %MON extforcing_qsw_min           =   0.0000000000000E+00
(PID.TID 0000.0001) %MON extforcing_qsw_mean          =   0.0000000000000E+00
(PID.TID 0000.0001) %MON extforcing_qsw_sd            =   0.0000000000000E+00
(PID.TID 0000.0001) %MON extforcing_qsw_del2          =   0.0000000000000E+00
(PID.TID 0000.0001) %MON extforcing_empmr_max         =   0.0000000000000E+00
(PID.TID 0000.0001) %MON extforcing_empmr_min         =   0.0000000000000E+00
(PID.TID 0000.0001) %MON extforcing_empmr_mean        =   0.0000000000000E+00
(PID.TID 0000.0001) %MON extforcing_empmr_sd          =   0.0000000000000E+00
(PID.TID 0000.0001) %MON extforcing_empmr_del2        =   0.0000000000000E+00
(PID.TID 0000.0001) %MON advcfl_uvel_max              =   4.8080567542948E-05
(PID.TID 0000.0001) %MON advcfl_vvel_max              =   1.5615255741936E-05
(PID.TID 0000.0001) %MON advcfl_wvel_max              =   4.6690112161640E-05
(PID.TID 0000.0001) %MON advcfl_W_hf_max              =   5.4352036001957E-05
(PID.TID 0000.0001) %MON pe_b_mean                    =  -1.0159897177939E-08
(PID.TID 0000.0001) %MON ke_max                       =   1.5479165225945E-08
(PID.TID 0000.0001) %MON ke_mean                      =   7.9095726449797E-11
(PID.TID 0000.0001) %MON ke_vol                       =   2.9241705273104E+14
(PID.TID 0000.0001) %MON vort_r_min                   =  -1.6160167395786E-08
(PID.TID 0000.0001) %MON vort_r_max                   =   1.6191884193732E-08
(PID.TID 0000.0001) %MON vort_a_mean                  =  -1.4007437271579E-04
(PID.TID 0000.0001) %MON vort_a_sd                    =   1.7682762657579E-06
(PID.TID 0000.0001) %MON vort_p_mean                  =  -1.5039772188151E-04
(PID.TID 0000.0001) %MON vort_p_sd                    =   8.7079551450253E-05
(PID.TID 0000.0001) %MON surfExpan_theta_mean         =  -3.8797950964948E-13
(PID.TID 0000.0001) %MON surfExpan_salt_mean          =  -1.2843397177510E-13
(PID.TID 0000.0001) // =======================================================
(PID.TID 0000.0001) // End MONITOR dynamic field statistics
(PID.TID 0000.0001) // =======================================================
 cg2d: Sum(rhs),rhsMax =   5.77315972805081E-15  1.32185899661392E-04
(PID.TID 0000.0001)                    cg2d_init_res =    2.53482662210666E+00
(PID.TID 0000.0001)                       cg2d_iters =   202
(PID.TID 0000.0001)                         cg2d_res =    9.12674115092208E-14
(PID.TID 0000.0001) // =======================================================
(PID.TID 0000.0001) // Begin MONITOR dynamic field statistics
(PID.TID 0000.0001) // =======================================================
(PID.TID 0000.0001) %MON time_tsnumber                =                    14
(PID.TID 0000.0001) %MON time_secondsf                =   2.5200000000000E+04
(PID.TID 0000.0001) %MON dynstat_eta_max              =   4.9896944954627E-05
(PID.TID 0000.0001) %MON dynstat_eta_min              =  -1.3450416419486E-05
(PID.TID 0000.0001) %MON dynstat_eta_mean             =   1.5971149926908E-21
(PID.TID 0000.0001) %MON dynstat_eta_sd               =   1.1701760184422E-05
(PID.TID 0000.0001) %MON dynstat_eta_del2             =   3.6442506337087E-06
(PID.TID 0000.0001) %MON dynstat_uvel_max             =   2.8717598161580E-05
(PID.TID 0000.0001) %MON dynstat_uvel_min             =  -1.8369191609354E-04
(PID.TID 0000.0001) %MON dynstat_uvel_mean            =  -1.7962064593360E-09
(PID.TID 0000.0001) %MON dynstat_uvel_sd              =   1.2751592036121E-05
(PID.TID 0000.0001) %MON dynstat_uvel_del2            =   5.9519894764699E-07
(PID.TID 0000.0001) %MON dynstat_vvel_max             =   9.3409429678793E-05
(PID.TID 0000.0001) %MON dynstat_vvel_min             =  -1.7375394427318E-05
(PID.TID 0000.0001) %MON dynstat_vvel_mean            =  -3.4468789015300E-08
(PID.TID 0000.0001) %MON dynstat_vvel_sd              =   5.7407251754853E-06
(PID.TID 0000.0001) %MON dynstat_vvel_del2            =   2.9034400695262E-07
(PID.TID 0000.0001) %MON dynstat_wvel_max             =   8.7147924623607E-07
(PID.TID 0000.0001) %MON dynstat_wvel_min             =  -8.2735272503363E-07
(PID.TID 0000.0001) %MON dynstat_wvel_mean            =  -2.4663509970512E-11
(PID.TID 0000.0001) %MON dynstat_wvel_sd              =   2.9593221738903E-08
(PID.TID 0000.0001) %MON dynstat_wvel_del2            =   5.8729845861849E-09
(PID.TID 0000.0001) %MON dynstat_theta_max            =  -1.9000000000000E+00
(PID.TID 0000.0001) %MON dynstat_theta_min            =  -1.9115964098437E+00
(PID.TID 0000.0001) %MON dynstat_theta_mean           =  -1.9001754631662E+00
(PID.TID 0000.0001) %MON dynstat_theta_sd             =   8.4578332328639E-04
(PID.TID 0000.0001) %MON dynstat_theta_del2           =   1.1562556948085E-05
(PID.TID 0000.0001) %MON dynstat_salt_max             =   3.4400000000000E+01
(PID.TID 0000.0001) %MON dynstat_salt_min             =   3.4396193869699E+01
(PID.TID 0000.0001) %MON dynstat_salt_mean            =   3.4399936570696E+01
(PID.TID 0000.0001) %MON dynstat_salt_sd              =   2.9641972565782E-04
(PID.TID 0000.0001) %MON dynstat_salt_del2            =   3.9995250348593E-06
(PID.TID 0000.0001) %MON extforcing_qnet_max          =   0.0000000000000E+00
(PID.TID 0000.0001) %MON extforcing_qnet_min          =   0.0000000000000E+00
(PID.TID 0000.0001) %MON extforcing_qnet_mean         =   0.0000000000000E+00
(PID.TID 0000.0001) %MON extforcing_qnet_sd           =   0.0000000000000E+00
(PID.TID 0000.0001) %MON extforcing_qnet_del2         =   0.0000000000000E+00
(PID.TID 0000.0001) %MON extforcing_qsw_max           =   0.0000000000000E+00
(PID.TID 0000.0001) %MON extforcing_qsw_min           =   0.0000000000000E+00
(PID.TID 0000.0001) %MON extforcing_qsw_mean          =   0.0000000000000E+00
(PID.TID 0000.0001) %MON extforcing_qsw_sd            =   0.0000000000000E+00
(PID.TID 0000.0001) %MON extforcing_qsw_del2          =   0.0000000000000E+00
(PID.TID 0000.0001) %MON extforcing_empmr_max         =   0.0000000000000E+00
(PID.TID 0000.0001) %MON extforcing_empmr_min         =   0.0000000000000E+00
(PID.TID 0000.0001) %MON extforcing_empmr_mean        =   0.0000000000000E+00
(PID.TID 0000.0001) %MON extforcing_empmr_sd          =   0.0000000000000E+00
(PID.TID 0000.0001) %MON extforcing_empmr_del2        =   0.0000000000000E+00
(PID.TID 0000.0001) %MON advcfl_uvel_max              =   5.4656436371282E-05
(PID.TID 0000.0001) %MON advcfl_vvel_max              =   1.5123295066207E-05
(PID.TID 0000.0001) %MON advcfl_wvel_max              =   5.2288754774164E-05
(PID.TID 0000.0001) %MON advcfl_W_hf_max              =   5.9905508011762E-05
(PID.TID 0000.0001) %MON pe_b_mean                    =  -1.0456705209716E-08
(PID.TID 0000.0001) %MON ke_max                       =   1.9087349288319E-08
(PID.TID 0000.0001) %MON ke_mean                      =   9.5927156282827E-11
(PID.TID 0000.0001) %MON ke_vol                       =   2.9241705273104E+14
(PID.TID 0000.0001) %MON vort_r_min                   =  -1.5627788853619E-08
(PID.TID 0000.0001) %MON vort_r_max                   =   1.5653958216636E-08
(PID.TID 0000.0001) %MON vort_a_mean                  =  -1.4007437272740E-04
(PID.TID 0000.0001) %MON vort_a_sd                    =   1.7682760670045E-06
(PID.TID 0000.0001) %MON vort_p_mean                  =  -1.5039772189398E-04
(PID.TID 0000.0001) %MON vort_p_sd                    =   8.7079320143873E-05
(PID.TID 0000.0001) %MON surfExpan_theta_mean         =  -2.9404587085312E-13
(PID.TID 0000.0001) %MON surfExpan_salt_mean          =  -9.7462124556365E-14
(PID.TID 0000.0001) // =======================================================
(PID.TID 0000.0001) // End MONITOR dynamic field statistics
(PID.TID 0000.0001) // =======================================================
 cg2d: Sum(rhs),rhsMax =  -2.22044604925031E-15  1.41906710648888E-04
(PID.TID 0000.0001)                    cg2d_init_res =    2.35739299571668E+00
(PID.TID 0000.0001)                       cg2d_iters =   202
(PID.TID 0000.0001)                         cg2d_res =    9.56940957008621E-14
(PID.TID 0000.0001) // =======================================================
(PID.TID 0000.0001) // Begin MONITOR dynamic field statistics
(PID.TID 0000.0001) // =======================================================
(PID.TID 0000.0001) %MON time_tsnumber                =                    15
(PID.TID 0000.0001) %MON time_secondsf                =   2.7000000000000E+04
(PID.TID 0000.0001) %MON dynstat_eta_max              =   5.2247374647555E-05
(PID.TID 0000.0001) %MON dynstat_eta_min              =  -1.5223978492064E-05
(PID.TID 0000.0001) %MON dynstat_eta_mean             =   2.1294866569211E-21
(PID.TID 0000.0001) %MON dynstat_eta_sd               =   1.2192456091890E-05
(PID.TID 0000.0001) %MON dynstat_eta_del2             =   3.9084127712495E-06
(PID.TID 0000.0001) %MON dynstat_uvel_max             =   3.1966867084744E-05
(PID.TID 0000.0001) %MON dynstat_uvel_min             =  -2.0429463212307E-04
(PID.TID 0000.0001) %MON dynstat_uvel_mean            =   4.2781261724976E-09
(PID.TID 0000.0001) %MON dynstat_uvel_sd              =   1.4218120674827E-05
(PID.TID 0000.0001) %MON dynstat_uvel_del2            =   6.5399986563582E-07
(PID.TID 0000.0001) %MON dynstat_vvel_max             =   8.8017171305814E-05
(PID.TID 0000.0001) %MON dynstat_vvel_min             =  -1.7120066160717E-05
(PID.TID 0000.0001) %MON dynstat_vvel_mean            =  -1.4334797209205E-08
(PID.TID 0000.0001) %MON dynstat_vvel_sd              =   5.3159100487001E-06
(PID.TID 0000.0001) %MON dynstat_vvel_del2            =   2.7345006543687E-07
(PID.TID 0000.0001) %MON dynstat_wvel_max             =   9.5751562079209E-07
(PID.TID 0000.0001) %MON dynstat_wvel_min             =  -9.0557435835060E-07
(PID.TID 0000.0001) %MON dynstat_wvel_mean            =  -1.8617046282014E-11
(PID.TID 0000.0001) %MON dynstat_wvel_sd              =   3.1886435171411E-08
(PID.TID 0000.0001) %MON dynstat_wvel_del2            =   5.7268523919674E-09
(PID.TID 0000.0001) %MON dynstat_theta_max            =  -1.9000000000000E+00
(PID.TID 0000.0001) %MON dynstat_theta_min            =  -1.9124127827634E+00
(PID.TID 0000.0001) %MON dynstat_theta_mean           =  -1.9001878735147E+00
(PID.TID 0000.0001) %MON dynstat_theta_sd             =   9.0537357281759E-04
(PID.TID 0000.0001) %MON dynstat_theta_del2           =   1.2369251887909E-05
(PID.TID 0000.0001) %MON dynstat_salt_max             =   3.4400000000000E+01
(PID.TID 0000.0001) %MON dynstat_salt_min             =   3.4395925390811E+01
(PID.TID 0000.0001) %MON dynstat_salt_mean            =   3.4399932080289E+01
(PID.TID 0000.0001) %MON dynstat_salt_sd              =   3.1733549100318E-04
(PID.TID 0000.0001) %MON dynstat_salt_del2            =   4.2790189042269E-06
(PID.TID 0000.0001) %MON extforcing_qnet_max          =   0.0000000000000E+00
(PID.TID 0000.0001) %MON extforcing_qnet_min          =   0.0000000000000E+00
(PID.TID 0000.0001) %MON extforcing_qnet_mean         =   0.0000000000000E+00
(PID.TID 0000.0001) %MON extforcing_qnet_sd           =   0.0000000000000E+00
(PID.TID 0000.0001) %MON extforcing_qnet_del2         =   0.0000000000000E+00
(PID.TID 0000.0001) %MON extforcing_qsw_max           =   0.0000000000000E+00
(PID.TID 0000.0001) %MON extforcing_qsw_min           =   0.0000000000000E+00
(PID.TID 0000.0001) %MON extforcing_qsw_mean          =   0.0000000000000E+00
(PID.TID 0000.0001) %MON extforcing_qsw_sd            =   0.0000000000000E+00
(PID.TID 0000.0001) %MON extforcing_qsw_del2          =   0.0000000000000E+00
(PID.TID 0000.0001) %MON extforcing_empmr_max         =   0.0000000000000E+00
(PID.TID 0000.0001) %MON extforcing_empmr_min         =   0.0000000000000E+00
(PID.TID 0000.0001) %MON extforcing_empmr_mean        =   0.0000000000000E+00
(PID.TID 0000.0001) %MON extforcing_empmr_sd          =   0.0000000000000E+00
(PID.TID 0000.0001) %MON extforcing_empmr_del2        =   0.0000000000000E+00
(PID.TID 0000.0001) %MON advcfl_uvel_max              =   6.0786651906571E-05
(PID.TID 0000.0001) %MON advcfl_vvel_max              =   1.4250270632505E-05
(PID.TID 0000.0001) %MON advcfl_wvel_max              =   5.7450937247525E-05
(PID.TID 0000.0001) %MON advcfl_W_hf_max              =   6.4856684523119E-05
(PID.TID 0000.0001) %MON pe_b_mean                    =  -1.0685184503042E-08
(PID.TID 0000.0001) %MON ke_max                       =   2.2764414677124E-08
(PID.TID 0000.0001) %MON ke_mean                      =   1.1297811795952E-10
(PID.TID 0000.0001) %MON ke_vol                       =   2.9241705273104E+14
(PID.TID 0000.0001) %MON vort_r_min                   =  -1.4699196217414E-08
(PID.TID 0000.0001) %MON vort_r_max                   =   1.4709732597523E-08
(PID.TID 0000.0001) %MON vort_a_mean                  =  -1.4007437274193E-04
(PID.TID 0000.0001) %MON vort_a_sd                    =   1.7682758691521E-06
(PID.TID 0000.0001) %MON vort_p_mean                  =  -1.5039772190958E-04
(PID.TID 0000.0001) %MON vort_p_sd                    =   8.7079103475490E-05
(PID.TID 0000.0001) %MON surfExpan_theta_mean         =  -2.4412179198485E-13
(PID.TID 0000.0001) %MON surfExpan_salt_mean          =  -8.0938992047802E-14
(PID.TID 0000.0001) // =======================================================
(PID.TID 0000.0001) // End MONITOR dynamic field statistics
(PID.TID 0000.0001) // =======================================================
 cg2d: Sum(rhs),rhsMax =   5.01820807130571E-14  1.51626706354506E-04
(PID.TID 0000.0001)                    cg2d_init_res =    2.20283335435479E+00
(PID.TID 0000.0001)                       cg2d_iters =   202
(PID.TID 0000.0001)                         cg2d_res =    9.38913590822148E-14
(PID.TID 0000.0001) // =======================================================
(PID.TID 0000.0001) // Begin MONITOR dynamic field statistics
(PID.TID 0000.0001) // =======================================================
(PID.TID 0000.0001) %MON time_tsnumber                =                    16
(PID.TID 0000.0001) %MON time_secondsf                =   2.8800000000000E+04
(PID.TID 0000.0001) %MON dynstat_eta_max              =   5.4477693980864E-05
(PID.TID 0000.0001) %MON dynstat_eta_min              =  -1.6902850411783E-05
(PID.TID 0000.0001) %MON dynstat_eta_mean             =   7.4532032992238E-21
(PID.TID 0000.0001) %MON dynstat_eta_sd               =   1.2688817945753E-05
(PID.TID 0000.0001) %MON dynstat_eta_del2             =   4.1721095952031E-06
(PID.TID 0000.0001) %MON dynstat_uvel_max             =   3.4865443743559E-05
(PID.TID 0000.0001) %MON dynstat_uvel_min             =  -2.2283298744417E-04
(PID.TID 0000.0001) %MON dynstat_uvel_mean            =   1.0643444480272E-08
(PID.TID 0000.0001) %MON dynstat_uvel_sd              =   1.5547761164644E-05
(PID.TID 0000.0001) %MON dynstat_uvel_del2            =   7.0309321486091E-07
(PID.TID 0000.0001) %MON dynstat_vvel_max             =   8.1508803632343E-05
(PID.TID 0000.0001) %MON dynstat_vvel_min             =  -1.6489331674431E-05
(PID.TID 0000.0001) %MON dynstat_vvel_mean            =  -1.1060840337640E-08
(PID.TID 0000.0001) %MON dynstat_vvel_sd              =   4.7517700127865E-06
(PID.TID 0000.0001) %MON dynstat_vvel_del2            =   2.5074962507846E-07
(PID.TID 0000.0001) %MON dynstat_wvel_max             =   1.0344409010079E-06
(PID.TID 0000.0001) %MON dynstat_wvel_min             =  -9.7486309273436E-07
(PID.TID 0000.0001) %MON dynstat_wvel_mean            =  -1.8491229582332E-11
(PID.TID 0000.0001) %MON dynstat_wvel_sd              =   3.3972890639549E-08
(PID.TID 0000.0001) %MON dynstat_wvel_del2            =   5.4781600420252E-09
(PID.TID 0000.0001) %MON dynstat_theta_max            =  -1.9000000000000E+00
(PID.TID 0000.0001) %MON dynstat_theta_min            =  -1.9132276038154E+00
(PID.TID 0000.0001) %MON dynstat_theta_mean           =  -1.9002002677759E+00
(PID.TID 0000.0001) %MON dynstat_theta_sd             =   9.6485634366134E-04
(PID.TID 0000.0001) %MON dynstat_theta_del2           =   1.3173450295698E-05
(PID.TID 0000.0001) %MON dynstat_salt_max             =   3.4400000000000E+01
(PID.TID 0000.0001) %MON dynstat_salt_min             =   3.4395657352835E+01
(PID.TID 0000.0001) %MON dynstat_salt_mean            =   3.4399927595167E+01
(PID.TID 0000.0001) %MON dynstat_salt_sd              =   3.3821761485842E-04
(PID.TID 0000.0001) %MON dynstat_salt_del2            =   4.5577072191487E-06
(PID.TID 0000.0001) %MON extforcing_qnet_max          =   0.0000000000000E+00
(PID.TID 0000.0001) %MON extforcing_qnet_min          =   0.0000000000000E+00
(PID.TID 0000.0001) %MON extforcing_qnet_mean         =   0.0000000000000E+00
(PID.TID 0000.0001) %MON extforcing_qnet_sd           =   0.0000000000000E+00
(PID.TID 0000.0001) %MON extforcing_qnet_del2         =   0.0000000000000E+00
(PID.TID 0000.0001) %MON extforcing_qsw_max           =   0.0000000000000E+00
(PID.TID 0000.0001) %MON extforcing_qsw_min           =   0.0000000000000E+00
(PID.TID 0000.0001) %MON extforcing_qsw_mean          =   0.0000000000000E+00
(PID.TID 0000.0001) %MON extforcing_qsw_sd            =   0.0000000000000E+00
(PID.TID 0000.0001) %MON extforcing_qsw_del2          =   0.0000000000000E+00
(PID.TID 0000.0001) %MON extforcing_empmr_max         =   0.0000000000000E+00
(PID.TID 0000.0001) %MON extforcing_empmr_min         =   0.0000000000000E+00
(PID.TID 0000.0001) %MON extforcing_empmr_mean        =   0.0000000000000E+00
(PID.TID 0000.0001) %MON extforcing_empmr_sd          =   0.0000000000000E+00
(PID.TID 0000.0001) %MON extforcing_empmr_del2        =   0.0000000000000E+00
(PID.TID 0000.0001) %MON advcfl_uvel_max              =   6.6302629199333E-05
(PID.TID 0000.0001) %MON advcfl_vvel_max              =   1.3196544418099E-05
(PID.TID 0000.0001) %MON advcfl_wvel_max              =   6.2066454060475E-05
(PID.TID 0000.0001) %MON advcfl_W_hf_max              =   6.9129017555139E-05
(PID.TID 0000.0001) %MON pe_b_mean                    =  -1.0906460331960E-08
(PID.TID 0000.0001) %MON ke_max                       =   2.6340213020594E-08
(PID.TID 0000.0001) %MON ke_mean                      =   1.2955682851507E-10
(PID.TID 0000.0001) %MON ke_vol                       =   2.9241705273104E+14
(PID.TID 0000.0001) %MON vort_r_min                   =  -1.3452840082086E-08
(PID.TID 0000.0001) %MON vort_r_max                   =   1.3438697038785E-08
(PID.TID 0000.0001) %MON vort_a_mean                  =  -1.4007437275690E-04
(PID.TID 0000.0001) %MON vort_a_sd                    =   1.7682756851303E-06
(PID.TID 0000.0001) %MON vort_p_mean                  =  -1.5039772192565E-04
(PID.TID 0000.0001) %MON vort_p_sd                    =   8.7078907656620E-05
(PID.TID 0000.0001) %MON surfExpan_theta_mean         =  -2.5982865073636E-13
(PID.TID 0000.0001) %MON surfExpan_salt_mean          =  -8.5982284321172E-14
(PID.TID 0000.0001) // =======================================================
(PID.TID 0000.0001) // End MONITOR dynamic field statistics
(PID.TID 0000.0001) // =======================================================
 cg2d: Sum(rhs),rhsMax =   2.66453525910038E-14  1.61339866072197E-04
(PID.TID 0000.0001)                    cg2d_init_res =    2.06709582838696E+00
(PID.TID 0000.0001)                       cg2d_iters =   202
(PID.TID 0000.0001)                         cg2d_res =    8.14251788515754E-14
(PID.TID 0000.0001) // =======================================================
(PID.TID 0000.0001) // Begin MONITOR dynamic field statistics
(PID.TID 0000.0001) // =======================================================
(PID.TID 0000.0001) %MON time_tsnumber                =                    17
(PID.TID 0000.0001) %MON time_secondsf                =   3.0600000000000E+04
(PID.TID 0000.0001) %MON dynstat_eta_max              =   5.6707056579896E-05
(PID.TID 0000.0001) %MON dynstat_eta_min              =  -1.8393442762476E-05
(PID.TID 0000.0001) %MON dynstat_eta_mean             =   1.2776919941526E-20
(PID.TID 0000.0001) %MON dynstat_eta_sd               =   1.3228341392111E-05
(PID.TID 0000.0001) %MON dynstat_eta_del2             =   4.4353588808086E-06
(PID.TID 0000.0001) %MON dynstat_uvel_max             =   3.7340606141825E-05
(PID.TID 0000.0001) %MON dynstat_uvel_min             =  -2.3888578507026E-04
(PID.TID 0000.0001) %MON dynstat_uvel_mean            =   1.6492890173350E-08
(PID.TID 0000.0001) %MON dynstat_uvel_sd              =   1.6708004880741E-05
(PID.TID 0000.0001) %MON dynstat_uvel_del2            =   7.4172574837088E-07
(PID.TID 0000.0001) %MON dynstat_vvel_max             =   7.3568158355099E-05
(PID.TID 0000.0001) %MON dynstat_vvel_min             =  -1.5522437515784E-05
(PID.TID 0000.0001) %MON dynstat_vvel_mean            =  -2.4352617930972E-08
(PID.TID 0000.0001) %MON dynstat_vvel_sd              =   4.0882997297545E-06
(PID.TID 0000.0001) %MON dynstat_vvel_del2            =   2.2417738960398E-07
(PID.TID 0000.0001) %MON dynstat_wvel_max             =   1.1010671992792E-06
(PID.TID 0000.0001) %MON dynstat_wvel_min             =  -1.0401710131243E-06
(PID.TID 0000.0001) %MON dynstat_wvel_mean            =  -2.4321817915675E-11
(PID.TID 0000.0001) %MON dynstat_wvel_sd              =   3.5828384153464E-08
(PID.TID 0000.0001) %MON dynstat_wvel_del2            =   5.1536503643409E-09
(PID.TID 0000.0001) %MON dynstat_theta_max            =  -1.9000000000000E+00
(PID.TID 0000.0001) %MON dynstat_theta_min            =  -1.9140408784087E+00
(PID.TID 0000.0001) %MON dynstat_theta_mean           =  -1.9002126459833E+00
(PID.TID 0000.0001) %MON dynstat_theta_sd             =   1.0242319278542E-03
(PID.TID 0000.0001) %MON dynstat_theta_del2           =   1.3975161015196E-05
(PID.TID 0000.0001) %MON dynstat_salt_max             =   3.4400000000000E+01
(PID.TID 0000.0001) %MON dynstat_salt_min             =   3.4395389754371E+01
(PID.TID 0000.0001) %MON dynstat_salt_mean            =   3.4399923115320E+01
(PID.TID 0000.0001) %MON dynstat_salt_sd              =   3.5906617708682E-04
(PID.TID 0000.0001) %MON dynstat_salt_del2            =   4.8355926049104E-06
(PID.TID 0000.0001) %MON extforcing_qnet_max          =   0.0000000000000E+00
(PID.TID 0000.0001) %MON extforcing_qnet_min          =   0.0000000000000E+00
(PID.TID 0000.0001) %MON extforcing_qnet_mean         =   0.0000000000000E+00
(PID.TID 0000.0001) %MON extforcing_qnet_sd           =   0.0000000000000E+00
(PID.TID 0000.0001) %MON extforcing_qnet_del2         =   0.0000000000000E+00
(PID.TID 0000.0001) %MON extforcing_qsw_max           =   0.0000000000000E+00
(PID.TID 0000.0001) %MON extforcing_qsw_min           =   0.0000000000000E+00
(PID.TID 0000.0001) %MON extforcing_qsw_mean          =   0.0000000000000E+00
(PID.TID 0000.0001) %MON extforcing_qsw_sd            =   0.0000000000000E+00
(PID.TID 0000.0001) %MON extforcing_qsw_del2          =   0.0000000000000E+00
(PID.TID 0000.0001) %MON extforcing_empmr_max         =   0.0000000000000E+00
(PID.TID 0000.0001) %MON extforcing_empmr_min         =   0.0000000000000E+00
(PID.TID 0000.0001) %MON extforcing_empmr_mean        =   0.0000000000000E+00
(PID.TID 0000.0001) %MON extforcing_empmr_sd          =   0.0000000000000E+00
(PID.TID 0000.0001) %MON extforcing_empmr_del2        =   0.0000000000000E+00
(PID.TID 0000.0001) %MON advcfl_uvel_max              =   7.1079043593012E-05
(PID.TID 0000.0001) %MON advcfl_vvel_max              =   1.1910927730824E-05
(PID.TID 0000.0001) %MON advcfl_wvel_max              =   6.6064031956752E-05
(PID.TID 0000.0001) %MON advcfl_W_hf_max              =   7.2694147783481E-05
(PID.TID 0000.0001) %MON pe_b_mean                    =  -1.1181586241307E-08
(PID.TID 0000.0001) %MON ke_max                       =   2.9652217447600E-08
(PID.TID 0000.0001) %MON ke_mean                      =   1.4498945075586E-10
(PID.TID 0000.0001) %MON ke_vol                       =   2.9241705273104E+14
(PID.TID 0000.0001) %MON vort_r_min                   =  -1.1986198562726E-08
(PID.TID 0000.0001) %MON vort_r_max                   =   1.1939711108941E-08
(PID.TID 0000.0001) %MON vort_a_mean                  =  -1.4007437276994E-04
(PID.TID 0000.0001) %MON vort_a_sd                    =   1.7682755280073E-06
(PID.TID 0000.0001) %MON vort_p_mean                  =  -1.5039772193965E-04
(PID.TID 0000.0001) %MON vort_p_sd                    =   8.7078737521144E-05
(PID.TID 0000.0001) %MON surfExpan_theta_mean         =  -3.5556188794607E-13
(PID.TID 0000.0001) %MON surfExpan_salt_mean          =  -1.1732276574128E-13
(PID.TID 0000.0001) // =======================================================
(PID.TID 0000.0001) // End MONITOR dynamic field statistics
(PID.TID 0000.0001) // =======================================================
 cg2d: Sum(rhs),rhsMax =  -2.66453525910038E-14  1.71036665108183E-04
(PID.TID 0000.0001)                    cg2d_init_res =    1.94706640066655E+00
(PID.TID 0000.0001)                       cg2d_iters =   201
(PID.TID 0000.0001)                         cg2d_res =    9.13955426719805E-14
(PID.TID 0000.0001) // =======================================================
(PID.TID 0000.0001) // Begin MONITOR dynamic field statistics
(PID.TID 0000.0001) // =======================================================
(PID.TID 0000.0001) %MON time_tsnumber                =                    18
(PID.TID 0000.0001) %MON time_secondsf                =   3.2400000000000E+04
(PID.TID 0000.0001) %MON dynstat_eta_max              =   5.9052987006523E-05
(PID.TID 0000.0001) %MON dynstat_eta_min              =  -1.9625598946507E-05
(PID.TID 0000.0001) %MON dynstat_eta_mean             =  -1.4374034934217E-20
(PID.TID 0000.0001) %MON dynstat_eta_sd               =   1.3840858580075E-05
(PID.TID 0000.0001) %MON dynstat_eta_del2             =   4.6981810249880E-06
(PID.TID 0000.0001) %MON dynstat_uvel_max             =   3.9347675333375E-05
(PID.TID 0000.0001) %MON dynstat_uvel_min             =  -2.5220211620613E-04
(PID.TID 0000.0001) %MON dynstat_uvel_mean            =   2.1159741883714E-08
(PID.TID 0000.0001) %MON dynstat_uvel_sd              =   1.7677741200515E-05
(PID.TID 0000.0001) %MON dynstat_uvel_del2            =   7.7006244368627E-07
(PID.TID 0000.0001) %MON dynstat_vvel_max             =   6.4809882682557E-05
(PID.TID 0000.0001) %MON dynstat_vvel_min             =  -1.4296554190804E-05
(PID.TID 0000.0001) %MON dynstat_vvel_mean            =  -5.1870199153135E-08
(PID.TID 0000.0001) %MON dynstat_vvel_sd              =   3.3725693396175E-06
(PID.TID 0000.0001) %MON dynstat_vvel_del2            =   1.9579457032349E-07
(PID.TID 0000.0001) %MON dynstat_wvel_max             =   1.1569107859033E-06
(PID.TID 0000.0001) %MON dynstat_wvel_min             =  -1.1084999377325E-06
(PID.TID 0000.0001) %MON dynstat_wvel_mean            =  -3.5402179808345E-11
(PID.TID 0000.0001) %MON dynstat_wvel_sd              =   3.7435460518200E-08
(PID.TID 0000.0001) %MON dynstat_wvel_del2            =   4.7845665429199E-09
(PID.TID 0000.0001) %MON dynstat_theta_max            =  -1.9000000000000E+00
(PID.TID 0000.0001) %MON dynstat_theta_min            =  -1.9148526116034E+00
(PID.TID 0000.0001) %MON dynstat_theta_mean           =  -1.9002250081704E+00
(PID.TID 0000.0001) %MON dynstat_theta_sd             =   1.0835006160707E-03
(PID.TID 0000.0001) %MON dynstat_theta_del2           =   1.4774392853263E-05
(PID.TID 0000.0001) %MON dynstat_salt_max             =   3.4400000000000E+01
(PID.TID 0000.0001) %MON dynstat_salt_min             =   3.4395122594134E+01
(PID.TID 0000.0001) %MON dynstat_salt_mean            =   3.4399918640740E+01
(PID.TID 0000.0001) %MON dynstat_salt_sd              =   3.7988125720350E-04
(PID.TID 0000.0001) %MON dynstat_salt_del2            =   5.1126776783092E-06
(PID.TID 0000.0001) %MON extforcing_qnet_max          =   0.0000000000000E+00
(PID.TID 0000.0001) %MON extforcing_qnet_min          =   0.0000000000000E+00
(PID.TID 0000.0001) %MON extforcing_qnet_mean         =   0.0000000000000E+00
(PID.TID 0000.0001) %MON extforcing_qnet_sd           =   0.0000000000000E+00
(PID.TID 0000.0001) %MON extforcing_qnet_del2         =   0.0000000000000E+00
(PID.TID 0000.0001) %MON extforcing_qsw_max           =   0.0000000000000E+00
(PID.TID 0000.0001) %MON extforcing_qsw_min           =   0.0000000000000E+00
(PID.TID 0000.0001) %MON extforcing_qsw_mean          =   0.0000000000000E+00
(PID.TID 0000.0001) %MON extforcing_qsw_sd            =   0.0000000000000E+00
(PID.TID 0000.0001) %MON extforcing_qsw_del2          =   0.0000000000000E+00
(PID.TID 0000.0001) %MON extforcing_empmr_max         =   0.0000000000000E+00
(PID.TID 0000.0001) %MON extforcing_empmr_min         =   0.0000000000000E+00
(PID.TID 0000.0001) %MON extforcing_empmr_mean        =   0.0000000000000E+00
(PID.TID 0000.0001) %MON extforcing_empmr_sd          =   0.0000000000000E+00
(PID.TID 0000.0001) %MON extforcing_empmr_del2        =   0.0000000000000E+00
(PID.TID 0000.0001) %MON advcfl_uvel_max              =   7.5041238668900E-05
(PID.TID 0000.0001) %MON advcfl_vvel_max              =   1.0492933983057E-05
(PID.TID 0000.0001) %MON advcfl_wvel_max              =   6.9414647154199E-05
(PID.TID 0000.0001) %MON advcfl_W_hf_max              =   7.5571886651246E-05
(PID.TID 0000.0001) %MON pe_b_mean                    =  -1.1563935758642E-08
(PID.TID 0000.0001) %MON ke_max                       =   3.2563946326794E-08
(PID.TID 0000.0001) %MON ke_mean                      =   1.5868427952637E-10
(PID.TID 0000.0001) %MON ke_vol                       =   2.9241705273104E+14
(PID.TID 0000.0001) %MON vort_r_min                   =  -1.0408925290609E-08
(PID.TID 0000.0001) %MON vort_r_max                   =   1.2220517729032E-08
(PID.TID 0000.0001) %MON vort_a_mean                  =  -1.4007437277911E-04
(PID.TID 0000.0001) %MON vort_a_sd                    =   1.7682754061865E-06
(PID.TID 0000.0001) %MON vort_p_mean                  =  -1.5039772194950E-04
(PID.TID 0000.0001) %MON vort_p_sd                    =   8.7078596230888E-05
(PID.TID 0000.0001) %MON surfExpan_theta_mean         =  -5.3523117450009E-13
(PID.TID 0000.0001) %MON surfExpan_salt_mean          =  -1.7624155690137E-13
(PID.TID 0000.0001) // =======================================================
(PID.TID 0000.0001) // End MONITOR dynamic field statistics
(PID.TID 0000.0001) // =======================================================
 cg2d: Sum(rhs),rhsMax =  -8.88178419700125E-16  1.80704588819171E-04
(PID.TID 0000.0001)                    cg2d_init_res =    1.84030561190638E+00
(PID.TID 0000.0001)                       cg2d_iters =   201
(PID.TID 0000.0001)                         cg2d_res =    8.37799801728972E-14
(PID.TID 0000.0001) // =======================================================
(PID.TID 0000.0001) // Begin MONITOR dynamic field statistics
(PID.TID 0000.0001) // =======================================================
(PID.TID 0000.0001) %MON time_tsnumber                =                    19
(PID.TID 0000.0001) %MON time_secondsf                =   3.4200000000000E+04
(PID.TID 0000.0001) %MON dynstat_eta_max              =   6.1618468981464E-05
(PID.TID 0000.0001) %MON dynstat_eta_min              =  -2.0587878828524E-05
(PID.TID 0000.0001) %MON dynstat_eta_mean             =  -4.2589733138421E-21
(PID.TID 0000.0001) %MON dynstat_eta_sd               =   1.4546882628607E-05
(PID.TID 0000.0001) %MON dynstat_eta_del2             =   4.9605968874580E-06
(PID.TID 0000.0001) %MON dynstat_uvel_max             =   4.0872704943176E-05
(PID.TID 0000.0001) %MON dynstat_uvel_min             =  -2.6271516898534E-04
(PID.TID 0000.0001) %MON dynstat_uvel_mean            =   2.4177512710195E-08
(PID.TID 0000.0001) %MON dynstat_uvel_sd              =   1.8448522156754E-05
(PID.TID 0000.0001) %MON dynstat_uvel_del2            =   7.8833098660136E-07
(PID.TID 0000.0001) %MON dynstat_vvel_max             =   5.5890507353180E-05
(PID.TID 0000.0001) %MON dynstat_vvel_min             =  -1.2901377856678E-05
(PID.TID 0000.0001) %MON dynstat_vvel_mean            =  -8.9693025581638E-08
(PID.TID 0000.0001) %MON dynstat_vvel_sd              =   2.6562988816015E-06
(PID.TID 0000.0001) %MON dynstat_vvel_del2            =   1.6751631447200E-07
(PID.TID 0000.0001) %MON dynstat_wvel_max             =   1.2072310286212E-06
(PID.TID 0000.0001) %MON dynstat_wvel_min             =  -1.1665834370653E-06
(PID.TID 0000.0001) %MON dynstat_wvel_mean            =  -5.0373195856527E-11
(PID.TID 0000.0001) %MON dynstat_wvel_sd              =   3.8785622670409E-08
(PID.TID 0000.0001) %MON dynstat_wvel_del2            =   4.4025548458250E-09
(PID.TID 0000.0001) %MON dynstat_theta_max            =  -1.9000000000000E+00
(PID.TID 0000.0001) %MON dynstat_theta_min            =  -1.9156628080861E+00
(PID.TID 0000.0001) %MON dynstat_theta_mean           =  -1.9002373543702E+00
(PID.TID 0000.0001) %MON dynstat_theta_sd             =   1.1426626978577E-03
(PID.TID 0000.0001) %MON dynstat_theta_del2           =   1.5571154840123E-05
(PID.TID 0000.0001) %MON dynstat_salt_max             =   3.4400000000000E+01
(PID.TID 0000.0001) %MON dynstat_salt_min             =   3.4394855870958E+01
(PID.TID 0000.0001) %MON dynstat_salt_mean            =   3.4399914171415E+01
(PID.TID 0000.0001) %MON dynstat_salt_sd              =   4.0066293445068E-04
(PID.TID 0000.0001) %MON dynstat_salt_del2            =   5.3889652027079E-06
(PID.TID 0000.0001) %MON extforcing_qnet_max          =   0.0000000000000E+00
(PID.TID 0000.0001) %MON extforcing_qnet_min          =   0.0000000000000E+00
(PID.TID 0000.0001) %MON extforcing_qnet_mean         =   0.0000000000000E+00
(PID.TID 0000.0001) %MON extforcing_qnet_sd           =   0.0000000000000E+00
(PID.TID 0000.0001) %MON extforcing_qnet_del2         =   0.0000000000000E+00
(PID.TID 0000.0001) %MON extforcing_qsw_max           =   0.0000000000000E+00
(PID.TID 0000.0001) %MON extforcing_qsw_min           =   0.0000000000000E+00
(PID.TID 0000.0001) %MON extforcing_qsw_mean          =   0.0000000000000E+00
(PID.TID 0000.0001) %MON extforcing_qsw_sd            =   0.0000000000000E+00
(PID.TID 0000.0001) %MON extforcing_qsw_del2          =   0.0000000000000E+00
(PID.TID 0000.0001) %MON extforcing_empmr_max         =   0.0000000000000E+00
(PID.TID 0000.0001) %MON extforcing_empmr_min         =   0.0000000000000E+00
(PID.TID 0000.0001) %MON extforcing_empmr_mean        =   0.0000000000000E+00
(PID.TID 0000.0001) %MON extforcing_empmr_sd          =   0.0000000000000E+00
(PID.TID 0000.0001) %MON extforcing_empmr_del2        =   0.0000000000000E+00
(PID.TID 0000.0001) %MON advcfl_uvel_max              =   7.8169334953782E-05
(PID.TID 0000.0001) %MON advcfl_vvel_max              =   9.0488576689604E-06
(PID.TID 0000.0001) %MON advcfl_wvel_max              =   7.2433861717273E-05
(PID.TID 0000.0001) %MON advcfl_W_hf_max              =   7.7827104035469E-05
(PID.TID 0000.0001) %MON pe_b_mean                    =  -1.2092814320983E-08
(PID.TID 0000.0001) %MON ke_max                       =   3.4980309321771E-08
(PID.TID 0000.0001) %MON ke_mean                      =   1.7019181087067E-10
(PID.TID 0000.0001) %MON ke_vol                       =   2.9241705273104E+14
(PID.TID 0000.0001) %MON vort_r_min                   =  -8.8353559481415E-09
(PID.TID 0000.0001) %MON vort_r_max                   =   1.2717972572015E-08
(PID.TID 0000.0001) %MON vort_a_mean                  =  -1.4007437278306E-04
(PID.TID 0000.0001) %MON vort_a_sd                    =   1.7682753263395E-06
(PID.TID 0000.0001) %MON vort_p_mean                  =  -1.5039772195374E-04
(PID.TID 0000.0001) %MON vort_p_sd                    =   8.7078485089457E-05
(PID.TID 0000.0001) %MON surfExpan_theta_mean         =  -7.9066081664691E-13
(PID.TID 0000.0001) %MON surfExpan_salt_mean          =  -2.6005241063064E-13
(PID.TID 0000.0001) // =======================================================
(PID.TID 0000.0001) // End MONITOR dynamic field statistics
(PID.TID 0000.0001) // =======================================================
 cg2d: Sum(rhs),rhsMax =   9.32587340685131E-15  1.90329348954474E-04
(PID.TID 0000.0001)                    cg2d_init_res =    1.74486324598477E+00
(PID.TID 0000.0001)                       cg2d_iters =   201
(PID.TID 0000.0001)                         cg2d_res =    7.67189976208425E-14
(PID.TID 0000.0001) // =======================================================
(PID.TID 0000.0001) // Begin MONITOR dynamic field statistics
(PID.TID 0000.0001) // =======================================================
(PID.TID 0000.0001) %MON time_tsnumber                =                    20
(PID.TID 0000.0001) %MON time_secondsf                =   3.6000000000000E+04
(PID.TID 0000.0001) %MON dynstat_eta_max              =   6.4480268242458E-05
(PID.TID 0000.0001) %MON dynstat_eta_min              =  -2.1351457522714E-05
(PID.TID 0000.0001) %MON dynstat_eta_mean             =   1.0647433284605E-20
(PID.TID 0000.0001) %MON dynstat_eta_sd               =   1.5357096512964E-05
(PID.TID 0000.0001) %MON dynstat_eta_del2             =   5.2226217082682E-06
(PID.TID 0000.0001) %MON dynstat_uvel_max             =   4.1933142484566E-05
(PID.TID 0000.0001) %MON dynstat_uvel_min             =  -2.7054178344154E-04
(PID.TID 0000.0001) %MON dynstat_uvel_mean            =   2.5302060921219E-08
(PID.TID 0000.0001) %MON dynstat_uvel_sd              =   1.9024982333409E-05
(PID.TID 0000.0001) %MON dynstat_uvel_del2            =   7.9769361879722E-07
(PID.TID 0000.0001) %MON dynstat_vvel_max             =   4.7464000032319E-05
(PID.TID 0000.0001) %MON dynstat_vvel_min             =  -1.1433388902119E-05
(PID.TID 0000.0001) %MON dynstat_vvel_mean            =  -1.3292379128993E-07
(PID.TID 0000.0001) %MON dynstat_vvel_sd              =   1.9937909019393E-06
(PID.TID 0000.0001) %MON dynstat_vvel_del2            =   1.4128002820318E-07
(PID.TID 0000.0001) %MON dynstat_wvel_max             =   1.2501173478798E-06
(PID.TID 0000.0001) %MON dynstat_wvel_min             =  -1.2145892405146E-06
(PID.TID 0000.0001) %MON dynstat_wvel_mean            =  -6.7416818402193E-11
(PID.TID 0000.0001) %MON dynstat_wvel_sd              =   3.9881830213340E-08
(PID.TID 0000.0001) %MON dynstat_wvel_del2            =   4.0391077888481E-09
(PID.TID 0000.0001) %MON dynstat_theta_max            =  -1.9000000000000E+00
(PID.TID 0000.0001) %MON dynstat_theta_min            =  -1.9164714721722E+00
(PID.TID 0000.0001) %MON dynstat_theta_mean           =  -1.9002496846161E+00
(PID.TID 0000.0001) %MON dynstat_theta_sd             =   1.2017184618834E-03
(PID.TID 0000.0001) %MON dynstat_theta_del2           =   1.6365455899011E-05
(PID.TID 0000.0001) %MON dynstat_salt_max             =   3.4400000000000E+01
(PID.TID 0000.0001) %MON dynstat_salt_min             =   3.4394589583798E+01
(PID.TID 0000.0001) %MON dynstat_salt_mean            =   3.4399909707338E+01
(PID.TID 0000.0001) %MON dynstat_salt_sd              =   4.2141128787711E-04
(PID.TID 0000.0001) %MON dynstat_salt_del2            =   5.6644577139852E-06
(PID.TID 0000.0001) %MON extforcing_qnet_max          =   0.0000000000000E+00
(PID.TID 0000.0001) %MON extforcing_qnet_min          =   0.0000000000000E+00
(PID.TID 0000.0001) %MON extforcing_qnet_mean         =   0.0000000000000E+00
(PID.TID 0000.0001) %MON extforcing_qnet_sd           =   0.0000000000000E+00
(PID.TID 0000.0001) %MON extforcing_qnet_del2         =   0.0000000000000E+00
(PID.TID 0000.0001) %MON extforcing_qsw_max           =   0.0000000000000E+00
(PID.TID 0000.0001) %MON extforcing_qsw_min           =   0.0000000000000E+00
(PID.TID 0000.0001) %MON extforcing_qsw_mean          =   0.0000000000000E+00
(PID.TID 0000.0001) %MON extforcing_qsw_sd            =   0.0000000000000E+00
(PID.TID 0000.0001) %MON extforcing_qsw_del2          =   0.0000000000000E+00
(PID.TID 0000.0001) %MON extforcing_empmr_max         =   0.0000000000000E+00
(PID.TID 0000.0001) %MON extforcing_empmr_min         =   0.0000000000000E+00
(PID.TID 0000.0001) %MON extforcing_empmr_mean        =   0.0000000000000E+00
(PID.TID 0000.0001) %MON extforcing_empmr_sd          =   0.0000000000000E+00
(PID.TID 0000.0001) %MON extforcing_empmr_del2        =   0.0000000000000E+00
(PID.TID 0000.0001) %MON advcfl_uvel_max              =   8.0498097504280E-05
(PID.TID 0000.0001) %MON advcfl_vvel_max              =   7.6845783126989E-06
(PID.TID 0000.0001) %MON advcfl_wvel_max              =   7.5007040872788E-05
(PID.TID 0000.0001) %MON advcfl_W_hf_max              =   7.9563799690250E-05
(PID.TID 0000.0001) %MON pe_b_mean                    =  -1.2789147606867E-08
(PID.TID 0000.0001) %MON ke_max                       =   3.6857969952800E-08
(PID.TID 0000.0001) %MON ke_mean                      =   1.7925490794921E-10
(PID.TID 0000.0001) %MON ke_vol                       =   2.9241705273104E+14
(PID.TID 0000.0001) %MON vort_r_min                   =  -8.1833276576575E-09
(PID.TID 0000.0001) %MON vort_r_max                   =   1.3149553521147E-08
(PID.TID 0000.0001) %MON vort_a_mean                  =  -1.4007437278112E-04
(PID.TID 0000.0001) %MON vort_a_sd                    =   1.7682752902561E-06
(PID.TID 0000.0001) %MON vort_p_mean                  =  -1.5039772195166E-04
(PID.TID 0000.0001) %MON vort_p_sd                    =   8.7078403473647E-05
(PID.TID 0000.0001) %MON surfExpan_theta_mean         =  -1.1020915538937E-12
(PID.TID 0000.0001) %MON surfExpan_salt_mean          =  -3.6227051506436E-13
(PID.TID 0000.0001) // =======================================================
(PID.TID 0000.0001) // End MONITOR dynamic field statistics
(PID.TID 0000.0001) // =======================================================
(PID.TID 0000.0001) %CHECKPOINT        20 ckptA
(PID.TID 0000.0001)   Seconds in section "ALL                    [THE_MODEL_MAIN]":
(PID.TID 0000.0001)           User time:  38.146202
(PID.TID 0000.0001)         System time:  1.06583797
(PID.TID 0000.0001)     Wall clock time:  49.440767
(PID.TID 0000.0001)          No. starts: 1
(PID.TID 0000.0001)           No. stops: 1
(PID.TID 0000.0001)   Seconds in section "INITIALISE_FIXED       [THE_MODEL_MAIN]":
(PID.TID 0000.0001)           User time:  1.43478205
(PID.TID 0000.0001)         System time:  0.120982001
(PID.TID 0000.0001)     Wall clock time:  1.57817912
(PID.TID 0000.0001)          No. starts: 1
(PID.TID 0000.0001)           No. stops: 1
(PID.TID 0000.0001)   Seconds in section "THE_MAIN_LOOP          [THE_MODEL_MAIN]":
(PID.TID 0000.0001)           User time:  36.7094172
(PID.TID 0000.0001)         System time:  0.940856025
(PID.TID 0000.0001)     Wall clock time:  47.4999509
(PID.TID 0000.0001)          No. starts: 1
(PID.TID 0000.0001)           No. stops: 1
(PID.TID 0000.0001)   Seconds in section "INITIALISE_VARIA    [THE_MAIN_LOOP]":
(PID.TID 0000.0001)           User time:  0.752885938
(PID.TID 0000.0001)         System time:  0.0809870064
(PID.TID 0000.0001)     Wall clock time:  0.849843979
(PID.TID 0000.0001)          No. starts: 1
(PID.TID 0000.0001)           No. stops: 1
(PID.TID 0000.0001)   Seconds in section "MAIN LOOP           [THE_MAIN_LOOP]":
(PID.TID 0000.0001)           User time:  35.9565313
(PID.TID 0000.0001)         System time:  0.859869018
(PID.TID 0000.0001)     Wall clock time:  46.6500111
(PID.TID 0000.0001)          No. starts: 1
(PID.TID 0000.0001)           No. stops: 1
(PID.TID 0000.0001)   Seconds in section "FORWARD_STEP        [THE_MAIN_LOOP]":
(PID.TID 0000.0001)           User time:  35.9565313
(PID.TID 0000.0001)         System time:  0.859869018
(PID.TID 0000.0001)     Wall clock time:  46.6493559
(PID.TID 0000.0001)          No. starts: 20
(PID.TID 0000.0001)           No. stops: 20
(PID.TID 0000.0001)   Seconds in section "LOAD_FIELDS_DRIVER  [FORWARD_STEP]":
(PID.TID 0000.0001)           User time:  0.000997543335
(PID.TID 0000.0001)         System time:  0.000999987125
(PID.TID 0000.0001)     Wall clock time:  0.00186753273
(PID.TID 0000.0001)          No. starts: 20
(PID.TID 0000.0001)           No. stops: 20
(PID.TID 0000.0001)   Seconds in section "EXTERNAL_FLDS_LOAD [LOAD_FLDS_DRIVER]":
(PID.TID 0000.0001)           User time:  0.
(PID.TID 0000.0001)         System time:  0.000999987125
(PID.TID 0000.0001)     Wall clock time:  0.000626802444
(PID.TID 0000.0001)          No. starts: 20
(PID.TID 0000.0001)           No. stops: 20
(PID.TID 0000.0001)   Seconds in section "DO_ATMOSPHERIC_PHYS [FORWARD_STEP]":
(PID.TID 0000.0001)           User time:  0.00199890137
(PID.TID 0000.0001)         System time:  0.
(PID.TID 0000.0001)     Wall clock time:  0.000630140305
(PID.TID 0000.0001)          No. starts: 20
(PID.TID 0000.0001)           No. stops: 20
(PID.TID 0000.0001)   Seconds in section "DO_OCEANIC_PHYS     [FORWARD_STEP]":
(PID.TID 0000.0001)           User time:  0.298953056
(PID.TID 0000.0001)         System time:  0.00499899685
(PID.TID 0000.0001)     Wall clock time:  0.303752422
(PID.TID 0000.0001)          No. starts: 20
(PID.TID 0000.0001)           No. stops: 20
(PID.TID 0000.0001)   Seconds in section "SHELFICE_THERMODYNAMICS [DO_OCEANIC_PHYS]":
(PID.TID 0000.0001)           User time:  0.130982399
(PID.TID 0000.0001)         System time:  0.
(PID.TID 0000.0001)     Wall clock time:  0.133110046
(PID.TID 0000.0001)          No. starts: 20
(PID.TID 0000.0001)           No. stops: 20
(PID.TID 0000.0001)   Seconds in section "THERMODYNAMICS      [FORWARD_STEP]":
(PID.TID 0000.0001)           User time:  5.22320056
(PID.TID 0000.0001)         System time:  0.00199998915
(PID.TID 0000.0001)     Wall clock time:  5.22994328
(PID.TID 0000.0001)          No. starts: 20
(PID.TID 0000.0001)           No. stops: 20
(PID.TID 0000.0001)   Seconds in section "DYNAMICS            [FORWARD_STEP]":
(PID.TID 0000.0001)           User time:  14.5717878
(PID.TID 0000.0001)         System time:  0.174973994
(PID.TID 0000.0001)     Wall clock time:  14.7610373
(PID.TID 0000.0001)          No. starts: 20
(PID.TID 0000.0001)           No. stops: 20
(PID.TID 0000.0001)   Seconds in section "SOLVE_FOR_PRESSURE  [FORWARD_STEP]":
(PID.TID 0000.0001)           User time:  5.9391017
(PID.TID 0000.0001)         System time:  0.0459920168
(PID.TID 0000.0001)     Wall clock time:  5.98823023
(PID.TID 0000.0001)          No. starts: 20
(PID.TID 0000.0001)           No. stops: 20
(PID.TID 0000.0001)   Seconds in section "MOM_CORRECTION_STEP [FORWARD_STEP]":
(PID.TID 0000.0001)           User time:  1.01084065
(PID.TID 0000.0001)         System time:  0.
(PID.TID 0000.0001)     Wall clock time:  1.01510286
(PID.TID 0000.0001)          No. starts: 20
(PID.TID 0000.0001)           No. stops: 20
(PID.TID 0000.0001)   Seconds in section "UPDATE_ETAH         [FORWARD_STEP]":
(PID.TID 0000.0001)           User time:  0.0110023022
(PID.TID 0000.0001)         System time:  0.
(PID.TID 0000.0001)     Wall clock time:  0.00475287437
(PID.TID 0000.0001)          No. starts: 20
(PID.TID 0000.0001)           No. stops: 20
(PID.TID 0000.0001)   Seconds in section "TRC_CORRECTION_STEP [FORWARD_STEP]":
(PID.TID 0000.0001)           User time:  3.6214478
(PID.TID 0000.0001)         System time:  0.0029990077
(PID.TID 0000.0001)     Wall clock time:  3.62726068
(PID.TID 0000.0001)          No. starts: 20
(PID.TID 0000.0001)           No. stops: 20
(PID.TID 0000.0001)   Seconds in section "BLOCKING_EXCHANGES  [FORWARD_STEP]":
(PID.TID 0000.0001)           User time:  0.344952345
(PID.TID 0000.0001)         System time:  0.
(PID.TID 0000.0001)     Wall clock time:  0.349317312
(PID.TID 0000.0001)          No. starts: 20
(PID.TID 0000.0001)           No. stops: 20
(PID.TID 0000.0001)   Seconds in section "DO_STATEVARS_TAVE   [FORWARD_STEP]":
(PID.TID 0000.0001)           User time:  0.000999450684
(PID.TID 0000.0001)         System time:  0.
(PID.TID 0000.0001)     Wall clock time:  0.000639438629
(PID.TID 0000.0001)          No. starts: 20
(PID.TID 0000.0001)           No. stops: 20
(PID.TID 0000.0001)   Seconds in section "MONITOR             [FORWARD_STEP]":
(PID.TID 0000.0001)           User time:  4.24835348
(PID.TID 0000.0001)         System time:  0.00400000811
(PID.TID 0000.0001)     Wall clock time:  4.2575264
(PID.TID 0000.0001)          No. starts: 20
(PID.TID 0000.0001)           No. stops: 20
(PID.TID 0000.0001)   Seconds in section "DO_THE_MODEL_IO     [FORWARD_STEP]":
(PID.TID 0000.0001)           User time:  0.246963501
(PID.TID 0000.0001)         System time:  0.0139980018
(PID.TID 0000.0001)     Wall clock time:  0.289093971
(PID.TID 0000.0001)          No. starts: 20
(PID.TID 0000.0001)           No. stops: 20
(PID.TID 0000.0001)   Seconds in section "DO_WRITE_PICKUP     [FORWARD_STEP]":
(PID.TID 0000.0001)           User time:  0.421932697
(PID.TID 0000.0001)         System time:  0.608907014
(PID.TID 0000.0001)     Wall clock time:  10.8104911
(PID.TID 0000.0001)          No. starts: 20
(PID.TID 0000.0001)           No. stops: 20
(PID.TID 0000.0001) // ======================================================
(PID.TID 0000.0001) // Tile <-> Tile communication statistics
(PID.TID 0000.0001) // ======================================================
(PID.TID 0000.0001) // o Tile number: 000001
(PID.TID 0000.0001) //         No. X exchanges =              0
(PID.TID 0000.0001) //            Max. X spins =              0
(PID.TID 0000.0001) //            Min. X spins =     1000000000
(PID.TID 0000.0001) //          Total. X spins =              0
(PID.TID 0000.0001) //            Avg. X spins =       0.00E+00
(PID.TID 0000.0001) //         No. Y exchanges =              0
(PID.TID 0000.0001) //            Max. Y spins =              0
(PID.TID 0000.0001) //            Min. Y spins =     1000000000
(PID.TID 0000.0001) //          Total. Y spins =              0
(PID.TID 0000.0001) //            Avg. Y spins =       0.00E+00
(PID.TID 0000.0001) // o Tile number: 000002
(PID.TID 0000.0001) //         No. X exchanges =              0
(PID.TID 0000.0001) //            Max. X spins =              0
(PID.TID 0000.0001) //            Min. X spins =     1000000000
(PID.TID 0000.0001) //          Total. X spins =              0
(PID.TID 0000.0001) //            Avg. X spins =       0.00E+00
(PID.TID 0000.0001) //         No. Y exchanges =              0
(PID.TID 0000.0001) //            Max. Y spins =              0
(PID.TID 0000.0001) //            Min. Y spins =     1000000000
(PID.TID 0000.0001) //          Total. Y spins =              0
(PID.TID 0000.0001) //            Avg. Y spins =       0.00E+00
(PID.TID 0000.0001) // o Thread number: 000001
(PID.TID 0000.0001) //            No. barriers =          58212
(PID.TID 0000.0001) //      Max. barrier spins =              1
(PID.TID 0000.0001) //      Min. barrier spins =              1
(PID.TID 0000.0001) //     Total barrier spins =          58212
(PID.TID 0000.0001) //      Avg. barrier spins =       1.00E+00
