(PID.TID 0000.0001) 
(PID.TID 0000.0001) // ======================================================
(PID.TID 0000.0001) //                      MITgcm UV
(PID.TID 0000.0001) //                      =========
(PID.TID 0000.0001) // ======================================================
(PID.TID 0000.0001) // execution environment starting up...
(PID.TID 0000.0001) 
(PID.TID 0000.0001) // MITgcmUV version:  checkpoint63l
(PID.TID 0000.0001) // Build user:        mlosch
(PID.TID 0000.0001) // Build host:        csysl24
(PID.TID 0000.0001) // Build date:        Wed Apr 25 17:39:11 CEST 2012
(PID.TID 0000.0001) 
(PID.TID 0000.0001) // =======================================================
(PID.TID 0000.0001) // Execution Environment parameter file "eedata"
(PID.TID 0000.0001) // =======================================================
(PID.TID 0000.0001) ># Example "eedata" file
(PID.TID 0000.0001) ># Lines beginning "#" are comments
(PID.TID 0000.0001) ># nTx - No. threads per process in X
(PID.TID 0000.0001) ># nTy - No. threads per process in Y
(PID.TID 0000.0001) > &EEPARMS
(PID.TID 0000.0001) > /
(PID.TID 0000.0001) ># Note: Some systems use & as the
(PID.TID 0000.0001) ># namelist terminator. Other systems
(PID.TID 0000.0001) ># use a / character (as shown here).
(PID.TID 0000.0001) 
(PID.TID 0000.0001) // =======================================================
(PID.TID 0000.0001) // Computational Grid Specification ( see files "SIZE.h" )
(PID.TID 0000.0001) //                                  ( and "eedata"       )
(PID.TID 0000.0001) // =======================================================
(PID.TID 0000.0001)      nPx =    1 ; /* No. processes in X */
(PID.TID 0000.0001)      nPy =    1 ; /* No. processes in Y */
(PID.TID 0000.0001)      nSx =    1 ; /* No. tiles in X per process */
(PID.TID 0000.0001)      nSy =    2 ; /* No. tiles in Y per process */
(PID.TID 0000.0001)      sNx =   50 ; /* Tile size in X */
(PID.TID 0000.0001)      sNy =   50 ; /* Tile size in Y */
(PID.TID 0000.0001)      OLx =    3 ; /* Tile overlap distance in X */
(PID.TID 0000.0001)      OLy =    3 ; /* Tile overlap distance in Y */
(PID.TID 0000.0001)      nTx =    1 ; /* No. threads in X per process */
(PID.TID 0000.0001)      nTy =    1 ; /* No. threads in Y per process */
(PID.TID 0000.0001)       Nr =   30 ; /* No. levels in the vertical   */
(PID.TID 0000.0001)       Nx =   50 ; /* Total domain size in X ( = nPx*nSx*sNx ) */
(PID.TID 0000.0001)       Ny =  100 ; /* Total domain size in Y ( = nPy*nSy*sNy ) */
(PID.TID 0000.0001)   nTiles =    2 ; /* Total no. tiles per process ( = nSx*nSy ) */
(PID.TID 0000.0001)   nProcs =    1 ; /* Total no. processes ( = nPx*nPy ) */
(PID.TID 0000.0001) nThreads =    1 ; /* Total no. threads per process ( = nTx*nTy ) */
(PID.TID 0000.0001) usingMPI =    F ; /* Flag used to control whether MPI is in use */
(PID.TID 0000.0001)                   /*  note: To execute a program with MPI calls */
(PID.TID 0000.0001)                   /*  it must be launched appropriately e.g     */
(PID.TID 0000.0001)                   /*  "mpirun -np 64 ......"                    */
(PID.TID 0000.0001) useCoupler=    F ;/* Flag used to control communications with   */
(PID.TID 0000.0001)                   /*  other model components, through a coupler */
(PID.TID 0000.0001) debugMode =    F ; /* print debug msg. (sequence of S/R calls)  */
(PID.TID 0000.0001) printMapIncludesZeros=    F ; /* print zeros in Std.Output maps */
(PID.TID 0000.0001) maxLengthPrt1D=   65 /* maxLength of 1D array printed to StdOut */
(PID.TID 0000.0001) 
(PID.TID 0000.0001) // ======================================================
(PID.TID 0000.0001) // Mapping of tiles to threads
(PID.TID 0000.0001) // ======================================================
(PID.TID 0000.0001) // -o- Thread   1, tiles (   1:   1,   1:   2)
(PID.TID 0000.0001) 
(PID.TID 0000.0001) // ======================================================
(PID.TID 0000.0001) // Tile <-> Tile connectvity table
(PID.TID 0000.0001) // ======================================================
(PID.TID 0000.0001) // Tile number: 000001 (process no. = 000001)
(PID.TID 0000.0001) //        WEST: Tile = 000001, Process = 000001, Comm = put
(PID.TID 0000.0001) //                bi = 000001, bj = 000001
(PID.TID 0000.0001) //        EAST: Tile = 000001, Process = 000001, Comm = put
(PID.TID 0000.0001) //                bi = 000001, bj = 000001
(PID.TID 0000.0001) //       SOUTH: Tile = 000002, Process = 000001, Comm = put
(PID.TID 0000.0001) //                bi = 000001, bj = 000002
(PID.TID 0000.0001) //       NORTH: Tile = 000002, Process = 000001, Comm = put
(PID.TID 0000.0001) //                bi = 000001, bj = 000002
(PID.TID 0000.0001) // Tile number: 000002 (process no. = 000001)
(PID.TID 0000.0001) //        WEST: Tile = 000002, Process = 000001, Comm = put
(PID.TID 0000.0001) //                bi = 000001, bj = 000002
(PID.TID 0000.0001) //        EAST: Tile = 000002, Process = 000001, Comm = put
(PID.TID 0000.0001) //                bi = 000001, bj = 000002
(PID.TID 0000.0001) //       SOUTH: Tile = 000001, Process = 000001, Comm = put
(PID.TID 0000.0001) //                bi = 000001, bj = 000001
(PID.TID 0000.0001) //       NORTH: Tile = 000001, Process = 000001, Comm = put
(PID.TID 0000.0001) //                bi = 000001, bj = 000001
(PID.TID 0000.0001) 
(PID.TID 0000.0001)  INI_PARMS: opening model parameter file "data"
(PID.TID 0000.0001)  OPEN_COPY_DATA_FILE: opening file data
(PID.TID 0000.0001) // =======================================================
(PID.TID 0000.0001) // Parameter file "data"
(PID.TID 0000.0001) // =======================================================
(PID.TID 0000.0001) ># ====================
(PID.TID 0000.0001) ># | Model parameters |
(PID.TID 0000.0001) ># ====================
(PID.TID 0000.0001) >#
(PID.TID 0000.0001) ># Continuous equation parameters
(PID.TID 0000.0001) > &PARM01
(PID.TID 0000.0001) > Tref = 30*-1.9,
(PID.TID 0000.0001) > Sref = 30*34.4,
(PID.TID 0000.0001) > viscAz=1.E-3,
(PID.TID 0000.0001) > viscAh=600.0,
(PID.TID 0000.0001) > no_slip_sides=.FALSE.,
(PID.TID 0000.0001) > no_slip_bottom=.FALSE.,
(PID.TID 0000.0001) > diffKhT=100.0,
(PID.TID 0000.0001) > diffKzT=5.E-5,
(PID.TID 0000.0001) > diffKhS=100.0,
(PID.TID 0000.0001) > diffKzS=5.E-5,
(PID.TID 0000.0001) > bottomDragQuadratic=2.5E-3,
(PID.TID 0000.0001) > eosType='JMD95Z',
(PID.TID 0000.0001) > HeatCapacity_cp = 3974.0,
(PID.TID 0000.0001) > rhoConst=1030.,
(PID.TID 0000.0001) > rhoNil=1030.,
(PID.TID 0000.0001) > gravity=9.81,
(PID.TID 0000.0001) > convertFW2Salt = 33.4,
(PID.TID 0000.0001) > rigidLid=.FALSE.,
(PID.TID 0000.0001) > implicitFreeSurface=.TRUE.,
(PID.TID 0000.0001) > exactConserv=.TRUE.,
(PID.TID 0000.0001) > hFacMin=0.05,
(PID.TID 0000.0001) > nonHydrostatic=.FALSE.,
(PID.TID 0000.0001) > readBinaryPrec=64,
(PID.TID 0000.0001) > useCDScheme = .TRUE.,
(PID.TID 0000.0001) > /
(PID.TID 0000.0001) >
(PID.TID 0000.0001) ># Elliptic solver parameters
(PID.TID 0000.0001) > &PARM02
(PID.TID 0000.0001) > cg2dMaxIters=1000,
(PID.TID 0000.0001) > cg2dTargetResidual=1.E-13,
(PID.TID 0000.0001) > cg3dMaxIters=400,
(PID.TID 0000.0001) > cg3dTargetResidual=1.E-13,
(PID.TID 0000.0001) > /
(PID.TID 0000.0001) >
(PID.TID 0000.0001) ># Time stepping parameters
(PID.TID 0000.0001) > &PARM03
(PID.TID 0000.0001) > nIter0=0,
(PID.TID 0000.0001) > nTimeSteps=20,
(PID.TID 0000.0001) > deltaT=1800.0,
(PID.TID 0000.0001) > abEps=0.1,
(PID.TID 0000.0001) > cAdjFreq = -1.,
(PID.TID 0000.0001) > tauCD = 400000.,
(PID.TID 0000.0001) > pChkptFreq=0.0,
(PID.TID 0000.0001) > chkptFreq=0.0,
(PID.TID 0000.0001) > dumpFreq=0.0,
(PID.TID 0000.0001) > taveFreq=0.0,
(PID.TID 0000.0001) > monitorFreq=1.,
(PID.TID 0000.0001) > monitorSelect=2,
(PID.TID 0000.0001) > /
(PID.TID 0000.0001) >
(PID.TID 0000.0001) ># Gridding parameters
(PID.TID 0000.0001) > &PARM04
(PID.TID 0000.0001) > usingSphericalPolarGrid=.TRUE.,
(PID.TID 0000.0001) > ygOrigin = -80.0,
(PID.TID 0000.0001) > delX=50*0.3,
(PID.TID 0000.0001) > delY=100*0.1,
(PID.TID 0000.0001) > delZ=30*30.0,
(PID.TID 0000.0001) > /
(PID.TID 0000.0001) >
(PID.TID 0000.0001) ># Input datasets
(PID.TID 0000.0001) > &PARM05
(PID.TID 0000.0001) > bathyFile='bathy.box',
(PID.TID 0000.0001) > /
(PID.TID 0000.0001) 
(PID.TID 0000.0001)  INI_PARMS ; starts to read PARM01
(PID.TID 0000.0001)  INI_PARMS ; read PARM01 : OK
(PID.TID 0000.0001)  INI_PARMS ; starts to read PARM02
(PID.TID 0000.0001)  INI_PARMS ; read PARM02 : OK
(PID.TID 0000.0001)  INI_PARMS ; starts to read PARM03
(PID.TID 0000.0001)  INI_PARMS ; read PARM03 : OK
(PID.TID 0000.0001)  INI_PARMS ; starts to read PARM04
(PID.TID 0000.0001)  INI_PARMS ; read PARM04 : OK
(PID.TID 0000.0001)  INI_PARMS ; starts to read PARM05
(PID.TID 0000.0001)  INI_PARMS ; read PARM05 : OK
(PID.TID 0000.0001)  INI_PARMS: finished reading file "data"
(PID.TID 0000.0001)  PACKAGES_BOOT: opening data.pkg
(PID.TID 0000.0001)  OPEN_COPY_DATA_FILE: opening file data.pkg
(PID.TID 0000.0001) // =======================================================
(PID.TID 0000.0001) // Parameter file "data.pkg"
(PID.TID 0000.0001) // =======================================================
(PID.TID 0000.0001) ># Packages
(PID.TID 0000.0001) > &PACKAGES
(PID.TID 0000.0001) > useDiagnostics = .TRUE.,
(PID.TID 0000.0001) > useShelfIce=.true.,
(PID.TID 0000.0001) > useIcefront=.true.,
(PID.TID 0000.0001) > /
(PID.TID 0000.0001) 
(PID.TID 0000.0001)  PACKAGES_BOOT: finished reading data.pkg
(PID.TID 0000.0001)  SHELFICE_READPARMS: opening data.shelfice
(PID.TID 0000.0001)  OPEN_COPY_DATA_FILE: opening file data.shelfice
(PID.TID 0000.0001) // =======================================================
(PID.TID 0000.0001) // Parameter file "data.shelfice"
(PID.TID 0000.0001) // =======================================================
(PID.TID 0000.0001) ># ===================================
(PID.TID 0000.0001) ># | Parameters for SHELFICE package |
(PID.TID 0000.0001) ># ===================================
(PID.TID 0000.0001) > &SHELFICE_PARM01
(PID.TID 0000.0001) > SHELFICEboundaryLayer = .TRUE.,
(PID.TID 0000.0001) > SHELFICEtopoFile='icetopo.exp1',
(PID.TID 0000.0001) > SHELFICEloadAnomalyFile = 'phi0surf.exp1.jmd95z',
(PID.TID 0000.0001) > SHELFICEconserve = .true.,
(PID.TID 0000.0001) > useISOMIPTD = .FALSE.,
(PID.TID 0000.0001) > no_slip_shelfice = .false.,
(PID.TID 0000.0001) > SHELFICEwriteState = .TRUE.,
(PID.TID 0000.0001) > /
(PID.TID 0000.0001) 
(PID.TID 0000.0001)  SHELFICE_READPARMS: finished reading data.shelfice
(PID.TID 0000.0001)  ICEFRONT_READPARMS: opening data.icefront
(PID.TID 0000.0001)  OPEN_COPY_DATA_FILE: opening file data.icefront
(PID.TID 0000.0001) // =======================================================
(PID.TID 0000.0001) // Parameter file "data.icefront"
(PID.TID 0000.0001) // =======================================================
(PID.TID 0000.0001) ># ===================================
(PID.TID 0000.0001) ># | Parameters for ICEFRONT package |
(PID.TID 0000.0001) ># ===================================
(PID.TID 0000.0001) > &ICEFRONT_PARM01
(PID.TID 0000.0001) > ICEFRONTdepthFile='frontdepth.xuyun',
(PID.TID 0000.0001) > ICEFRONTlengthFile = 'frontcircum.xuyun',
(PID.TID 0000.0001) > applyIcefrontTendT = .true.,
(PID.TID 0000.0001) > applyIcefrontTendS = .true.,
(PID.TID 0000.0001) > /
(PID.TID 0000.0001) 
(PID.TID 0000.0001)  ICEFRONT_READPARMS: finished reading data.icefront
(PID.TID 0000.0001)  DIAGNOSTICS_READPARMS: opening data.diagnostics
(PID.TID 0000.0001)  OPEN_COPY_DATA_FILE: opening file data.diagnostics
(PID.TID 0000.0001) // =======================================================
(PID.TID 0000.0001) // Parameter file "data.diagnostics"
(PID.TID 0000.0001) // =======================================================
(PID.TID 0000.0001) ># Diagnostic Package Choices
(PID.TID 0000.0001) >#--------------------
(PID.TID 0000.0001) >#  dumpAtLast (logical): always write output at the end of simulation (default=F)
(PID.TID 0000.0001) >#  diag_mnc   (logical): write to NetCDF files (default=useMNC)
(PID.TID 0000.0001) >#--for each output-stream:
(PID.TID 0000.0001) >#  fileName(n) : prefix of the output file name (max 80c long) for outp.stream n
(PID.TID 0000.0001) >#  frequency(n):< 0 : write snap-shot output every |frequency| seconds
(PID.TID 0000.0001) >#               > 0 : write time-average output every frequency seconds
(PID.TID 0000.0001) >#  timePhase(n)     : write at time = timePhase + multiple of |frequency|
(PID.TID 0000.0001) >#    averagingFreq  : frequency (in s) for periodic averaging interval
(PID.TID 0000.0001) >#    averagingPhase : phase     (in s) for periodic averaging interval
(PID.TID 0000.0001) >#    repeatCycle    : number of averaging intervals in 1 cycle
(PID.TID 0000.0001) >#  levels(:,n) : list of levels to write to file (Notes: declared as REAL)
(PID.TID 0000.0001) >#                when this entry is missing, select all common levels of this list
(PID.TID 0000.0001) >#  fields(:,n) : list of selected diagnostics fields (8.c) in outp.stream n
(PID.TID 0000.0001) >#                (see "available_diagnostics.log" file for the full list of diags)
(PID.TID 0000.0001) >#  missing_value(n) : missing value for real-type fields in output file "n"
(PID.TID 0000.0001) >#  fileFlags(n)     : specific code (8c string) for output file "n"
(PID.TID 0000.0001) >#--------------------
(PID.TID 0000.0001) > &DIAGNOSTICS_LIST
(PID.TID 0000.0001) >  fields(1:2,1)  = 'SHIfwFlx','SHIhtFlx',
(PID.TID 0000.0001) >   fileName(1) = 'shelficeDiag',
(PID.TID 0000.0001) >  frequency(1) = 18000.,
(PID.TID 0000.0001) >  fields(1:2,2)  = 'ICFfwFlx','ICFhtFlx',
(PID.TID 0000.0001) >   fileName(2) = 'icefrontDiag',
(PID.TID 0000.0001) >  frequency(2) = 18000.,
(PID.TID 0000.0001) > /
(PID.TID 0000.0001) >
(PID.TID 0000.0001) >#--------------------
(PID.TID 0000.0001) ># Parameter for Diagnostics of per level statistics:
(PID.TID 0000.0001) >#--------------------
(PID.TID 0000.0001) >#  diagSt_mnc (logical): write stat-diags to NetCDF files (default=diag_mnc)
(PID.TID 0000.0001) >#  diagSt_regMaskFile : file containing the region-mask to read-in
(PID.TID 0000.0001) >#  nSetRegMskFile   : number of region-mask sets within the region-mask file
(PID.TID 0000.0001) >#  set_regMask(i)   : region-mask set-index that identifies the region "i"
(PID.TID 0000.0001) >#  val_regMask(i)   : region "i" identifier value in the region mask
(PID.TID 0000.0001) >#--for each output-stream:
(PID.TID 0000.0001) >#  stat_fName(n) : prefix of the output file name (max 80c long) for outp.stream n
(PID.TID 0000.0001) >#  stat_freq(n):< 0 : write snap-shot output every |stat_freq| seconds
(PID.TID 0000.0001) >#               > 0 : write time-average output every stat_freq seconds
(PID.TID 0000.0001) >#  stat_phase(n)    : write at time = stat_phase + multiple of |stat_freq|
(PID.TID 0000.0001) >#  stat_region(:,n) : list of "regions" (default: 1 region only=global)
(PID.TID 0000.0001) >#  stat_fields(:,n) : list of selected diagnostics fields (8.c) in outp.stream n
(PID.TID 0000.0001) >#                (see "available_diagnostics.log" file for the full list of diags)
(PID.TID 0000.0001) >#--------------------
(PID.TID 0000.0001) > &DIAG_STATIS_PARMS
(PID.TID 0000.0001) >#stat_fields(1:5,1)  = 'ETAN    ','UVEL    ','VVEL    ','WVEL    ', 'THETA   ',
(PID.TID 0000.0001) ># stat_fName(1) = 'dynStDiag',
(PID.TID 0000.0001) >#  stat_freq(1) = -3600.,
(PID.TID 0000.0001) ># stat_phase(1) = 0.,
(PID.TID 0000.0001) > /
(PID.TID 0000.0001) 
(PID.TID 0000.0001) S/R DIAGNOSTICS_READPARMS, read namelist "diagnostics_list": start
(PID.TID 0000.0001) S/R DIAGNOSTICS_READPARMS, read namelist "diagnostics_list": OK
(PID.TID 0000.0001) S/R DIAGNOSTICS_READPARMS, read namelist "DIAG_STATIS_PARMS": start
(PID.TID 0000.0001) S/R DIAGNOSTICS_READPARMS, read namelist "DIAG_STATIS_PARMS": OK
(PID.TID 0000.0001)  DIAGNOSTICS_READPARMS: global parameter summary:
(PID.TID 0000.0001)  dumpAtLast = /* always write time-ave diags at the end */
(PID.TID 0000.0001)                   F
(PID.TID 0000.0001)     ;
(PID.TID 0000.0001)  diag_mnc =   /* write NetCDF output files */
(PID.TID 0000.0001)                   F
(PID.TID 0000.0001)     ;
(PID.TID 0000.0001)  useMissingValue = /* put MissingValue where mask = 0 */
(PID.TID 0000.0001)                   F
(PID.TID 0000.0001)     ;
(PID.TID 0000.0001)  diagCG_maxIters = /* max number of iters in diag_cg2d */
(PID.TID 0000.0001)                    1000
(PID.TID 0000.0001)     ;
(PID.TID 0000.0001)  diagCG_resTarget = /* residual target for diag_cg2d */
(PID.TID 0000.0001)                 1.000000000000000E-13
(PID.TID 0000.0001)     ;
(PID.TID 0000.0001) -----------------------------------------------------
(PID.TID 0000.0001)  DIAGNOSTICS_READPARMS: active diagnostics summary:
(PID.TID 0000.0001) -----------------------------------------------------
(PID.TID 0000.0001) Creating Output Stream: shelficeDiag
(PID.TID 0000.0001) Output Frequency:      18000.000000 ; Phase:           0.000000
(PID.TID 0000.0001)  Averaging Freq.:      18000.000000 , Phase:           0.000000 , Cycle:   1
(PID.TID 0000.0001)  missing value:  1.234567000000E+05 ; for integers:   123456789
(PID.TID 0000.0001)  Levels:    will be set later
(PID.TID 0000.0001)  Fields:    SHIfwFlx SHIhtFlx
(PID.TID 0000.0001) Creating Output Stream: icefrontDiag
(PID.TID 0000.0001) Output Frequency:      18000.000000 ; Phase:           0.000000
(PID.TID 0000.0001)  Averaging Freq.:      18000.000000 , Phase:           0.000000 , Cycle:   1
(PID.TID 0000.0001)  missing value:  1.234567000000E+05 ; for integers:   123456789
(PID.TID 0000.0001)  Levels:    will be set later
(PID.TID 0000.0001)  Fields:    ICFfwFlx ICFhtFlx
(PID.TID 0000.0001) -----------------------------------------------------
(PID.TID 0000.0001)  DIAGNOSTICS_READPARMS: statistics diags. summary:
(PID.TID 0000.0001) -----------------------------------------------------
(PID.TID 0000.0001) 
(PID.TID 0000.0001) SET_PARMS: done
(PID.TID 0000.0001) Enter INI_VERTICAL_GRID: setInterFDr=    T ; setCenterDr=    F
(PID.TID 0000.0001) %MON XC_max                       =   1.4850000000000E+01
(PID.TID 0000.0001) %MON XC_min                       =   1.5000000000000E-01
(PID.TID 0000.0001) %MON XC_mean                      =   7.5000000000000E+00
(PID.TID 0000.0001) %MON XC_sd                        =   4.3292609068985E+00
(PID.TID 0000.0001) %MON XG_max                       =   1.4700000000000E+01
(PID.TID 0000.0001) %MON XG_min                       =   1.1102230246252E-16
(PID.TID 0000.0001) %MON XG_mean                      =   7.3500000000000E+00
(PID.TID 0000.0001) %MON XG_sd                        =   4.3292609068985E+00
(PID.TID 0000.0001) %MON DXC_max                      =   1.1380125394806E+04
(PID.TID 0000.0001) %MON DXC_min                      =   5.8203914905589E+03
(PID.TID 0000.0001) %MON DXC_mean                     =   8.6215028627206E+03
(PID.TID 0000.0001) %MON DXC_sd                       =   1.6219001271572E+03
(PID.TID 0000.0001) %MON DXF_max                      =   1.1380125394806E+04
(PID.TID 0000.0001) %MON DXF_min                      =   5.8203914905589E+03
(PID.TID 0000.0001) %MON DXF_mean                     =   8.6215028627206E+03
(PID.TID 0000.0001) %MON DXF_sd                       =   1.6219001271572E+03
(PID.TID 0000.0001) %MON DXG_max                      =   1.1352761512017E+04
(PID.TID 0000.0001) %MON DXG_min                      =   5.7917296935586E+03
(PID.TID 0000.0001) %MON DXG_mean                     =   8.5934208253080E+03
(PID.TID 0000.0001) %MON DXG_sd                       =   1.6222785520817E+03
(PID.TID 0000.0001) %MON DXV_max                      =   1.1352761512017E+04
(PID.TID 0000.0001) %MON DXV_min                      =   5.7917296935586E+03
(PID.TID 0000.0001) %MON DXV_mean                     =   8.5934208253080E+03
(PID.TID 0000.0001) %MON DXV_sd                       =   1.6222785520817E+03
(PID.TID 0000.0001) %MON YC_max                       =  -7.0050000000001E+01
(PID.TID 0000.0001) %MON YC_min                       =  -7.9950000000000E+01
(PID.TID 0000.0001) %MON YC_mean                      =  -7.5000000000000E+01
(PID.TID 0000.0001) %MON YC_sd                        =   2.8866070047720E+00
(PID.TID 0000.0001) %MON YG_max                       =  -7.0100000000001E+01
(PID.TID 0000.0001) %MON YG_min                       =  -8.0000000000000E+01
(PID.TID 0000.0001) %MON YG_mean                      =  -7.5050000000000E+01
(PID.TID 0000.0001) %MON YG_sd                        =   2.8866070047720E+00
(PID.TID 0000.0001) %MON DYC_max                      =   1.1117747335204E+04
(PID.TID 0000.0001) %MON DYC_min                      =   1.1117747335204E+04
(PID.TID 0000.0001) %MON DYC_mean                     =   1.1117747335203E+04
(PID.TID 0000.0001) %MON DYC_sd                       =   6.0754246078432E-10
(PID.TID 0000.0001) %MON DYF_max                      =   1.1117747335204E+04
(PID.TID 0000.0001) %MON DYF_min                      =   1.1117747335204E+04
(PID.TID 0000.0001) %MON DYF_mean                     =   1.1117747335203E+04
(PID.TID 0000.0001) %MON DYF_sd                       =   6.0754246078432E-10
(PID.TID 0000.0001) %MON DYG_max                      =   1.1117747335204E+04
(PID.TID 0000.0001) %MON DYG_min                      =   1.1117747335204E+04
(PID.TID 0000.0001) %MON DYG_mean                     =   1.1117747335203E+04
(PID.TID 0000.0001) %MON DYG_sd                       =   6.0754246078432E-10
(PID.TID 0000.0001) %MON DYU_max                      =   1.1117747335204E+04
(PID.TID 0000.0001) %MON DYU_min                      =   1.1117747335204E+04
(PID.TID 0000.0001) %MON DYU_mean                     =   1.1117747335203E+04
(PID.TID 0000.0001) %MON DYU_sd                       =   6.0754246078432E-10
(PID.TID 0000.0001) %MON RA_max                       =   1.2652134272379E+08
(PID.TID 0000.0001) %MON RA_min                       =   6.4709633770803E+07
(PID.TID 0000.0001) %MON RA_mean                      =   9.5851678311588E+07
(PID.TID 0000.0001) %MON RA_sd                        =   1.8031873527991E+07
(PID.TID 0000.0001) %MON RAW_max                      =   1.2652134272379E+08
(PID.TID 0000.0001) %MON RAW_min                      =   6.4709633770803E+07
(PID.TID 0000.0001) %MON RAW_mean                     =   9.5851678311588E+07
(PID.TID 0000.0001) %MON RAW_sd                       =   1.8031873527991E+07
(PID.TID 0000.0001) %MON RAS_max                      =   1.2621711802744E+08
(PID.TID 0000.0001) %MON RAS_min                      =   6.4390979194019E+07
(PID.TID 0000.0001) %MON RAS_mean                     =   9.5539469354603E+07
(PID.TID 0000.0001) %MON RAS_sd                       =   1.8036080760153E+07
(PID.TID 0000.0001) %MON RAZ_max                      =   1.2621711802744E+08
(PID.TID 0000.0001) %MON RAZ_min                      =   6.4390979194019E+07
(PID.TID 0000.0001) %MON RAZ_mean                     =   9.5539469354603E+07
(PID.TID 0000.0001) %MON RAZ_sd                       =   1.8036080760153E+07
(PID.TID 0000.0001) %MON AngleCS_max                  =   1.0000000000000E+00
(PID.TID 0000.0001) %MON AngleCS_min                  =   1.0000000000000E+00
(PID.TID 0000.0001) %MON AngleCS_mean                 =   1.0000000000000E+00
(PID.TID 0000.0001) %MON AngleCS_sd                   =   0.0000000000000E+00
(PID.TID 0000.0001) %MON AngleSN_max                  =   0.0000000000000E+00
(PID.TID 0000.0001) %MON AngleSN_min                  =   0.0000000000000E+00
(PID.TID 0000.0001) %MON AngleSN_mean                 =   0.0000000000000E+00
(PID.TID 0000.0001) %MON AngleSN_sd                   =   0.0000000000000E+00
(PID.TID 0000.0001)  MDS_READ_FIELD: opening global file: bathy.box
(PID.TID 0000.0001)  MDS_READ_FIELD: opening global file: icetopo.exp1
(PID.TID 0000.0001) // =======================================================
(PID.TID 0000.0001) // Field Model R_low (ini_masks_etc)
(PID.TID 0000.0001) // CMIN =         -9.000000000000000E+02
(PID.TID 0000.0001) // CMAX =         -9.000000000000000E+02
(PID.TID 0000.0001) // CINT =          0.000000000000000E+00
(PID.TID 0000.0001) // SYMBOLS (CMIN->CMAX): -abcdefghijklmnopqrstuvwxyz+
(PID.TID 0000.0001) //                  0.0: .
(PID.TID 0000.0001) // RANGE I (Lo:Hi:Step):(    -2:    53:     1)
(PID.TID 0000.0001) // RANGE J (Lo:Hi:Step):(   103:    -2:    -1)
(PID.TID 0000.0001) // RANGE K (Lo:Hi:Step):(   1:   1:   1)
(PID.TID 0000.0001) // =======================================================
(PID.TID 0000.0001) // =======================================================
(PID.TID 0000.0001) // END OF FIELD                                          =
(PID.TID 0000.0001) // =======================================================
(PID.TID 0000.0001) 
(PID.TID 0000.0001) // =======================================================
(PID.TID 0000.0001) // Field Model Ro_surf (ini_masks_etc)
(PID.TID 0000.0001) // CMIN =         -6.812500000000010E+02
(PID.TID 0000.0001) // CMAX =         -2.000000000000000E+02
(PID.TID 0000.0001) // CINT =          1.782407407407411E+01
(PID.TID 0000.0001) // SYMBOLS (CMIN->CMAX): -abcdefghijklmnopqrstuvwxyz+
(PID.TID 0000.0001) //                  0.0: .
(PID.TID 0000.0001) // RANGE I (Lo:Hi:Step):(    -2:    53:     1)
(PID.TID 0000.0001) // RANGE J (Lo:Hi:Step):(   103:    -2:    -1)
(PID.TID 0000.0001) // RANGE K (Lo:Hi:Step):(   1:   1:   1)
(PID.TID 0000.0001) // =======================================================
(PID.TID 0000.0001) K =   1
(PID.TID 0000.0001) //                I=7       I=17      I=27      I=37      I=47
(PID.TID 0000.0001) // |--J--|210123456|890123456|890123456|890123456|890123456|890123
(PID.TID 0000.0001) //    103 aaa.aaaaaaaaaaaaaaaaaaaaaaaaaaaaaaaaaaaaaaaaaaaaaaaaa.aa
(PID.TID 0000.0001) //    102 ---.-------------------------------------------------.--
(PID.TID 0000.0001) //    101 ........................................................
(PID.TID 0000.0001) //    100 ........................................................
(PID.TID 0000.0001) //     99 ........................................................
(PID.TID 0000.0001) //     98 ........................................................
(PID.TID 0000.0001) //     97 ........................................................
(PID.TID 0000.0001) //     96 ........................................................
(PID.TID 0000.0001) //     95 ........................................................
(PID.TID 0000.0001) //     94 ........................................................
(PID.TID 0000.0001) //     93 ........................................................
(PID.TID 0000.0001) //     92 ........................................................
(PID.TID 0000.0001) //     91 ........................................................
(PID.TID 0000.0001) //     90 ........................................................
(PID.TID 0000.0001) //     89 ........................................................
(PID.TID 0000.0001) //     88 ........................................................
(PID.TID 0000.0001) //     87 ........................................................
(PID.TID 0000.0001) //     86 ........................................................
(PID.TID 0000.0001) //     85 ........................................................
(PID.TID 0000.0001) //     84 ........................................................
(PID.TID 0000.0001) //     83 ........................................................
(PID.TID 0000.0001) //     82 ........................................................
(PID.TID 0000.0001) //     81 ........................................................
(PID.TID 0000.0001) //     80 ........................................................
(PID.TID 0000.0001) //     79 ........................................................
(PID.TID 0000.0001) //     78 ........................................................
(PID.TID 0000.0001) //     77 ........................................................
(PID.TID 0000.0001) //     76 ........................................................
(PID.TID 0000.0001) //     75 ........................................................
(PID.TID 0000.0001) //     74 ........................................................
(PID.TID 0000.0001) //     73 ........................................................
(PID.TID 0000.0001) //     72 ........................................................
(PID.TID 0000.0001) //     71 ........................................................
(PID.TID 0000.0001) //     70 ........................................................
(PID.TID 0000.0001) //     69 ........................................................
(PID.TID 0000.0001) //     68 ........................................................
(PID.TID 0000.0001) //     67 ........................................................
(PID.TID 0000.0001) //     66 ........................................................
(PID.TID 0000.0001) //     65 ........................................................
(PID.TID 0000.0001) //     64 ........................................................
(PID.TID 0000.0001) //     63 ........................................................
(PID.TID 0000.0001) //     62 ........................................................
(PID.TID 0000.0001) //     61 ........................................................
(PID.TID 0000.0001) //     60 ........................................................
(PID.TID 0000.0001) //     59 ........................................................
(PID.TID 0000.0001) //     58 ........................................................
(PID.TID 0000.0001) //     57 ........................................................
(PID.TID 0000.0001) //     56 ........................................................
(PID.TID 0000.0001) //     55 ........................................................
(PID.TID 0000.0001) //     54 ........................................................
(PID.TID 0000.0001) //     53 ........................................................
(PID.TID 0000.0001) //     52 ........................................................
(PID.TID 0000.0001) //     51 ........................................................
(PID.TID 0000.0001) //     50 +++.+++++++++++++++++++++++++++++++++++++++++++++++++.++
(PID.TID 0000.0001) //     49 +++.+++++++++++++++++++++++++++++++++++++++++++++++++.++
(PID.TID 0000.0001) //     48 +++.+++++++++++++++++++++++++++++++++++++++++++++++++.++
(PID.TID 0000.0001) //     53 ........................................................
(PID.TID 0000.0001) //     52 ........................................................
(PID.TID 0000.0001) //     51 ........................................................
(PID.TID 0000.0001) //     50 +++.+++++++++++++++++++++++++++++++++++++++++++++++++.++
(PID.TID 0000.0001) //     49 +++.+++++++++++++++++++++++++++++++++++++++++++++++++.++
(PID.TID 0000.0001) //     48 +++.+++++++++++++++++++++++++++++++++++++++++++++++++.++
(PID.TID 0000.0001) //     47 +++.+++++++++++++++++++++++++++++++++++++++++++++++++.++
(PID.TID 0000.0001) //     46 +++.+++++++++++++++++++++++++++++++++++++++++++++++++.++
(PID.TID 0000.0001) //     45 +++.+++++++++++++++++++++++++++++++++++++++++++++++++.++
(PID.TID 0000.0001) //     44 +++.+++++++++++++++++++++++++++++++++++++++++++++++++.++
(PID.TID 0000.0001) //     43 +++.+++++++++++++++++++++++++++++++++++++++++++++++++.++
(PID.TID 0000.0001) //     42 +++.+++++++++++++++++++++++++++++++++++++++++++++++++.++
(PID.TID 0000.0001) //     41 +++.+++++++++++++++++++++++++++++++++++++++++++++++++.++
(PID.TID 0000.0001) //     40 +++.+++++++++++++++++++++++++++++++++++++++++++++++++.++
(PID.TID 0000.0001) //     39 zzz.zzzzzzzzzzzzzzzzzzzzzzzzzzzzzzzzzzzzzzzzzzzzzzzzz.zz
(PID.TID 0000.0001) //     38 yyy.yyyyyyyyyyyyyyyyyyyyyyyyyyyyyyyyyyyyyyyyyyyyyyyyy.yy
(PID.TID 0000.0001) //     37 yyy.yyyyyyyyyyyyyyyyyyyyyyyyyyyyyyyyyyyyyyyyyyyyyyyyy.yy
(PID.TID 0000.0001) //     36 xxx.xxxxxxxxxxxxxxxxxxxxxxxxxxxxxxxxxxxxxxxxxxxxxxxxx.xx
(PID.TID 0000.0001) //     35 www.wwwwwwwwwwwwwwwwwwwwwwwwwwwwwwwwwwwwwwwwwwwwwwwww.ww
(PID.TID 0000.0001) //     34 vvv.vvvvvvvvvvvvvvvvvvvvvvvvvvvvvvvvvvvvvvvvvvvvvvvvv.vv
(PID.TID 0000.0001) //     33 vvv.vvvvvvvvvvvvvvvvvvvvvvvvvvvvvvvvvvvvvvvvvvvvvvvvv.vv
(PID.TID 0000.0001) //     32 uuu.uuuuuuuuuuuuuuuuuuuuuuuuuuuuuuuuuuuuuuuuuuuuuuuuu.uu
(PID.TID 0000.0001) //     31 ttt.ttttttttttttttttttttttttttttttttttttttttttttttttt.tt
(PID.TID 0000.0001) //     30 ttt.ttttttttttttttttttttttttttttttttttttttttttttttttt.tt
(PID.TID 0000.0001) //     29 sss.sssssssssssssssssssssssssssssssssssssssssssssssss.ss
(PID.TID 0000.0001) //     28 rrr.rrrrrrrrrrrrrrrrrrrrrrrrrrrrrrrrrrrrrrrrrrrrrrrrr.rr
(PID.TID 0000.0001) //     27 rrr.rrrrrrrrrrrrrrrrrrrrrrrrrrrrrrrrrrrrrrrrrrrrrrrrr.rr
(PID.TID 0000.0001) //     26 qqq.qqqqqqqqqqqqqqqqqqqqqqqqqqqqqqqqqqqqqqqqqqqqqqqqq.qq
(PID.TID 0000.0001) //     25 ppp.ppppppppppppppppppppppppppppppppppppppppppppppppp.pp
(PID.TID 0000.0001) //     24 ooo.ooooooooooooooooooooooooooooooooooooooooooooooooo.oo
(PID.TID 0000.0001) //     23 ooo.ooooooooooooooooooooooooooooooooooooooooooooooooo.oo
(PID.TID 0000.0001) //     22 nnn.nnnnnnnnnnnnnnnnnnnnnnnnnnnnnnnnnnnnnnnnnnnnnnnnn.nn
(PID.TID 0000.0001) //     21 mmm.mmmmmmmmmmmmmmmmmmmmmmmmmmmmmmmmmmmmmmmmmmmmmmmmm.mm
(PID.TID 0000.0001) //     20 mmm.mmmmmmmmmmmmmmmmmmmmmmmmmmmmmmmmmmmmmmmmmmmmmmmmm.mm
(PID.TID 0000.0001) //     19 lll.lllllllllllllllllllllllllllllllllllllllllllllllll.ll
(PID.TID 0000.0001) //     18 kkk.kkkkkkkkkkkkkkkkkkkkkkkkkkkkkkkkkkkkkkkkkkkkkkkkk.kk
(PID.TID 0000.0001) //     17 kkk.kkkkkkkkkkkkkkkkkkkkkkkkkkkkkkkkkkkkkkkkkkkkkkkkk.kk
(PID.TID 0000.0001) //     16 jjj.jjjjjjjjjjjjjjjjjjjjjjjjjjjjjjjjjjjjjjjjjjjjjjjjj.jj
(PID.TID 0000.0001) //     15 iii.iiiiiiiiiiiiiiiiiiiiiiiiiiiiiiiiiiiiiiiiiiiiiiiii.ii
(PID.TID 0000.0001) //     14 hhh.hhhhhhhhhhhhhhhhhhhhhhhhhhhhhhhhhhhhhhhhhhhhhhhhh.hh
(PID.TID 0000.0001) //     13 hhh.hhhhhhhhhhhhhhhhhhhhhhhhhhhhhhhhhhhhhhhhhhhhhhhhh.hh
(PID.TID 0000.0001) //     12 ggg.ggggggggggggggggggggggggggggggggggggggggggggggggg.gg
(PID.TID 0000.0001) //     11 fff.fffffffffffffffffffffffffffffffffffffffffffffffff.ff
(PID.TID 0000.0001) //     10 fff.fffffffffffffffffffffffffffffffffffffffffffffffff.ff
(PID.TID 0000.0001) //      9 eee.eeeeeeeeeeeeeeeeeeeeeeeeeeeeeeeeeeeeeeeeeeeeeeeee.ee
(PID.TID 0000.0001) //      8 ddd.ddddddddddddddddddddddddddddddddddddddddddddddddd.dd
(PID.TID 0000.0001) //      7 ddd.ddddddddddddddddddddddddddddddddddddddddddddddddd.dd
(PID.TID 0000.0001) //      6 ccc.ccccccccccccccccccccccccccccccccccccccccccccccccc.cc
(PID.TID 0000.0001) //      5 bbb.bbbbbbbbbbbbbbbbbbbbbbbbbbbbbbbbbbbbbbbbbbbbbbbbb.bb
(PID.TID 0000.0001) //      4 aaa.aaaaaaaaaaaaaaaaaaaaaaaaaaaaaaaaaaaaaaaaaaaaaaaaa.aa
(PID.TID 0000.0001) //      3 aaa.aaaaaaaaaaaaaaaaaaaaaaaaaaaaaaaaaaaaaaaaaaaaaaaaa.aa
(PID.TID 0000.0001) //      2 ---.-------------------------------------------------.--
(PID.TID 0000.0001) //      1 ........................................................
(PID.TID 0000.0001) //      0 ........................................................
(PID.TID 0000.0001) //     -1 ........................................................
(PID.TID 0000.0001) //     -2 ........................................................
(PID.TID 0000.0001) // =======================================================
(PID.TID 0000.0001) // END OF FIELD                                          =
(PID.TID 0000.0001) // =======================================================
(PID.TID 0000.0001) 
(PID.TID 0000.0001) // =======================================================
(PID.TID 0000.0001) // Field hFacC at iteration          0
(PID.TID 0000.0001) // CMIN =          1.000000000000000E+00
(PID.TID 0000.0001) // CMAX =          1.000000000000000E+00
(PID.TID 0000.0001) // CINT =          0.000000000000000E+00
(PID.TID 0000.0001) // SYMBOLS (CMIN->CMAX): -abcdefghijklmnopqrstuvwxyz+
(PID.TID 0000.0001) //                  0.0: .
(PID.TID 0000.0001) // RANGE I (Lo:Hi:Step):(    -2:    53:     1)
(PID.TID 0000.0001) // RANGE J (Lo:Hi:Step):(   103:    -2:    -1)
(PID.TID 0000.0001) // RANGE K (Lo:Hi:Step):(   1:   1:   1)
(PID.TID 0000.0001) // =======================================================
(PID.TID 0000.0001) // =======================================================
(PID.TID 0000.0001) // END OF FIELD                                          =
(PID.TID 0000.0001) // =======================================================
(PID.TID 0000.0001) 
(PID.TID 0000.0001) // =======================================================
(PID.TID 0000.0001) // Field hFacW at iteration          0
(PID.TID 0000.0001) // CMIN =          1.000000000000000E+00
(PID.TID 0000.0001) // CMAX =          1.000000000000000E+00
(PID.TID 0000.0001) // CINT =          0.000000000000000E+00
(PID.TID 0000.0001) // SYMBOLS (CMIN->CMAX): -abcdefghijklmnopqrstuvwxyz+
(PID.TID 0000.0001) //                  0.0: .
(PID.TID 0000.0001) // RANGE I (Lo:Hi:Step):(    -2:    53:     1)
(PID.TID 0000.0001) // RANGE J (Lo:Hi:Step):(   103:    -2:    -1)
(PID.TID 0000.0001) // RANGE K (Lo:Hi:Step):(   1:   1:   1)
(PID.TID 0000.0001) // =======================================================
(PID.TID 0000.0001) // =======================================================
(PID.TID 0000.0001) // END OF FIELD                                          =
(PID.TID 0000.0001) // =======================================================
(PID.TID 0000.0001) 
(PID.TID 0000.0001) // =======================================================
(PID.TID 0000.0001) // Field hFacS at iteration          0
(PID.TID 0000.0001) // CMIN =          1.000000000000000E+00
(PID.TID 0000.0001) // CMAX =          1.000000000000000E+00
(PID.TID 0000.0001) // CINT =          0.000000000000000E+00
(PID.TID 0000.0001) // SYMBOLS (CMIN->CMAX): -abcdefghijklmnopqrstuvwxyz+
(PID.TID 0000.0001) //                  0.0: .
(PID.TID 0000.0001) // RANGE I (Lo:Hi:Step):(    -2:    53:     1)
(PID.TID 0000.0001) // RANGE J (Lo:Hi:Step):(   103:    -2:    -1)
(PID.TID 0000.0001) // RANGE K (Lo:Hi:Step):(   1:   1:   1)
(PID.TID 0000.0001) // =======================================================
(PID.TID 0000.0001) // =======================================================
(PID.TID 0000.0001) // END OF FIELD                                          =
(PID.TID 0000.0001) // =======================================================
(PID.TID 0000.0001) 
(PID.TID 0000.0001) GAD_INIT_FIXED: GAD_OlMinSize=  1  0  1
(PID.TID 0000.0001) 
(PID.TID 0000.0001) // ===================================
(PID.TID 0000.0001) // GAD parameters :
(PID.TID 0000.0001) // ===================================
(PID.TID 0000.0001) tempAdvScheme =   /* Temp. Horiz.Advection scheme selector */
(PID.TID 0000.0001)                       2
(PID.TID 0000.0001)     ;
(PID.TID 0000.0001) tempVertAdvScheme =   /* Temp. Vert. Advection scheme selector */
(PID.TID 0000.0001)                       2
(PID.TID 0000.0001)     ;
(PID.TID 0000.0001) tempMultiDimAdvec =   /* use Muti-Dim Advec method for Temp */
(PID.TID 0000.0001)                   F
(PID.TID 0000.0001)     ;
(PID.TID 0000.0001) tempSOM_Advection = /* use 2nd Order Moment Advection for Temp */
(PID.TID 0000.0001)                   F
(PID.TID 0000.0001)     ;
(PID.TID 0000.0001) AdamsBashforthGt = /* apply Adams-Bashforth extrapolation on Gt */
(PID.TID 0000.0001)                   T
(PID.TID 0000.0001)     ;
(PID.TID 0000.0001) AdamsBashforth_T = /* apply Adams-Bashforth extrapolation on Temp */
(PID.TID 0000.0001)                   F
(PID.TID 0000.0001)     ;
(PID.TID 0000.0001) saltAdvScheme =   /* Salt. Horiz.advection scheme selector */
(PID.TID 0000.0001)                       2
(PID.TID 0000.0001)     ;
(PID.TID 0000.0001) saltVertAdvScheme =   /* Salt. Vert. Advection scheme selector */
(PID.TID 0000.0001)                       2
(PID.TID 0000.0001)     ;
(PID.TID 0000.0001) saltMultiDimAdvec =   /* use Muti-Dim Advec method for Salt */
(PID.TID 0000.0001)                   F
(PID.TID 0000.0001)     ;
(PID.TID 0000.0001) saltSOM_Advection = /* use 2nd Order Moment Advection for Salt */
(PID.TID 0000.0001)                   F
(PID.TID 0000.0001)     ;
(PID.TID 0000.0001) AdamsBashforthGs = /* apply Adams-Bashforth extrapolation on Gs */
(PID.TID 0000.0001)                   T
(PID.TID 0000.0001)     ;
(PID.TID 0000.0001) AdamsBashforth_S = /* apply Adams-Bashforth extrapolation on Salt */
(PID.TID 0000.0001)                   F
(PID.TID 0000.0001)     ;
(PID.TID 0000.0001) // ===================================
(PID.TID 0000.0001)  MDS_READ_FIELD: opening global file: frontcircum.xuyun
(PID.TID 0000.0001)  MDS_READ_FIELD: opening global file: frontdepth.xuyun
(PID.TID 0000.0001) ------------------------------------------------------------
(PID.TID 0000.0001) DIAGNOSTICS_SET_LEVELS: done
(PID.TID 0000.0001)  Total Nb of available Diagnostics: ndiagt=   198
(PID.TID 0000.0001)  write list of available Diagnostics to file: available_diagnostics.log
(PID.TID 0000.0001) SETDIAG: Allocate  1 x  1 Levels for Diagnostic #   189 SHIfwFlx
(PID.TID 0000.0001) SETDIAG: Allocate  1 x  1 Levels for Diagnostic #   190 SHIhtFlx
(PID.TID 0000.0001) SETDIAG: Allocate 30 x  1 Levels for Diagnostic #   197 ICFfwFlx
(PID.TID 0000.0001) SETDIAG: Allocate 30 x  1 Levels for Diagnostic #   198 ICFhtFlx
(PID.TID 0000.0001)   space allocated for all diagnostics:      62 levels
(PID.TID 0000.0001) DIAGNOSTICS_SET_POINTERS: Set levels for Outp.Stream: shelficeDiag
(PID.TID 0000.0001)  Levels:       1.
(PID.TID 0000.0001) DIAGNOSTICS_SET_POINTERS: Set levels for Outp.Stream: icefrontDiag
(PID.TID 0000.0001)  Levels:       1.   2.   3.   4.   5.   6.   7.   8.   9.  10.  11.  12.  13.  14.  15.  16.  17.  18.  19.  20.
(PID.TID 0000.0001)  Levels:      21.  22.  23.  24.  25.  26.  27.  28.  29.  30.
(PID.TID 0000.0001) DIAGNOSTICS_SET_POINTERS: done
(PID.TID 0000.0001) ------------------------------------------------------------
(PID.TID 0000.0001) DIAGSTATS_SET_REGIONS: define no region
(PID.TID 0000.0001) ------------------------------------------------------------
(PID.TID 0000.0001)   space allocated for all stats-diags:       0 levels
(PID.TID 0000.0001) DIAGSTATS_SET_POINTERS: done
(PID.TID 0000.0001) ------------------------------------------------------------
(PID.TID 0000.0001) %MON fCori_max                    =  -1.3709057042516E-04
(PID.TID 0000.0001) %MON fCori_min                    =  -1.4360464034757E-04
(PID.TID 0000.0001) %MON fCori_mean                   =  -1.4069429304699E-04
(PID.TID 0000.0001) %MON fCori_sd                     =   1.9069739624987E-06
(PID.TID 0000.0001) %MON fCoriG_max                   =  -1.3713394327439E-04
(PID.TID 0000.0001) %MON fCoriG_min                   =  -1.4362679550910E-04
(PID.TID 0000.0001) %MON fCoriG_mean                  =  -1.4072713798624E-04
(PID.TID 0000.0001) %MON fCoriG_sd                    =   1.9008093726821E-06
(PID.TID 0000.0001) %MON fCoriCos_max                 =   4.9761447480159E-05
(PID.TID 0000.0001) %MON fCoriCos_min                 =   2.5450607565678E-05
(PID.TID 0000.0001) %MON fCoriCos_mean                =   3.7698922201606E-05
(PID.TID 0000.0001) %MON fCoriCos_sd                  =   7.0920218535054E-06
(PID.TID 0000.0001) INI_CG2D: CG2D normalisation factor =  8.6553958581495505E-04
(PID.TID 0000.0001) 
(PID.TID 0000.0001) // =======================================================
(PID.TID 0000.0001) // Model configuration
(PID.TID 0000.0001) // =======================================================
(PID.TID 0000.0001) //
(PID.TID 0000.0001) // "Physical" paramters ( PARM01 in namelist )
(PID.TID 0000.0001) //
(PID.TID 0000.0001) buoyancyRelation = /* Type of relation to get Buoyancy */
(PID.TID 0000.0001)               'OCEANIC'
(PID.TID 0000.0001)     ;
(PID.TID 0000.0001) fluidIsAir   =  /* fluid major constituent is Air */
(PID.TID 0000.0001)                   F
(PID.TID 0000.0001)     ;
(PID.TID 0000.0001) fluidIsWater =  /* fluid major constituent is Water */
(PID.TID 0000.0001)                   T
(PID.TID 0000.0001)     ;
(PID.TID 0000.0001) usingPCoords =  /* use p (or p*) vertical coordinate */
(PID.TID 0000.0001)                   F
(PID.TID 0000.0001)     ;
(PID.TID 0000.0001) usingZCoords =  /* use z (or z*) vertical coordinate */
(PID.TID 0000.0001)                   T
(PID.TID 0000.0001)     ;
(PID.TID 0000.0001) tRef =   /* Reference temperature profile ( oC or K ) */
(PID.TID 0000.0001)    30 @ -1.900000000000000E+00              /* K =  1: 30 */
(PID.TID 0000.0001)     ;
(PID.TID 0000.0001) sRef =   /* Reference salinity profile ( psu ) */
(PID.TID 0000.0001)    30 @  3.440000000000000E+01              /* K =  1: 30 */
(PID.TID 0000.0001)     ;
(PID.TID 0000.0001) viscAh  =   /* Lateral eddy viscosity ( m^2/s ) */
(PID.TID 0000.0001)                 6.000000000000000E+02
(PID.TID 0000.0001)     ;
(PID.TID 0000.0001) viscAhMax = /* Maximum lateral eddy viscosity ( m^2/s ) */
(PID.TID 0000.0001)                 1.000000000000000E+21
(PID.TID 0000.0001)     ;
(PID.TID 0000.0001) viscAhGrid = /* Grid dependent lateral eddy viscosity ( non-dim. ) */
(PID.TID 0000.0001)                 0.000000000000000E+00
(PID.TID 0000.0001)     ;
(PID.TID 0000.0001) useFullLeith = /* Use Full Form of Leith Viscosity on/off flag*/
(PID.TID 0000.0001)                   F
(PID.TID 0000.0001)     ;
(PID.TID 0000.0001) useStrainTensionVisc= /* Use StrainTension Form of Viscous Operator flag*/
(PID.TID 0000.0001)                   F
(PID.TID 0000.0001)     ;
(PID.TID 0000.0001) useAreaViscLength = /* Use area for visc length instead of geom. mean*/
(PID.TID 0000.0001)                   F
(PID.TID 0000.0001)     ;
(PID.TID 0000.0001) viscC2leith = /* Leith harmonic visc. factor (on grad(vort),non-dim.) */
(PID.TID 0000.0001)                 0.000000000000000E+00
(PID.TID 0000.0001)     ;
(PID.TID 0000.0001) viscC2leithD = /* Leith harmonic viscosity factor (on grad(div),non-dim.)*/
(PID.TID 0000.0001)                 0.000000000000000E+00
(PID.TID 0000.0001)     ;
(PID.TID 0000.0001) viscC2smag = /* Smagorinsky harmonic viscosity factor (non-dim.) */
(PID.TID 0000.0001)                 0.000000000000000E+00
(PID.TID 0000.0001)     ;
(PID.TID 0000.0001) viscA4  =   /* Lateral biharmonic viscosity ( m^4/s ) */
(PID.TID 0000.0001)                 0.000000000000000E+00
(PID.TID 0000.0001)     ;
(PID.TID 0000.0001) viscA4Max = /* Maximum biharmonic viscosity ( m^2/s ) */
(PID.TID 0000.0001)                 1.000000000000000E+21
(PID.TID 0000.0001)     ;
(PID.TID 0000.0001) viscA4Grid = /* Grid dependent biharmonic viscosity ( non-dim. ) */
(PID.TID 0000.0001)                 0.000000000000000E+00
(PID.TID 0000.0001)     ;
(PID.TID 0000.0001) viscC4leith = /* Leith biharm viscosity factor (on grad(vort), non-dim.)*/
(PID.TID 0000.0001)                 0.000000000000000E+00
(PID.TID 0000.0001)     ;
(PID.TID 0000.0001) viscC4leithD = /* Leith biharm viscosity factor (on grad(div), non-dim.) */
(PID.TID 0000.0001)                 0.000000000000000E+00
(PID.TID 0000.0001)     ;
(PID.TID 0000.0001) viscC4Smag = /* Smagorinsky biharm viscosity factor (non-dim) */
(PID.TID 0000.0001)                 0.000000000000000E+00
(PID.TID 0000.0001)     ;
(PID.TID 0000.0001) no_slip_sides =  /* Viscous BCs: No-slip sides */
(PID.TID 0000.0001)                   F
(PID.TID 0000.0001)     ;
(PID.TID 0000.0001) sideDragFactor = /* side-drag scaling factor (non-dim) */
(PID.TID 0000.0001)                 2.000000000000000E+00
(PID.TID 0000.0001)     ;
(PID.TID 0000.0001) viscArNr = /* vertical profile of vertical viscosity ( m^2/s )*/
(PID.TID 0000.0001)    30 @  1.000000000000000E-03              /* K =  1: 30 */
(PID.TID 0000.0001)     ;
(PID.TID 0000.0001) no_slip_bottom =  /* Viscous BCs: No-slip bottom */
(PID.TID 0000.0001)                   F
(PID.TID 0000.0001)     ;
(PID.TID 0000.0001) bottomDragLinear = /* linear bottom-drag coefficient ( m/s ) */
(PID.TID 0000.0001)                 0.000000000000000E+00
(PID.TID 0000.0001)     ;
(PID.TID 0000.0001) bottomDragQuadratic = /* quadratic bottom-drag coefficient (-) */
(PID.TID 0000.0001)                 2.500000000000000E-03
(PID.TID 0000.0001)     ;
(PID.TID 0000.0001) diffKhT =   /* Laplacian diffusion of heat laterally ( m^2/s ) */
(PID.TID 0000.0001)                 1.000000000000000E+02
(PID.TID 0000.0001)     ;
(PID.TID 0000.0001) diffK4T =   /* Biharmonic diffusion of heat laterally ( m^4/s ) */
(PID.TID 0000.0001)                 0.000000000000000E+00
(PID.TID 0000.0001)     ;
(PID.TID 0000.0001) diffKhS =   /* Laplacian diffusion of salt laterally ( m^2/s ) */
(PID.TID 0000.0001)                 1.000000000000000E+02
(PID.TID 0000.0001)     ;
(PID.TID 0000.0001) diffK4S =   /* Biharmonic diffusion of salt laterally ( m^4/s ) */
(PID.TID 0000.0001)                 0.000000000000000E+00
(PID.TID 0000.0001)     ;
(PID.TID 0000.0001) diffKrNrT = /* vertical profile of vertical diffusion of Temp ( m^2/s )*/
(PID.TID 0000.0001)    30 @  5.000000000000000E-05              /* K =  1: 30 */
(PID.TID 0000.0001)     ;
(PID.TID 0000.0001) diffKrNrS = /* vertical profile of vertical diffusion of Salt ( m^2/s )*/
(PID.TID 0000.0001)    30 @  5.000000000000000E-05              /* K =  1: 30 */
(PID.TID 0000.0001)     ;
(PID.TID 0000.0001) diffKrBL79surf = /* Surface diffusion for Bryan and Lewis 79 ( m^2/s ) */
(PID.TID 0000.0001)                 0.000000000000000E+00
(PID.TID 0000.0001)     ;
(PID.TID 0000.0001) diffKrBL79deep = /* Deep diffusion for Bryan and Lewis 1979 ( m^2/s ) */
(PID.TID 0000.0001)                 0.000000000000000E+00
(PID.TID 0000.0001)     ;
(PID.TID 0000.0001) diffKrBL79scl = /* Depth scale for Bryan and Lewis 1979 ( m ) */
(PID.TID 0000.0001)                 2.000000000000000E+02
(PID.TID 0000.0001)     ;
(PID.TID 0000.0001) diffKrBL79Ho = /* Turning depth for Bryan and Lewis 1979 ( m ) */
(PID.TID 0000.0001)                -2.000000000000000E+03
(PID.TID 0000.0001)     ;
(PID.TID 0000.0001) ivdc_kappa = /* Implicit Vertical Diffusivity for Convection ( m^2/s) */
(PID.TID 0000.0001)                 0.000000000000000E+00
(PID.TID 0000.0001)     ;
(PID.TID 0000.0001) hMixCriteria=  /* Criteria for mixed-layer diagnostic */
(PID.TID 0000.0001)                -8.000000000000000E-01
(PID.TID 0000.0001)     ;
(PID.TID 0000.0001) dRhoSmall =  /* Parameter for mixed-layer diagnostic */
(PID.TID 0000.0001)                 1.000000000000000E-06
(PID.TID 0000.0001)     ;
(PID.TID 0000.0001) hMixSmooth=  /* Smoothing parameter for mixed-layer diagnostic */
(PID.TID 0000.0001)                 0.000000000000000E+00
(PID.TID 0000.0001)     ;
(PID.TID 0000.0001) eosType =  /* Type of Equation of State */
(PID.TID 0000.0001)               'JMD95Z'
(PID.TID 0000.0001)     ;
(PID.TID 0000.0001) celsius2K = /* 0 degree Celsius converted to Kelvin ( K ) */
(PID.TID 0000.0001)                 2.731500000000000E+02
(PID.TID 0000.0001)     ;
(PID.TID 0000.0001) rhoConst  = /* Reference density (Boussinesq)  ( kg/m^3 ) */
(PID.TID 0000.0001)                 1.030000000000000E+03
(PID.TID 0000.0001)     ;
(PID.TID 0000.0001) rhoFacC = /* normalized Reference density @ cell-Center (-) */
(PID.TID 0000.0001)    30 @  1.000000000000000E+00              /* K =  1: 30 */
(PID.TID 0000.0001)     ;
(PID.TID 0000.0001) rhoFacF = /* normalized Reference density @ W-Interface (-) */
(PID.TID 0000.0001)    31 @  1.000000000000000E+00              /* K =  1: 31 */
(PID.TID 0000.0001)     ;
(PID.TID 0000.0001) rhoConstFresh = /* Fresh-water reference density ( kg/m^3 ) */
(PID.TID 0000.0001)                 1.030000000000000E+03
(PID.TID 0000.0001)     ;
(PID.TID 0000.0001) gravity =   /* Gravitational acceleration ( m/s^2 ) */
(PID.TID 0000.0001)                 9.810000000000000E+00
(PID.TID 0000.0001)     ;
(PID.TID 0000.0001) gBaro =   /* Barotropic gravity ( m/s^2 ) */
(PID.TID 0000.0001)                 9.810000000000000E+00
(PID.TID 0000.0001)     ;
(PID.TID 0000.0001) rotationPeriod =   /* Rotation Period ( s ) */
(PID.TID 0000.0001)                 8.616400000000000E+04
(PID.TID 0000.0001)     ;
(PID.TID 0000.0001) omega =   /* Angular velocity ( rad/s ) */
(PID.TID 0000.0001)                 7.292123516990375E-05
(PID.TID 0000.0001)     ;
(PID.TID 0000.0001) f0 =   /* Reference coriolis parameter ( 1/s ) */
(PID.TID 0000.0001)                 1.000000000000000E-04
(PID.TID 0000.0001)     ;
(PID.TID 0000.0001) beta =   /* Beta ( 1/(m.s) ) */
(PID.TID 0000.0001)                 9.999999999999999E-12
(PID.TID 0000.0001)     ;
(PID.TID 0000.0001) fPrime =   /* Second coriolis parameter ( 1/s ) */
(PID.TID 0000.0001)                 0.000000000000000E+00
(PID.TID 0000.0001)     ;
(PID.TID 0000.0001) rigidLid =   /* Rigid lid on/off flag */
(PID.TID 0000.0001)                   F
(PID.TID 0000.0001)     ;
(PID.TID 0000.0001) implicitFreeSurface =   /* Implicit free surface on/off flag */
(PID.TID 0000.0001)                   T
(PID.TID 0000.0001)     ;
(PID.TID 0000.0001) freeSurfFac =   /* Implicit free surface factor */
(PID.TID 0000.0001)                 1.000000000000000E+00
(PID.TID 0000.0001)     ;
(PID.TID 0000.0001) implicSurfPress =  /* Surface Pressure implicit factor (0-1)*/
(PID.TID 0000.0001)                 1.000000000000000E+00
(PID.TID 0000.0001)     ;
(PID.TID 0000.0001) implicDiv2Dflow =  /* Barot. Flow Div. implicit factor (0-1)*/
(PID.TID 0000.0001)                 1.000000000000000E+00
(PID.TID 0000.0001)     ;
(PID.TID 0000.0001) uniformLin_PhiSurf = /* use uniform Bo_surf on/off flag*/
(PID.TID 0000.0001)                   T
(PID.TID 0000.0001)     ;
(PID.TID 0000.0001) uniformFreeSurfLev = /* free-surface level-index is uniform */
(PID.TID 0000.0001)                   F
(PID.TID 0000.0001)     ;
(PID.TID 0000.0001) hFacMin =   /* minimum partial cell factor (hFac) */
(PID.TID 0000.0001)                 5.000000000000000E-02
(PID.TID 0000.0001)     ;
(PID.TID 0000.0001) hFacMinDr = /* minimum partial cell thickness ( m) */
(PID.TID 0000.0001)                 5.000000000000000E-02
(PID.TID 0000.0001)     ;
(PID.TID 0000.0001) exactConserv =  /* Exact Volume Conservation on/off flag*/
(PID.TID 0000.0001)                   T
(PID.TID 0000.0001)     ;
(PID.TID 0000.0001) linFSConserveTr = /* Tracer correction for Lin Free Surface on/off flag*/
(PID.TID 0000.0001)                   F
(PID.TID 0000.0001)     ;
(PID.TID 0000.0001) nonlinFreeSurf = /* Non-linear Free Surf. options (-1,0,1,2,3)*/
(PID.TID 0000.0001)                       0
(PID.TID 0000.0001)      -1,0= Off ; 1,2,3= On, 2=+rescale gU,gV, 3=+update cg2d solv.
(PID.TID 0000.0001)     ;
(PID.TID 0000.0001) hFacInf =   /* lower threshold for hFac (nonlinFreeSurf only)*/
(PID.TID 0000.0001)                 2.000000000000000E-01
(PID.TID 0000.0001)     ;
(PID.TID 0000.0001) hFacSup =   /* upper threshold for hFac (nonlinFreeSurf only)*/
(PID.TID 0000.0001)                 2.000000000000000E+00
(PID.TID 0000.0001)     ;
(PID.TID 0000.0001) select_rStar = /* r* Vertical coord. options (=0 r coord.; >0 uses r*)*/
(PID.TID 0000.0001)                       0
(PID.TID 0000.0001)     ;
(PID.TID 0000.0001) useRealFreshWaterFlux = /* Real Fresh Water Flux on/off flag*/
(PID.TID 0000.0001)                   F
(PID.TID 0000.0001)     ;
(PID.TID 0000.0001) temp_EvPrRn = /* Temp. of Evap/Prec/R (UNSET=use local T)(oC)*/
(PID.TID 0000.0001)                 1.234567000000000E+05
(PID.TID 0000.0001)     ;
(PID.TID 0000.0001) salt_EvPrRn = /* Salin. of Evap/Prec/R (UNSET=use local S)(psu)*/
(PID.TID 0000.0001)                 0.000000000000000E+00
(PID.TID 0000.0001)     ;
(PID.TID 0000.0001) selectAddFluid = /* option for mass source/sink of fluid (=0: off) */
(PID.TID 0000.0001)                       0
(PID.TID 0000.0001)     ;
(PID.TID 0000.0001) temp_addMass = /* Temp. of addMass array (UNSET=use local T)(oC)*/
(PID.TID 0000.0001)                 1.234567000000000E+05
(PID.TID 0000.0001)     ;
(PID.TID 0000.0001) salt_addMass = /* Salin. of addMass array (UNSET=use local S)(psu)*/
(PID.TID 0000.0001)                 0.000000000000000E+00
(PID.TID 0000.0001)     ;
(PID.TID 0000.0001) convertFW2Salt = /* convert F.W. Flux to Salt Flux (-1=use local S)(psu)*/
(PID.TID 0000.0001)                 3.340000000000000E+01
(PID.TID 0000.0001)     ;
(PID.TID 0000.0001) use3Dsolver = /* use 3-D pressure solver on/off flag */
(PID.TID 0000.0001)                   F
(PID.TID 0000.0001)     ;
(PID.TID 0000.0001) nonHydrostatic =  /* Non-Hydrostatic on/off flag */
(PID.TID 0000.0001)                   F
(PID.TID 0000.0001)     ;
(PID.TID 0000.0001) nh_Am2 = /* Non-Hydrostatic terms scaling factor */
(PID.TID 0000.0001)                 1.000000000000000E+00
(PID.TID 0000.0001)     ;
(PID.TID 0000.0001) implicitNHPress = /* Non-Hyd Pressure implicit factor (0-1)*/
(PID.TID 0000.0001)                 1.000000000000000E+00
(PID.TID 0000.0001)     ;
(PID.TID 0000.0001) selectNHfreeSurf = /* Non-Hyd (free-)Surface option */
(PID.TID 0000.0001)                       0
(PID.TID 0000.0001)     ;
(PID.TID 0000.0001) quasiHydrostatic = /* Quasi-Hydrostatic on/off flag */
(PID.TID 0000.0001)                   F
(PID.TID 0000.0001)     ;
(PID.TID 0000.0001) calc_wVelocity = /* vertical velocity calculation on/off flag */
(PID.TID 0000.0001)                   T
(PID.TID 0000.0001)     ;
(PID.TID 0000.0001) momStepping =  /* Momentum equation on/off flag */
(PID.TID 0000.0001)                   T
(PID.TID 0000.0001)     ;
(PID.TID 0000.0001) vectorInvariantMomentum= /* Vector-Invariant Momentum on/off */
(PID.TID 0000.0001)                   F
(PID.TID 0000.0001)     ;
(PID.TID 0000.0001) momAdvection =  /* Momentum advection on/off flag */
(PID.TID 0000.0001)                   T
(PID.TID 0000.0001)     ;
(PID.TID 0000.0001) momViscosity =  /* Momentum viscosity on/off flag */
(PID.TID 0000.0001)                   T
(PID.TID 0000.0001)     ;
(PID.TID 0000.0001) momImplVertAdv= /* Momentum implicit vert. advection on/off*/
(PID.TID 0000.0001)                   F
(PID.TID 0000.0001)     ;
(PID.TID 0000.0001) implicitViscosity = /* Implicit viscosity on/off flag */
(PID.TID 0000.0001)                   F
(PID.TID 0000.0001)     ;
(PID.TID 0000.0001) metricTerms =  /* metric-Terms on/off flag */
(PID.TID 0000.0001)                   T
(PID.TID 0000.0001)     ;
(PID.TID 0000.0001) useNHMTerms = /* Non-Hydrostatic Metric-Terms on/off */
(PID.TID 0000.0001)                   F
(PID.TID 0000.0001)     ;
(PID.TID 0000.0001) selectCoriMap = /* Coriolis Map options (0,1,2,3)*/
(PID.TID 0000.0001)                       2
(PID.TID 0000.0001)     0= f-Plane ; 1= Beta-Plane ; 2= Spherical ; 3= read from file
(PID.TID 0000.0001)     ;
(PID.TID 0000.0001) use3dCoriolis = /* 3-D Coriolis on/off flag */
(PID.TID 0000.0001)                   F
(PID.TID 0000.0001)     ;
(PID.TID 0000.0001) useCoriolis =  /* Coriolis on/off flag */
(PID.TID 0000.0001)                   T
(PID.TID 0000.0001)     ;
(PID.TID 0000.0001) useCDscheme =  /* CD scheme on/off flag */
(PID.TID 0000.0001)                   T
(PID.TID 0000.0001)     ;
(PID.TID 0000.0001) useEnergyConservingCoriolis= /* Flx-Form Coriolis scheme flag */
(PID.TID 0000.0001)                   F
(PID.TID 0000.0001)     ;
(PID.TID 0000.0001) useJamartWetPoints= /* Coriolis WetPoints method flag */
(PID.TID 0000.0001)                   F
(PID.TID 0000.0001)     ;
(PID.TID 0000.0001) useJamartMomAdv= /* V.I Non-linear terms Jamart flag */
(PID.TID 0000.0001)                   F
(PID.TID 0000.0001)     ;
(PID.TID 0000.0001) useAbsVorticity= /* V.I Works with f+zeta in Coriolis */
(PID.TID 0000.0001)                   F
(PID.TID 0000.0001)     ;
(PID.TID 0000.0001) selectVortScheme= /* V.I Scheme selector for Vorticity-Term */
(PID.TID 0000.0001)               123456789
(PID.TID 0000.0001)    = 0 : enstrophy (Shallow-Water Eq.) conserving scheme by Sadourny, JAS 75
(PID.TID 0000.0001)    = 1 : same as 0 with modified hFac
(PID.TID 0000.0001)    = 2 : energy conserving scheme (used by Sadourny in JAS 75 paper)
(PID.TID 0000.0001)    = 3 : energy (general) and enstrophy (2D, nonDiv.) conserving scheme
(PID.TID 0000.0001)          from Sadourny (Burridge & Haseler, ECMWF Rep.4, 1977)
(PID.TID 0000.0001)     ;
(PID.TID 0000.0001) upwindVorticity= /* V.I Upwind bias vorticity flag */
(PID.TID 0000.0001)                   F
(PID.TID 0000.0001)     ;
(PID.TID 0000.0001) highOrderVorticity= /* V.I High order vort. advect. flag */
(PID.TID 0000.0001)                   F
(PID.TID 0000.0001)     ;
(PID.TID 0000.0001) upwindShear= /* V.I Upwind vertical Shear advection flag */
(PID.TID 0000.0001)                   F
(PID.TID 0000.0001)     ;
(PID.TID 0000.0001) selectKEscheme= /* V.I Kinetic Energy scheme selector */
(PID.TID 0000.0001)                       0
(PID.TID 0000.0001)     ;
(PID.TID 0000.0001) momForcing =  /* Momentum forcing on/off flag */
(PID.TID 0000.0001)                   T
(PID.TID 0000.0001)     ;
(PID.TID 0000.0001) momPressureForcing =  /* Momentum pressure term on/off flag */
(PID.TID 0000.0001)                   T
(PID.TID 0000.0001)     ;
(PID.TID 0000.0001) implicitIntGravWave= /* Implicit Internal Gravity Wave flag */
(PID.TID 0000.0001)                   F
(PID.TID 0000.0001)     ;
(PID.TID 0000.0001) staggerTimeStep =    /* Stagger time stepping on/off flag */
(PID.TID 0000.0001)                   F
(PID.TID 0000.0001)     ;
(PID.TID 0000.0001) doResetHFactors = /* reset thickness factors @ each time-step */
(PID.TID 0000.0001)                   F
(PID.TID 0000.0001)     ;
(PID.TID 0000.0001) multiDimAdvection =  /* enable/disable Multi-Dim Advection */
(PID.TID 0000.0001)                   T
(PID.TID 0000.0001)     ;
(PID.TID 0000.0001) useMultiDimAdvec =   /* Multi-Dim Advection is/is-not used */
(PID.TID 0000.0001)                   F
(PID.TID 0000.0001)     ;
(PID.TID 0000.0001) implicitDiffusion = /* Implicit Diffusion on/off flag */
(PID.TID 0000.0001)                   F
(PID.TID 0000.0001)     ;
(PID.TID 0000.0001) tempStepping =  /* Temperature equation on/off flag */
(PID.TID 0000.0001)                   T
(PID.TID 0000.0001)     ;
(PID.TID 0000.0001) tempAdvection=  /* Temperature advection on/off flag */
(PID.TID 0000.0001)                   T
(PID.TID 0000.0001)     ;
(PID.TID 0000.0001) tempImplVertAdv = /* Temp. implicit vert. advection on/off */
(PID.TID 0000.0001)                   F
(PID.TID 0000.0001)     ;
(PID.TID 0000.0001) tempForcing  =  /* Temperature forcing on/off flag */
(PID.TID 0000.0001)                   T
(PID.TID 0000.0001)     ;
(PID.TID 0000.0001) tempIsActiveTr = /* Temp. is a dynamically Active Tracer */
(PID.TID 0000.0001)                   T
(PID.TID 0000.0001)     ;
(PID.TID 0000.0001) saltStepping =  /* Salinity equation on/off flag */
(PID.TID 0000.0001)                   T
(PID.TID 0000.0001)     ;
(PID.TID 0000.0001) saltAdvection=  /* Salinity advection on/off flag */
(PID.TID 0000.0001)                   T
(PID.TID 0000.0001)     ;
(PID.TID 0000.0001) saltImplVertAdv = /* Sali. implicit vert. advection on/off */
(PID.TID 0000.0001)                   F
(PID.TID 0000.0001)     ;
(PID.TID 0000.0001) saltForcing  =  /* Salinity forcing on/off flag */
(PID.TID 0000.0001)                   T
(PID.TID 0000.0001)     ;
(PID.TID 0000.0001) saltIsActiveTr = /* Salt  is a dynamically Active Tracer */
(PID.TID 0000.0001)                   T
(PID.TID 0000.0001)     ;
(PID.TID 0000.0001)  readBinaryPrec = /* Precision used for reading binary files */
(PID.TID 0000.0001)                      64
(PID.TID 0000.0001)     ;
(PID.TID 0000.0001) writeBinaryPrec = /* Precision used for writing binary files */
(PID.TID 0000.0001)                      32
(PID.TID 0000.0001)     ;
(PID.TID 0000.0001)  globalFiles = /* write "global" (=not per tile) files */
(PID.TID 0000.0001)                   F
(PID.TID 0000.0001)     ;
(PID.TID 0000.0001)  useSingleCpuIO = /* only master MPI process does I/O */
(PID.TID 0000.0001)                   F
(PID.TID 0000.0001)     ;
(PID.TID 0000.0001) /* debLev[*]  : level of debug & auxiliary message printing */
(PID.TID 0000.0001) debLevZero =  0 ; /* level of disabled aux. msg printing */
(PID.TID 0000.0001)    debLevA =  1 ; /* level of minimum  aux. msg printing */
(PID.TID 0000.0001)    debLevB =  2 ; /* level of low aux. print (report read-file opening)*/
(PID.TID 0000.0001)    debLevC =  3 ; /* level of moderate debug prt (most pkgs debug msg) */
(PID.TID 0000.0001)    debLevD =  4 ; /* level of enhanced debug prt (add DEBUG_STATS prt) */
(PID.TID 0000.0001)    debLevE =  5 ; /* level of extensive debug printing */
(PID.TID 0000.0001) debugLevel =  /* select debug printing level */
(PID.TID 0000.0001)                       2
(PID.TID 0000.0001)     ;
(PID.TID 0000.0001) //
(PID.TID 0000.0001) // Elliptic solver(s) paramters ( PARM02 in namelist )
(PID.TID 0000.0001) //
(PID.TID 0000.0001) cg2dMaxIters =   /* Upper limit on 2d con. grad iterations  */
(PID.TID 0000.0001)                    1000
(PID.TID 0000.0001)     ;
(PID.TID 0000.0001) cg2dChkResFreq =   /* 2d con. grad convergence test frequency */
(PID.TID 0000.0001)                       1
(PID.TID 0000.0001)     ;
(PID.TID 0000.0001) cg2dTargetResidual =   /* 2d con. grad target residual  */
(PID.TID 0000.0001)                 1.000000000000000E-13
(PID.TID 0000.0001)     ;
(PID.TID 0000.0001) cg2dTargetResWunit =   /* CG2d target residual [W units] */
(PID.TID 0000.0001)                -1.000000000000000E+00
(PID.TID 0000.0001)     ;
(PID.TID 0000.0001) cg2dPreCondFreq =   /* Freq. for updating cg2d preconditioner */
(PID.TID 0000.0001)                       1
(PID.TID 0000.0001)     ;
(PID.TID 0000.0001) useSRCGSolver =  /* use single reduction CG solver(s) */
(PID.TID 0000.0001)                   F
(PID.TID 0000.0001)     ;
(PID.TID 0000.0001) printResidualFreq = /* Freq. for printing CG residual */
(PID.TID 0000.0001)                       0
(PID.TID 0000.0001)     ;
(PID.TID 0000.0001) //
(PID.TID 0000.0001) // Time stepping paramters ( PARM03 in namelist )
(PID.TID 0000.0001) //
(PID.TID 0000.0001) deltaTmom =   /* Momentum equation timestep ( s ) */
(PID.TID 0000.0001)                 1.800000000000000E+03
(PID.TID 0000.0001)     ;
(PID.TID 0000.0001) deltaTfreesurf = /* FreeSurface equation timestep ( s ) */
(PID.TID 0000.0001)                 1.800000000000000E+03
(PID.TID 0000.0001)     ;
(PID.TID 0000.0001) dTtracerLev =  /* Tracer equation timestep ( s ) */
(PID.TID 0000.0001)    30 @  1.800000000000000E+03              /* K =  1: 30 */
(PID.TID 0000.0001)     ;
(PID.TID 0000.0001) deltaTClock  =   /* Model clock timestep ( s ) */
(PID.TID 0000.0001)                 1.800000000000000E+03
(PID.TID 0000.0001)     ;
(PID.TID 0000.0001) cAdjFreq =   /* Convective adjustment interval ( s ) */
(PID.TID 0000.0001)                 1.800000000000000E+03
(PID.TID 0000.0001)     ;
(PID.TID 0000.0001) momForcingOutAB = /* =1: take Momentum Forcing out of Adams-Bash. stepping */
(PID.TID 0000.0001)                       0
(PID.TID 0000.0001)     ;
(PID.TID 0000.0001) tracForcingOutAB = /* =1: take T,S,pTr Forcing out of Adams-Bash. stepping */
(PID.TID 0000.0001)                       0
(PID.TID 0000.0001)     ;
(PID.TID 0000.0001) momDissip_In_AB = /* put Dissipation Tendency in Adams-Bash. stepping */
(PID.TID 0000.0001)                   T
(PID.TID 0000.0001)     ;
(PID.TID 0000.0001) doAB_onGtGs = /* apply AB on Tendencies (rather than on T,S)*/
(PID.TID 0000.0001)                   T
(PID.TID 0000.0001)     ;
(PID.TID 0000.0001) abEps =   /* Adams-Bashforth-2 stabilizing weight */
(PID.TID 0000.0001)                 1.000000000000000E-01
(PID.TID 0000.0001)     ;
(PID.TID 0000.0001) tauCD =   /* CD coupling time-scale ( s ) */
(PID.TID 0000.0001)                 4.000000000000000E+05
(PID.TID 0000.0001)     ;
(PID.TID 0000.0001) rCD =   /* Normalised CD coupling parameter */
(PID.TID 0000.0001)                 9.955000000000001E-01
(PID.TID 0000.0001)     ;
(PID.TID 0000.0001) epsAB_CD = /* AB-2 stabilizing weight for CD-scheme*/
(PID.TID 0000.0001)                 1.000000000000000E-01
(PID.TID 0000.0001)     ;
(PID.TID 0000.0001) pickupStrictlyMatch= /* stop if pickup do not strictly match */
(PID.TID 0000.0001)                   T
(PID.TID 0000.0001)     ;
(PID.TID 0000.0001) nIter0   =   /* Run starting timestep number */
(PID.TID 0000.0001)                       0
(PID.TID 0000.0001)     ;
(PID.TID 0000.0001) nTimeSteps = /* Number of timesteps */
(PID.TID 0000.0001)                      20
(PID.TID 0000.0001)     ;
(PID.TID 0000.0001) nEndIter =   /* Run ending timestep number */
(PID.TID 0000.0001)                      20
(PID.TID 0000.0001)     ;
(PID.TID 0000.0001) baseTime =   /* Model base time ( s ) */
(PID.TID 0000.0001)                 0.000000000000000E+00
(PID.TID 0000.0001)     ;
(PID.TID 0000.0001) startTime =  /* Run start time ( s ) */
(PID.TID 0000.0001)                 0.000000000000000E+00
(PID.TID 0000.0001)     ;
(PID.TID 0000.0001) endTime  =   /* Integration ending time ( s ) */
(PID.TID 0000.0001)                 3.600000000000000E+04
(PID.TID 0000.0001)     ;
(PID.TID 0000.0001) pChkPtFreq = /* Permanent restart/pickup file interval ( s ) */
(PID.TID 0000.0001)                 0.000000000000000E+00
(PID.TID 0000.0001)     ;
(PID.TID 0000.0001) chkPtFreq  = /* Rolling restart/pickup file interval ( s ) */
(PID.TID 0000.0001)                 0.000000000000000E+00
(PID.TID 0000.0001)     ;
(PID.TID 0000.0001) pickup_write_mdsio =   /* Model IO flag. */
(PID.TID 0000.0001)                   T
(PID.TID 0000.0001)     ;
(PID.TID 0000.0001) pickup_read_mdsio =   /* Model IO flag. */
(PID.TID 0000.0001)                   T
(PID.TID 0000.0001)     ;
(PID.TID 0000.0001) pickup_write_mnc =   /* Model IO flag. */
(PID.TID 0000.0001)                   F
(PID.TID 0000.0001)     ;
(PID.TID 0000.0001) pickup_read_mnc =   /* Model IO flag. */
(PID.TID 0000.0001)                   F
(PID.TID 0000.0001)     ;
(PID.TID 0000.0001) pickup_write_immed =   /* Model IO flag. */
(PID.TID 0000.0001)                   F
(PID.TID 0000.0001)     ;
(PID.TID 0000.0001) writePickupAtEnd =   /* Model IO flag. */
(PID.TID 0000.0001)                   T
(PID.TID 0000.0001)     ;
(PID.TID 0000.0001) dumpFreq =   /* Model state write out interval ( s ). */
(PID.TID 0000.0001)                 0.000000000000000E+00
(PID.TID 0000.0001)     ;
(PID.TID 0000.0001) dumpInitAndLast= /* write out Initial & Last iter. model state */
(PID.TID 0000.0001)                   T
(PID.TID 0000.0001)     ;
(PID.TID 0000.0001) snapshot_mdsio =   /* Model IO flag. */
(PID.TID 0000.0001)                   T
(PID.TID 0000.0001)     ;
(PID.TID 0000.0001) snapshot_mnc =   /* Model IO flag. */
(PID.TID 0000.0001)                   F
(PID.TID 0000.0001)     ;
(PID.TID 0000.0001) monitorFreq =   /* Monitor output interval ( s ). */
(PID.TID 0000.0001)                 1.000000000000000E+00
(PID.TID 0000.0001)     ;
(PID.TID 0000.0001) monitorSelect = /* select group of variables to monitor */
(PID.TID 0000.0001)                       2
(PID.TID 0000.0001)     ;
(PID.TID 0000.0001) monitor_stdio =   /* Model IO flag. */
(PID.TID 0000.0001)                   T
(PID.TID 0000.0001)     ;
(PID.TID 0000.0001) monitor_mnc =   /* Model IO flag. */
(PID.TID 0000.0001)                   F
(PID.TID 0000.0001)     ;
(PID.TID 0000.0001) externForcingPeriod =   /* forcing period (s) */
(PID.TID 0000.0001)                 0.000000000000000E+00
(PID.TID 0000.0001)     ;
(PID.TID 0000.0001) externForcingCycle =   /* period of the cyle (s). */
(PID.TID 0000.0001)                 0.000000000000000E+00
(PID.TID 0000.0001)     ;
(PID.TID 0000.0001) tauThetaClimRelax =   /* relaxation time scale (s) */
(PID.TID 0000.0001)                 0.000000000000000E+00
(PID.TID 0000.0001)     ;
(PID.TID 0000.0001) tauSaltClimRelax =   /* relaxation time scale (s) */
(PID.TID 0000.0001)                 0.000000000000000E+00
(PID.TID 0000.0001)     ;
(PID.TID 0000.0001) latBandClimRelax =   /* max. Lat. where relaxation */
(PID.TID 0000.0001)                 1.800000000000000E+02
(PID.TID 0000.0001)     ;
(PID.TID 0000.0001) //
(PID.TID 0000.0001) // Gridding paramters ( PARM04 in namelist )
(PID.TID 0000.0001) //
(PID.TID 0000.0001) usingCartesianGrid = /* Cartesian coordinates flag ( True/False ) */
(PID.TID 0000.0001)                   F
(PID.TID 0000.0001)     ;
(PID.TID 0000.0001) usingCylindricalGrid = /* Cylindrical coordinates flag ( True/False ) */
(PID.TID 0000.0001)                   F
(PID.TID 0000.0001)     ;
(PID.TID 0000.0001) usingSphericalPolarGrid = /* Spherical coordinates flag ( True/False ) */
(PID.TID 0000.0001)                   T
(PID.TID 0000.0001)     ;
(PID.TID 0000.0001) usingCurvilinearGrid = /* Curvilinear coordinates flag ( True/False ) */
(PID.TID 0000.0001)                   F
(PID.TID 0000.0001)     ;
(PID.TID 0000.0001) selectSigmaCoord = /* Hybrid-Sigma Vert. Coordinate option */
(PID.TID 0000.0001)                       0
(PID.TID 0000.0001)     ;
(PID.TID 0000.0001) Ro_SeaLevel = /* r(1) ( units of r ==  m ) */
(PID.TID 0000.0001)                 0.000000000000000E+00
(PID.TID 0000.0001)     ;
(PID.TID 0000.0001) rSigmaBnd = /* r/sigma transition ( units of r ==  m ) */
(PID.TID 0000.0001)                 1.234567000000000E+05
(PID.TID 0000.0001)     ;
(PID.TID 0000.0001) rkSign =   /* index orientation relative to vertical coordinate */
(PID.TID 0000.0001)                -1.000000000000000E+00
(PID.TID 0000.0001)     ;
(PID.TID 0000.0001) gravitySign = /* gravity orientation relative to vertical coordinate */
(PID.TID 0000.0001)                -1.000000000000000E+00
(PID.TID 0000.0001)     ;
(PID.TID 0000.0001) mass2rUnit = /* convert mass per unit area [kg/m2] to r-units [m] */
(PID.TID 0000.0001)                 9.708737864077669E-04
(PID.TID 0000.0001)     ;
(PID.TID 0000.0001) rUnit2mass = /* convert r-units [m] to mass per unit area [kg/m2] */
(PID.TID 0000.0001)                 1.030000000000000E+03
(PID.TID 0000.0001)     ;
(PID.TID 0000.0001) drC =   /* C spacing ( units of r ) */
(PID.TID 0000.0001)                 1.500000000000000E+01,      /* K =  1 */
(PID.TID 0000.0001)    29 @  3.000000000000000E+01              /* K =  2: 30 */
(PID.TID 0000.0001)     ;
(PID.TID 0000.0001) drF =   /* W spacing ( units of r ) */
(PID.TID 0000.0001)    30 @  3.000000000000000E+01              /* K =  1: 30 */
(PID.TID 0000.0001)     ;
(PID.TID 0000.0001) delX = /* U spacing ( m - cartesian, degrees - spherical ) */
(PID.TID 0000.0001)    50 @  3.000000000000000E-01              /* I =  1: 50 */
(PID.TID 0000.0001)     ;
(PID.TID 0000.0001) delY = /* V spacing ( m - cartesian, degrees - spherical ) */
(PID.TID 0000.0001)   100 @  1.000000000000000E-01              /* J =  1:100 */
(PID.TID 0000.0001)     ;
(PID.TID 0000.0001) xgOrigin = /* X-axis origin of West  edge (cartesian: m, lat-lon: deg.) */
(PID.TID 0000.0001)                 0.000000000000000E+00
(PID.TID 0000.0001)     ;
(PID.TID 0000.0001) ygOrigin = /* Y-axis origin of South edge (cartesian: m, lat-lon: deg.) */
(PID.TID 0000.0001)                -8.000000000000000E+01
(PID.TID 0000.0001)     ;
(PID.TID 0000.0001) rSphere =  /* Radius ( ignored - cartesian, m - spherical ) */
(PID.TID 0000.0001)                 6.370000000000000E+06
(PID.TID 0000.0001)     ;
(PID.TID 0000.0001) deepAtmosphere = /* Deep/Shallow Atmosphere flag (True/False) */
(PID.TID 0000.0001)                   F
(PID.TID 0000.0001)     ;
(PID.TID 0000.0001) xC =  /* xC(:,1,:,1) : P-point X coord ( deg. or m if cartesian) */
(PID.TID 0000.0001)                 1.500000000000001E-01,      /* I =  1 */
(PID.TID 0000.0001)                 4.500000000000001E-01,      /* I =  2 */
(PID.TID 0000.0001)                 7.500000000000002E-01,      /* I =  3 */
(PID.TID 0000.0001)                 1.050000000000000E+00,      /* I =  4 */
(PID.TID 0000.0001)                 1.350000000000000E+00,      /* I =  5 */
(PID.TID 0000.0001)                 1.650000000000000E+00,      /* I =  6 */
(PID.TID 0000.0001)                 1.950000000000000E+00,      /* I =  7 */
(PID.TID 0000.0001)                 2.250000000000000E+00,      /* I =  8 */
(PID.TID 0000.0001)                 2.550000000000000E+00,      /* I =  9 */
(PID.TID 0000.0001)                 2.850000000000000E+00,      /* I = 10 */
(PID.TID 0000.0001)                 3.149999999999999E+00,      /* I = 11 */
(PID.TID 0000.0001)                 3.449999999999999E+00,      /* I = 12 */
(PID.TID 0000.0001)                 3.749999999999999E+00,      /* I = 13 */
(PID.TID 0000.0001)                 4.049999999999999E+00,      /* I = 14 */
(PID.TID 0000.0001)                 4.350000000000000E+00,      /* I = 15 */
(PID.TID 0000.0001)                 4.649999999999999E+00,      /* I = 16 */
(PID.TID 0000.0001)                 4.949999999999999E+00,      /* I = 17 */
(PID.TID 0000.0001)                 5.249999999999998E+00,      /* I = 18 */
(PID.TID 0000.0001)                 5.549999999999999E+00,      /* I = 19 */
(PID.TID 0000.0001)                 5.849999999999998E+00,      /* I = 20 */
(PID.TID 0000.0001)                 6.149999999999999E+00,      /* I = 21 */
(PID.TID 0000.0001)                 6.449999999999998E+00,      /* I = 22 */
(PID.TID 0000.0001)                 6.749999999999998E+00,      /* I = 23 */
(PID.TID 0000.0001)                 7.049999999999997E+00,      /* I = 24 */
(PID.TID 0000.0001)                 7.349999999999997E+00,      /* I = 25 */
(PID.TID 0000.0001)                 7.649999999999997E+00,      /* I = 26 */
(PID.TID 0000.0001)                 7.949999999999998E+00,      /* I = 27 */
(PID.TID 0000.0001)                 8.249999999999998E+00,      /* I = 28 */
(PID.TID 0000.0001)                 8.549999999999999E+00,      /* I = 29 */
(PID.TID 0000.0001)                 8.850000000000000E+00,      /* I = 30 */
(PID.TID 0000.0001)                 9.150000000000000E+00,      /* I = 31 */
(PID.TID 0000.0001)                 9.450000000000001E+00,      /* I = 32 */
(PID.TID 0000.0001)                 9.750000000000002E+00,      /* I = 33 */
(PID.TID 0000.0001)                 1.005000000000000E+01,      /* I = 34 */
(PID.TID 0000.0001)                 1.035000000000000E+01,      /* I = 35 */
(PID.TID 0000.0001)                 1.065000000000000E+01,      /* I = 36 */
(PID.TID 0000.0001)                 1.095000000000001E+01,      /* I = 37 */
(PID.TID 0000.0001)                 1.125000000000001E+01,      /* I = 38 */
(PID.TID 0000.0001)                 1.155000000000000E+01,      /* I = 39 */
(PID.TID 0000.0001)                 1.185000000000001E+01,      /* I = 40 */
(PID.TID 0000.0001)                 1.215000000000001E+01,      /* I = 41 */
(PID.TID 0000.0001)                 1.245000000000001E+01,      /* I = 42 */
(PID.TID 0000.0001)                 1.275000000000001E+01,      /* I = 43 */
(PID.TID 0000.0001)                 1.305000000000001E+01,      /* I = 44 */
(PID.TID 0000.0001)                 1.335000000000001E+01,      /* I = 45 */
(PID.TID 0000.0001)                 1.365000000000001E+01,      /* I = 46 */
(PID.TID 0000.0001)                 1.395000000000001E+01,      /* I = 47 */
(PID.TID 0000.0001)                 1.425000000000001E+01,      /* I = 48 */
(PID.TID 0000.0001)                 1.455000000000001E+01,      /* I = 49 */
(PID.TID 0000.0001)                 1.485000000000001E+01       /* I = 50 */
(PID.TID 0000.0001)     ;
(PID.TID 0000.0001) yC =  /* yC(1,:,1,:) : P-point Y coord ( deg. or m if cartesian) */
(PID.TID 0000.0001)                -7.995000000000000E+01,      /* J =  1 */
(PID.TID 0000.0001)                -7.985000000000001E+01,      /* J =  2 */
(PID.TID 0000.0001)                -7.975000000000001E+01,      /* J =  3 */
(PID.TID 0000.0001)      . . .
(PID.TID 0000.0001)                -7.775000000000013E+01,      /* J = 23 */
(PID.TID 0000.0001)                -7.765000000000013E+01,      /* J = 24 */
(PID.TID 0000.0001)                -7.755000000000014E+01,      /* J = 25 */
(PID.TID 0000.0001)                -7.745000000000014E+01,      /* J = 26 */
(PID.TID 0000.0001)                -7.735000000000015E+01,      /* J = 27 */
(PID.TID 0000.0001)                -7.725000000000016E+01,      /* J = 28 */
(PID.TID 0000.0001)      . . .
(PID.TID 0000.0001)                -7.525000000000027E+01,      /* J = 48 */
(PID.TID 0000.0001)                -7.515000000000028E+01,      /* J = 49 */
(PID.TID 0000.0001)                -7.505000000000028E+01,      /* J = 50 */
(PID.TID 0000.0001)                -7.495000000000029E+01,      /* J = 51 */
(PID.TID 0000.0001)                -7.485000000000029E+01,      /* J = 52 */
(PID.TID 0000.0001)                -7.475000000000030E+01,      /* J = 53 */
(PID.TID 0000.0001)      . . .
(PID.TID 0000.0001)                -7.275000000000041E+01,      /* J = 73 */
(PID.TID 0000.0001)                -7.265000000000042E+01,      /* J = 74 */
(PID.TID 0000.0001)                -7.255000000000042E+01,      /* J = 75 */
(PID.TID 0000.0001)                -7.245000000000043E+01,      /* J = 76 */
(PID.TID 0000.0001)                -7.235000000000043E+01,      /* J = 77 */
(PID.TID 0000.0001)                -7.225000000000044E+01,      /* J = 78 */
(PID.TID 0000.0001)      . . .
(PID.TID 0000.0001)                -7.025000000000055E+01,      /* J = 98 */
(PID.TID 0000.0001)                -7.015000000000056E+01,      /* J = 99 */
(PID.TID 0000.0001)                -7.005000000000057E+01       /* J =100 */
(PID.TID 0000.0001)     ;
(PID.TID 0000.0001) rcoord = /* P-point R coordinate (  units of r ) */
(PID.TID 0000.0001)                -1.500000000000000E+01,      /* K =  1 */
(PID.TID 0000.0001)                -4.500000000000000E+01,      /* K =  2 */
(PID.TID 0000.0001)                -7.500000000000000E+01,      /* K =  3 */
(PID.TID 0000.0001)                -1.050000000000000E+02,      /* K =  4 */
(PID.TID 0000.0001)                -1.350000000000000E+02,      /* K =  5 */
(PID.TID 0000.0001)                -1.650000000000000E+02,      /* K =  6 */
(PID.TID 0000.0001)                -1.950000000000000E+02,      /* K =  7 */
(PID.TID 0000.0001)                -2.250000000000000E+02,      /* K =  8 */
(PID.TID 0000.0001)                -2.550000000000000E+02,      /* K =  9 */
(PID.TID 0000.0001)                -2.850000000000000E+02,      /* K = 10 */
(PID.TID 0000.0001)                -3.150000000000000E+02,      /* K = 11 */
(PID.TID 0000.0001)                -3.450000000000000E+02,      /* K = 12 */
(PID.TID 0000.0001)                -3.750000000000000E+02,      /* K = 13 */
(PID.TID 0000.0001)                -4.050000000000000E+02,      /* K = 14 */
(PID.TID 0000.0001)                -4.350000000000000E+02,      /* K = 15 */
(PID.TID 0000.0001)                -4.650000000000000E+02,      /* K = 16 */
(PID.TID 0000.0001)                -4.950000000000000E+02,      /* K = 17 */
(PID.TID 0000.0001)                -5.250000000000000E+02,      /* K = 18 */
(PID.TID 0000.0001)                -5.550000000000000E+02,      /* K = 19 */
(PID.TID 0000.0001)                -5.850000000000000E+02,      /* K = 20 */
(PID.TID 0000.0001)                -6.150000000000000E+02,      /* K = 21 */
(PID.TID 0000.0001)                -6.450000000000000E+02,      /* K = 22 */
(PID.TID 0000.0001)                -6.750000000000000E+02,      /* K = 23 */
(PID.TID 0000.0001)                -7.050000000000000E+02,      /* K = 24 */
(PID.TID 0000.0001)                -7.350000000000000E+02,      /* K = 25 */
(PID.TID 0000.0001)                -7.650000000000000E+02,      /* K = 26 */
(PID.TID 0000.0001)                -7.950000000000000E+02,      /* K = 27 */
(PID.TID 0000.0001)                -8.250000000000000E+02,      /* K = 28 */
(PID.TID 0000.0001)                -8.550000000000000E+02,      /* K = 29 */
(PID.TID 0000.0001)                -8.850000000000000E+02       /* K = 30 */
(PID.TID 0000.0001)     ;
(PID.TID 0000.0001) rF =   /* W-Interf. R coordinate (  units of r ) */
(PID.TID 0000.0001)                 0.000000000000000E+00,      /* K =  1 */
(PID.TID 0000.0001)                -3.000000000000000E+01,      /* K =  2 */
(PID.TID 0000.0001)                -6.000000000000000E+01,      /* K =  3 */
(PID.TID 0000.0001)                -9.000000000000000E+01,      /* K =  4 */
(PID.TID 0000.0001)                -1.200000000000000E+02,      /* K =  5 */
(PID.TID 0000.0001)                -1.500000000000000E+02,      /* K =  6 */
(PID.TID 0000.0001)                -1.800000000000000E+02,      /* K =  7 */
(PID.TID 0000.0001)                -2.100000000000000E+02,      /* K =  8 */
(PID.TID 0000.0001)                -2.400000000000000E+02,      /* K =  9 */
(PID.TID 0000.0001)                -2.700000000000000E+02,      /* K = 10 */
(PID.TID 0000.0001)                -3.000000000000000E+02,      /* K = 11 */
(PID.TID 0000.0001)                -3.300000000000000E+02,      /* K = 12 */
(PID.TID 0000.0001)                -3.600000000000000E+02,      /* K = 13 */
(PID.TID 0000.0001)                -3.900000000000000E+02,      /* K = 14 */
(PID.TID 0000.0001)                -4.200000000000000E+02,      /* K = 15 */
(PID.TID 0000.0001)                -4.500000000000000E+02,      /* K = 16 */
(PID.TID 0000.0001)                -4.800000000000000E+02,      /* K = 17 */
(PID.TID 0000.0001)                -5.100000000000000E+02,      /* K = 18 */
(PID.TID 0000.0001)                -5.400000000000000E+02,      /* K = 19 */
(PID.TID 0000.0001)                -5.700000000000000E+02,      /* K = 20 */
(PID.TID 0000.0001)                -6.000000000000000E+02,      /* K = 21 */
(PID.TID 0000.0001)                -6.300000000000000E+02,      /* K = 22 */
(PID.TID 0000.0001)                -6.600000000000000E+02,      /* K = 23 */
(PID.TID 0000.0001)                -6.900000000000000E+02,      /* K = 24 */
(PID.TID 0000.0001)                -7.200000000000000E+02,      /* K = 25 */
(PID.TID 0000.0001)                -7.500000000000000E+02,      /* K = 26 */
(PID.TID 0000.0001)                -7.800000000000000E+02,      /* K = 27 */
(PID.TID 0000.0001)                -8.100000000000000E+02,      /* K = 28 */
(PID.TID 0000.0001)                -8.400000000000000E+02,      /* K = 29 */
(PID.TID 0000.0001)                -8.700000000000000E+02,      /* K = 30 */
(PID.TID 0000.0001)                -9.000000000000000E+02       /* K = 31 */
(PID.TID 0000.0001)     ;
(PID.TID 0000.0001) deepFacC = /* deep-model grid factor @ cell-Center (-) */
(PID.TID 0000.0001)    30 @  1.000000000000000E+00              /* K =  1: 30 */
(PID.TID 0000.0001)     ;
(PID.TID 0000.0001) deepFacF = /* deep-model grid factor @ W-Interface (-) */
(PID.TID 0000.0001)    31 @  1.000000000000000E+00              /* K =  1: 31 */
(PID.TID 0000.0001)     ;
(PID.TID 0000.0001) rVel2wUnit = /* convert units: rVel -> wSpeed (=1 if z-coord)*/
(PID.TID 0000.0001)    31 @  1.000000000000000E+00              /* K =  1: 31 */
(PID.TID 0000.0001)     ;
(PID.TID 0000.0001) wUnit2rVel = /* convert units: wSpeed -> rVel (=1 if z-coord)*/
(PID.TID 0000.0001)    31 @  1.000000000000000E+00              /* K =  1: 31 */
(PID.TID 0000.0001)     ;
(PID.TID 0000.0001) dBdrRef = /* Vertical grad. of reference buoyancy [(m/s/r)^2] */
(PID.TID 0000.0001)    30 @  0.000000000000000E+00              /* K =  1: 30 */
(PID.TID 0000.0001)     ;
(PID.TID 0000.0001) rotateGrid = /* use rotated grid ( True/False ) */
(PID.TID 0000.0001)                   F
(PID.TID 0000.0001)     ;
(PID.TID 0000.0001) phiEuler = /* Euler angle, rotation about original z-coordinate [rad] */
(PID.TID 0000.0001)                 0.000000000000000E+00
(PID.TID 0000.0001)     ;
(PID.TID 0000.0001) thetaEuler = /* Euler angle, rotation about new x-coordinate [rad] */
(PID.TID 0000.0001)                 0.000000000000000E+00
(PID.TID 0000.0001)     ;
(PID.TID 0000.0001) psiEuler = /* Euler angle, rotation about new z-coordinate [rad] */
(PID.TID 0000.0001)                 0.000000000000000E+00
(PID.TID 0000.0001)     ;
(PID.TID 0000.0001) dxF =  /* dxF(:,1,:,1) ( units: m ) */
(PID.TID 0000.0001)    50 @  5.820391490558872E+03              /* I =  1: 50 */
(PID.TID 0000.0001)     ;
(PID.TID 0000.0001) dxF =  /* dxF(1,:,1,:) ( units: m ) */
(PID.TID 0000.0001)                 5.820391490558872E+03,      /* J =  1 */
(PID.TID 0000.0001)                 5.877701765291692E+03,      /* J =  2 */
(PID.TID 0000.0001)                 5.934994135525598E+03,      /* J =  3 */
(PID.TID 0000.0001)      . . .
(PID.TID 0000.0001)                 7.076813247621209E+03,      /* J = 23 */
(PID.TID 0000.0001)                 7.133689397375063E+03,      /* J = 24 */
(PID.TID 0000.0001)                 7.190543816673855E+03,      /* J = 25 */
(PID.TID 0000.0001)                 7.247376332329164E+03,      /* J = 26 */
(PID.TID 0000.0001)                 7.304186771219292E+03,      /* J = 27 */
(PID.TID 0000.0001)                 7.360974960289787E+03,      /* J = 28 */
(PID.TID 0000.0001)      . . .
(PID.TID 0000.0001)                 8.491800393599013E+03,      /* J = 48 */
(PID.TID 0000.0001)                 8.548081485571185E+03,      /* J = 49 */
(PID.TID 0000.0001)                 8.604336538604706E+03,      /* J = 50 */
(PID.TID 0000.0001)                 8.660565381336924E+03,      /* J = 51 */
(PID.TID 0000.0001)                 8.716767842485036E+03,      /* J = 52 */
(PID.TID 0000.0001)                 8.772943750846600E+03,      /* J = 53 */
(PID.TID 0000.0001)      . . .
(PID.TID 0000.0001)                 9.890622914885218E+03,      /* J = 73 */
(PID.TID 0000.0001)                 9.946201814818334E+03,      /* J = 74 */
(PID.TID 0000.0001)                 1.000175041689580E+04,      /* J = 75 */
(PID.TID 0000.0001)                 1.005726855190695E+04,      /* J = 76 */
(PID.TID 0000.0001)                 1.011275605073392E+04,      /* J = 77 */
(PID.TID 0000.0001)                 1.016821274435215E+04,      /* J = 78 */
(PID.TID 0000.0001)      . . .
(PID.TID 0000.0001)                 1.127061807330668E+04,      /* J = 98 */
(PID.TID 0000.0001)                 1.132538898360582E+04,      /* J = 99 */
(PID.TID 0000.0001)                 1.138012539480601E+04       /* J =100 */
(PID.TID 0000.0001)     ;
(PID.TID 0000.0001) dyF =  /* dyF(:,1,:,1) ( units: m ) */
(PID.TID 0000.0001)    50 @  1.111774733520388E+04              /* I =  1: 50 */
(PID.TID 0000.0001)     ;
(PID.TID 0000.0001) dyF =  /* dyF(1,:,1,:) ( units: m ) */
(PID.TID 0000.0001)   100 @  1.111774733520388E+04              /* J =  1:100 */
(PID.TID 0000.0001)     ;
(PID.TID 0000.0001) dxG =  /* dxG(:,1,:,1) ( units: m ) */
(PID.TID 0000.0001)    50 @  5.791729693558576E+03              /* I =  1: 50 */
(PID.TID 0000.0001)     ;
(PID.TID 0000.0001) dxG =  /* dxG(1,:,1,:) ( units: m ) */
(PID.TID 0000.0001)                 5.791729693558576E+03,      /* J =  1 */
(PID.TID 0000.0001)                 5.849048855077854E+03,      /* J =  2 */
(PID.TID 0000.0001)                 5.906350199379949E+03,      /* J =  3 */
(PID.TID 0000.0001)      . . .
(PID.TID 0000.0001)                 7.048367077963129E+03,      /* J = 23 */
(PID.TID 0000.0001)                 7.105254027978149E+03,      /* J = 24 */
(PID.TID 0000.0001)                 7.162119334157175E+03,      /* J = 25 */
(PID.TID 0000.0001)                 7.218962823278620E+03,      /* J = 26 */
(PID.TID 0000.0001)                 7.275784322187360E+03,      /* J = 27 */
(PID.TID 0000.0001)                 7.332583657795253E+03,      /* J = 28 */
(PID.TID 0000.0001)      . . .
(PID.TID 0000.0001)                 8.463650136583461E+03,      /* J = 48 */
(PID.TID 0000.0001)                 8.519944183739159E+03,      /* J = 49 */
(PID.TID 0000.0001)                 8.576212277667308E+03,      /* J = 50 */
(PID.TID 0000.0001)                 8.632454246965530E+03,      /* J = 51 */
(PID.TID 0000.0001)                 8.688669920311038E+03,      /* J = 52 */
(PID.TID 0000.0001)                 8.744859126461139E+03,      /* J = 53 */
(PID.TID 0000.0001)      . . .
(PID.TID 0000.0001)                 9.862822156126382E+03,      /* J = 73 */
(PID.TID 0000.0001)                 9.918416141504455E+03,      /* J = 74 */
(PID.TID 0000.0001)                 9.973979913666863E+03,      /* J = 75 */
(PID.TID 0000.0001)                 1.002951330335672E+04,      /* J = 76 */
(PID.TID 0000.0001)                 1.008501614140969E+04,      /* J = 77 */
(PID.TID 0000.0001)                 1.014048825875450E+04,      /* J = 78 */
(PID.TID 0000.0001)      . . .
(PID.TID 0000.0001)                 1.124321973312895E+04,      /* J = 98 */
(PID.TID 0000.0001)                 1.129800783041847E+04,      /* J = 99 */
(PID.TID 0000.0001)                 1.135276151201679E+04       /* J =100 */
(PID.TID 0000.0001)     ;
(PID.TID 0000.0001) dyG =  /* dyG(:,1,:,1) ( units: m ) */
(PID.TID 0000.0001)    50 @  1.111774733520388E+04              /* I =  1: 50 */
(PID.TID 0000.0001)     ;
(PID.TID 0000.0001) dyG =  /* dyG(1,:,1,:) ( units: m ) */
(PID.TID 0000.0001)   100 @  1.111774733520388E+04              /* J =  1:100 */
(PID.TID 0000.0001)     ;
(PID.TID 0000.0001) dxC =  /* dxC(:,1,:,1) ( units: m ) */
(PID.TID 0000.0001)    50 @  5.820391490558872E+03              /* I =  1: 50 */
(PID.TID 0000.0001)     ;
(PID.TID 0000.0001) dxC =  /* dxC(1,:,1,:) ( units: m ) */
(PID.TID 0000.0001)                 5.820391490558872E+03,      /* J =  1 */
(PID.TID 0000.0001)                 5.877701765291692E+03,      /* J =  2 */
(PID.TID 0000.0001)                 5.934994135525598E+03,      /* J =  3 */
(PID.TID 0000.0001)      . . .
(PID.TID 0000.0001)                 7.076813247621209E+03,      /* J = 23 */
(PID.TID 0000.0001)                 7.133689397375063E+03,      /* J = 24 */
(PID.TID 0000.0001)                 7.190543816673855E+03,      /* J = 25 */
(PID.TID 0000.0001)                 7.247376332329164E+03,      /* J = 26 */
(PID.TID 0000.0001)                 7.304186771219292E+03,      /* J = 27 */
(PID.TID 0000.0001)                 7.360974960289787E+03,      /* J = 28 */
(PID.TID 0000.0001)      . . .
(PID.TID 0000.0001)                 8.491800393599013E+03,      /* J = 48 */
(PID.TID 0000.0001)                 8.548081485571185E+03,      /* J = 49 */
(PID.TID 0000.0001)                 8.604336538604706E+03,      /* J = 50 */
(PID.TID 0000.0001)                 8.660565381336924E+03,      /* J = 51 */
(PID.TID 0000.0001)                 8.716767842485036E+03,      /* J = 52 */
(PID.TID 0000.0001)                 8.772943750846600E+03,      /* J = 53 */
(PID.TID 0000.0001)      . . .
(PID.TID 0000.0001)                 9.890622914885218E+03,      /* J = 73 */
(PID.TID 0000.0001)                 9.946201814818334E+03,      /* J = 74 */
(PID.TID 0000.0001)                 1.000175041689580E+04,      /* J = 75 */
(PID.TID 0000.0001)                 1.005726855190695E+04,      /* J = 76 */
(PID.TID 0000.0001)                 1.011275605073392E+04,      /* J = 77 */
(PID.TID 0000.0001)                 1.016821274435215E+04,      /* J = 78 */
(PID.TID 0000.0001)      . . .
(PID.TID 0000.0001)                 1.127061807330668E+04,      /* J = 98 */
(PID.TID 0000.0001)                 1.132538898360582E+04,      /* J = 99 */
(PID.TID 0000.0001)                 1.138012539480601E+04       /* J =100 */
(PID.TID 0000.0001)     ;
(PID.TID 0000.0001) dyC =  /* dyC(:,1,:,1) ( units: m ) */
(PID.TID 0000.0001)    50 @  1.111774733520388E+04              /* I =  1: 50 */
(PID.TID 0000.0001)     ;
(PID.TID 0000.0001) dyC =  /* dyC(1,:,1,:) ( units: m ) */
(PID.TID 0000.0001)   100 @  1.111774733520388E+04              /* J =  1:100 */
(PID.TID 0000.0001)     ;
(PID.TID 0000.0001) dxV =  /* dxV(:,1,:,1) ( units: m ) */
(PID.TID 0000.0001)    50 @  5.791729693558576E+03              /* I =  1: 50 */
(PID.TID 0000.0001)     ;
(PID.TID 0000.0001) dxV =  /* dxV(1,:,1,:) ( units: m ) */
(PID.TID 0000.0001)                 5.791729693558576E+03,      /* J =  1 */
(PID.TID 0000.0001)                 5.849048855077854E+03,      /* J =  2 */
(PID.TID 0000.0001)                 5.906350199379949E+03,      /* J =  3 */
(PID.TID 0000.0001)      . . .
(PID.TID 0000.0001)                 7.048367077963129E+03,      /* J = 23 */
(PID.TID 0000.0001)                 7.105254027978149E+03,      /* J = 24 */
(PID.TID 0000.0001)                 7.162119334157175E+03,      /* J = 25 */
(PID.TID 0000.0001)                 7.218962823278620E+03,      /* J = 26 */
(PID.TID 0000.0001)                 7.275784322187360E+03,      /* J = 27 */
(PID.TID 0000.0001)                 7.332583657795253E+03,      /* J = 28 */
(PID.TID 0000.0001)      . . .
(PID.TID 0000.0001)                 8.463650136583461E+03,      /* J = 48 */
(PID.TID 0000.0001)                 8.519944183739159E+03,      /* J = 49 */
(PID.TID 0000.0001)                 8.576212277667308E+03,      /* J = 50 */
(PID.TID 0000.0001)                 8.632454246965530E+03,      /* J = 51 */
(PID.TID 0000.0001)                 8.688669920311038E+03,      /* J = 52 */
(PID.TID 0000.0001)                 8.744859126461139E+03,      /* J = 53 */
(PID.TID 0000.0001)      . . .
(PID.TID 0000.0001)                 9.862822156126382E+03,      /* J = 73 */
(PID.TID 0000.0001)                 9.918416141504455E+03,      /* J = 74 */
(PID.TID 0000.0001)                 9.973979913666863E+03,      /* J = 75 */
(PID.TID 0000.0001)                 1.002951330335672E+04,      /* J = 76 */
(PID.TID 0000.0001)                 1.008501614140969E+04,      /* J = 77 */
(PID.TID 0000.0001)                 1.014048825875450E+04,      /* J = 78 */
(PID.TID 0000.0001)      . . .
(PID.TID 0000.0001)                 1.124321973312895E+04,      /* J = 98 */
(PID.TID 0000.0001)                 1.129800783041847E+04,      /* J = 99 */
(PID.TID 0000.0001)                 1.135276151201679E+04       /* J =100 */
(PID.TID 0000.0001)     ;
(PID.TID 0000.0001) dyU =  /* dyU(:,1,:,1) ( units: m ) */
(PID.TID 0000.0001)    50 @  1.111774733520388E+04              /* I =  1: 50 */
(PID.TID 0000.0001)     ;
(PID.TID 0000.0001) dyU =  /* dyU(1,:,1,:) ( units: m ) */
(PID.TID 0000.0001)   100 @  1.111774733520388E+04              /* J =  1:100 */
(PID.TID 0000.0001)     ;
(PID.TID 0000.0001) rA  =  /* rA (:,1,:,1) ( units: m^2 ) */
(PID.TID 0000.0001)    50 @  6.470963377080289E+07              /* I =  1: 50 */
(PID.TID 0000.0001)     ;
(PID.TID 0000.0001) rA  =  /* rA (1,:,1,:) ( units: m^2 ) */
(PID.TID 0000.0001)                 6.470963377080289E+07,      /* J =  1 */
(PID.TID 0000.0001)                 6.534679484410104E+07,      /* J =  2 */
(PID.TID 0000.0001)                 6.598375685977945E+07,      /* J =  3 */
(PID.TID 0000.0001)      . . .
(PID.TID 0000.0001)                 7.867821163932665E+07,      /* J = 23 */
(PID.TID 0000.0001)                 7.931054622142966E+07,      /* J = 24 */
(PID.TID 0000.0001)                 7.994263920984067E+07,      /* J = 25 */
(PID.TID 0000.0001)                 8.057448867913349E+07,      /* J = 26 */
(PID.TID 0000.0001)                 8.120609270456599E+07,      /* J = 27 */
(PID.TID 0000.0001)                 8.183744936212724E+07,      /* J = 28 */
(PID.TID 0000.0001)      . . .
(PID.TID 0000.0001)                 9.440967921416211E+07,      /* J = 48 */
(PID.TID 0000.0001)                 9.503539809503193E+07,      /* J = 49 */
(PID.TID 0000.0001)                 9.566082748163140E+07,      /* J = 50 */
(PID.TID 0000.0001)                 9.628596546870193E+07,      /* J = 51 */
(PID.TID 0000.0001)                 9.691081015209354E+07,      /* J = 52 */
(PID.TID 0000.0001)                 9.753535962826957E+07,      /* J = 53 */
(PID.TID 0000.0001)      . . .
(PID.TID 0000.0001)                 1.099614325987181E+08,      /* J = 73 */
(PID.TID 0000.0001)                 1.105793446869293E+08,      /* J = 74 */
(PID.TID 0000.0001)                 1.111969199312560E+08,      /* J = 75 */
(PID.TID 0000.0001)                 1.118141564504991E+08,      /* J = 76 */
(PID.TID 0000.0001)                 1.124310523644033E+08,      /* J = 77 */
(PID.TID 0000.0001)                 1.130476057938687E+08,      /* J = 78 */
(PID.TID 0000.0001)      . . .
(PID.TID 0000.0001)                 1.253038681465364E+08,      /* J = 98 */
(PID.TID 0000.0001)                 1.259127972112936E+08,      /* J = 99 */
(PID.TID 0000.0001)                 1.265213427237870E+08       /* J =100 */
(PID.TID 0000.0001)     ;
(PID.TID 0000.0001) rAw =  /* rAw(:,1,:,1) ( units: m^2 ) */
(PID.TID 0000.0001)    50 @  6.470963377080289E+07              /* I =  1: 50 */
(PID.TID 0000.0001)     ;
(PID.TID 0000.0001) rAw =  /* rAw(1,:,1,:) ( units: m^2 ) */
(PID.TID 0000.0001)                 6.470963377080289E+07,      /* J =  1 */
(PID.TID 0000.0001)                 6.534679484410104E+07,      /* J =  2 */
(PID.TID 0000.0001)                 6.598375685977945E+07,      /* J =  3 */
(PID.TID 0000.0001)      . . .
(PID.TID 0000.0001)                 7.867821163932665E+07,      /* J = 23 */
(PID.TID 0000.0001)                 7.931054622142966E+07,      /* J = 24 */
(PID.TID 0000.0001)                 7.994263920984067E+07,      /* J = 25 */
(PID.TID 0000.0001)                 8.057448867913349E+07,      /* J = 26 */
(PID.TID 0000.0001)                 8.120609270456599E+07,      /* J = 27 */
(PID.TID 0000.0001)                 8.183744936212724E+07,      /* J = 28 */
(PID.TID 0000.0001)      . . .
(PID.TID 0000.0001)                 9.440967921416211E+07,      /* J = 48 */
(PID.TID 0000.0001)                 9.503539809503193E+07,      /* J = 49 */
(PID.TID 0000.0001)                 9.566082748163140E+07,      /* J = 50 */
(PID.TID 0000.0001)                 9.628596546870193E+07,      /* J = 51 */
(PID.TID 0000.0001)                 9.691081015209354E+07,      /* J = 52 */
(PID.TID 0000.0001)                 9.753535962826957E+07,      /* J = 53 */
(PID.TID 0000.0001)      . . .
(PID.TID 0000.0001)                 1.099614325987181E+08,      /* J = 73 */
(PID.TID 0000.0001)                 1.105793446869293E+08,      /* J = 74 */
(PID.TID 0000.0001)                 1.111969199312560E+08,      /* J = 75 */
(PID.TID 0000.0001)                 1.118141564504991E+08,      /* J = 76 */
(PID.TID 0000.0001)                 1.124310523644033E+08,      /* J = 77 */
(PID.TID 0000.0001)                 1.130476057938687E+08,      /* J = 78 */
(PID.TID 0000.0001)      . . .
(PID.TID 0000.0001)                 1.253038681465364E+08,      /* J = 98 */
(PID.TID 0000.0001)                 1.259127972112936E+08,      /* J = 99 */
(PID.TID 0000.0001)                 1.265213427237870E+08       /* J =100 */
(PID.TID 0000.0001)     ;
(PID.TID 0000.0001) rAs =  /* rAs(:,1,:,1) ( units: m^2 ) */
(PID.TID 0000.0001)    50 @  6.439097919401864E+07              /* I =  1: 50 */
(PID.TID 0000.0001)     ;
(PID.TID 0000.0001) rAs =  /* rAs(1,:,1,:) ( units: m^2 ) */
(PID.TID 0000.0001)                 6.439097919401864E+07,      /* J =  1 */
(PID.TID 0000.0001)                 6.502823906837179E+07,      /* J =  2 */
(PID.TID 0000.0001)                 6.566530085543716E+07,      /* J =  3 */
(PID.TID 0000.0001)      . . .
(PID.TID 0000.0001)                 7.836195435256335E+07,      /* J = 23 */
(PID.TID 0000.0001)                 7.899440900921808E+07,      /* J = 24 */
(PID.TID 0000.0001)                 7.962662303520055E+07,      /* J = 25 */
(PID.TID 0000.0001)                 8.025859450470714E+07,      /* J = 26 */
(PID.TID 0000.0001)                 8.089032149259475E+07,      /* J = 27 */
(PID.TID 0000.0001)                 8.152180207452223E+07,      /* J = 28 */
(PID.TID 0000.0001)      . . .
(PID.TID 0000.0001)                 9.409671180895932E+07,      /* J = 48 */
(PID.TID 0000.0001)                 9.472257472228888E+07,      /* J = 49 */
(PID.TID 0000.0001)                 9.534814909420149E+07,      /* J = 50 */
(PID.TID 0000.0001)                 9.597343301913190E+07,      /* J = 51 */
(PID.TID 0000.0001)                 9.659842459236403E+07,      /* J = 52 */
(PID.TID 0000.0001)                 9.722312190998378E+07,      /* J = 53 */
(PID.TID 0000.0001)      . . .
(PID.TID 0000.0001)                 1.096523508263446E+08,      /* J = 73 */
(PID.TID 0000.0001)                 1.102704306306916E+08,      /* J = 74 */
(PID.TID 0000.0001)                 1.108881745321664E+08,      /* J = 75 */
(PID.TID 0000.0001)                 1.115055806490511E+08,      /* J = 76 */
(PID.TID 0000.0001)                 1.121226471005947E+08,      /* J = 77 */
(PID.TID 0000.0001)                 1.127393720071080E+08,      /* J = 78 */
(PID.TID 0000.0001)      . . .
(PID.TID 0000.0001)                 1.249992603617116E+08,      /* J = 98 */
(PID.TID 0000.0001)                 1.256083805070198E+08,      /* J = 99 */
(PID.TID 0000.0001)                 1.262171180274426E+08       /* J =100 */
(PID.TID 0000.0001)     ;
(PID.TID 0000.0001) globalArea = /* Integrated horizontal Area (m^2) */
(PID.TID 0000.0001)                 4.665024516720103E+11
(PID.TID 0000.0001)     ;
(PID.TID 0000.0001) // =======================================================
(PID.TID 0000.0001) // End of Model config. summary
(PID.TID 0000.0001) // =======================================================
(PID.TID 0000.0001) 
(PID.TID 0000.0001) == Packages configuration : Check & print summary ==
(PID.TID 0000.0001) 
(PID.TID 0000.0001) SHELFICE_CHECK: #define ALLOW_SHELFICE
(PID.TID 0000.0001) ICEFRONT_CHECK: #define ALLOW_ICEFRONT
(PID.TID 0000.0001) GAD_CHECK: #define ALLOW_GENERIC_ADVDIFF
(PID.TID 0000.0001) // =======================================================
(PID.TID 0000.0001) // CONFIG_CHECK : Normal End
(PID.TID 0000.0001) // =======================================================
(PID.TID 0000.0001) 
(PID.TID 0000.0001) Start initial hydrostatic pressure computation
(PID.TID 0000.0001) Pressure is predetermined for buoyancyRelation OCEANIC
(PID.TID 0000.0001) 
(PID.TID 0000.0001)  write diagnostics summary to file ioUnit:      6
Iter.Nb:         0 ; Time(s):  0.0000000000000E+00
------------------------------------------------------------------------
2D/3D diagnostics: Number of lists:     2
------------------------------------------------------------------------
listId=    1 ; file name: shelficeDiag
 nFlds, nActive,       freq     &     phase        , nLev               
    2  |    2  |     18000.000000         0.000000 |   1
 levels:   1
 diag# | name   |   ipt  |  iMate | kLev|   count |   mate.C|           
   189 |SHIfwFlx|      1 |      0 |   1 |       0 |
   190 |SHIhtFlx|      2 |      0 |   1 |       0 |
------------------------------------------------------------------------
listId=    2 ; file name: icefrontDiag
 nFlds, nActive,       freq     &     phase        , nLev               
    2  |    2  |     18000.000000         0.000000 |  30
 levels:   1   2   3   4   5   6   7   8   9  10  11  12  13  14  15  16  17  18  19  20  21  22  23  24  25
 levels:  26  27  28  29  30
 diag# | name   |   ipt  |  iMate | kLev|   count |   mate.C|           
   197 |ICFfwFlx|      3 |      0 |  30 |       0 |
   198 |ICFhtFlx|     33 |      0 |  30 |       0 |
------------------------------------------------------------------------
Global & Regional Statistics diagnostics: Number of lists:     0
------------------------------------------------------------------------
(PID.TID 0000.0001)  MDS_READ_FIELD: opening global file: phi0surf.exp1.jmd95z
(PID.TID 0000.0001) // =======================================================
(PID.TID 0000.0001) // Model current state
(PID.TID 0000.0001) // =======================================================
(PID.TID 0000.0001) 
(PID.TID 0000.0001) // =======================================================
(PID.TID 0000.0001) // Begin MONITOR dynamic field statistics
(PID.TID 0000.0001) // =======================================================
(PID.TID 0000.0001) %MON time_tsnumber                =                     0
(PID.TID 0000.0001) %MON time_secondsf                =   0.0000000000000E+00
(PID.TID 0000.0001) %MON dynstat_eta_max              =   0.0000000000000E+00
(PID.TID 0000.0001) %MON dynstat_eta_min              =   0.0000000000000E+00
(PID.TID 0000.0001) %MON dynstat_eta_mean             =   0.0000000000000E+00
(PID.TID 0000.0001) %MON dynstat_eta_sd               =   0.0000000000000E+00
(PID.TID 0000.0001) %MON dynstat_eta_del2             =   0.0000000000000E+00
(PID.TID 0000.0001) %MON dynstat_uvel_max             =   0.0000000000000E+00
(PID.TID 0000.0001) %MON dynstat_uvel_min             =   0.0000000000000E+00
(PID.TID 0000.0001) %MON dynstat_uvel_mean            =   0.0000000000000E+00
(PID.TID 0000.0001) %MON dynstat_uvel_sd              =   0.0000000000000E+00
(PID.TID 0000.0001) %MON dynstat_uvel_del2            =   0.0000000000000E+00
(PID.TID 0000.0001) %MON dynstat_vvel_max             =   0.0000000000000E+00
(PID.TID 0000.0001) %MON dynstat_vvel_min             =   0.0000000000000E+00
(PID.TID 0000.0001) %MON dynstat_vvel_mean            =   0.0000000000000E+00
(PID.TID 0000.0001) %MON dynstat_vvel_sd              =   0.0000000000000E+00
(PID.TID 0000.0001) %MON dynstat_vvel_del2            =   0.0000000000000E+00
(PID.TID 0000.0001) %MON dynstat_wvel_max             =  -0.0000000000000E+00
(PID.TID 0000.0001) %MON dynstat_wvel_min             =  -0.0000000000000E+00
(PID.TID 0000.0001) %MON dynstat_wvel_mean            =   0.0000000000000E+00
(PID.TID 0000.0001) %MON dynstat_wvel_sd              =   0.0000000000000E+00
(PID.TID 0000.0001) %MON dynstat_wvel_del2            =   0.0000000000000E+00
(PID.TID 0000.0001) %MON dynstat_theta_max            =  -1.9000000000000E+00
(PID.TID 0000.0001) %MON dynstat_theta_min            =  -1.9000000000000E+00
(PID.TID 0000.0001) %MON dynstat_theta_mean           =  -1.9000000000001E+00
(PID.TID 0000.0001) %MON dynstat_theta_sd             =   5.0626169922908E-14
(PID.TID 0000.0001) %MON dynstat_theta_del2           =   0.0000000000000E+00
(PID.TID 0000.0001) %MON dynstat_salt_max             =   3.4400000000000E+01
(PID.TID 0000.0001) %MON dynstat_salt_min             =   3.4400000000000E+01
(PID.TID 0000.0001) %MON dynstat_salt_mean            =   3.4400000000003E+01
(PID.TID 0000.0001) %MON dynstat_salt_sd              =   3.3608671401455E-12
(PID.TID 0000.0001) %MON dynstat_salt_del2            =   0.0000000000000E+00
(PID.TID 0000.0001) %MON advcfl_uvel_max              =   0.0000000000000E+00
(PID.TID 0000.0001) %MON advcfl_vvel_max              =   0.0000000000000E+00
(PID.TID 0000.0001) %MON advcfl_wvel_max              =   0.0000000000000E+00
(PID.TID 0000.0001) %MON advcfl_W_hf_max              =   0.0000000000000E+00
(PID.TID 0000.0001) %MON pe_b_mean                    =   0.0000000000000E+00
(PID.TID 0000.0001) %MON ke_max                       =   0.0000000000000E+00
(PID.TID 0000.0001) %MON ke_mean                      =   0.0000000000000E+00
(PID.TID 0000.0001) %MON ke_vol                       =   3.4703745874271E+14
(PID.TID 0000.0001) %MON vort_r_min                   =   0.0000000000000E+00
(PID.TID 0000.0001) %MON vort_r_max                   =   0.0000000000000E+00
(PID.TID 0000.0001) %MON vort_a_mean                  =  -1.3992981969633E-04
(PID.TID 0000.0001) %MON vort_a_sd                    =   1.7365065466767E-06
(PID.TID 0000.0001) %MON vort_p_mean                  =  -1.4746660593271E-04
(PID.TID 0000.0001) %MON vort_p_sd                    =   7.7973631850191E-05
(PID.TID 0000.0001) %MON surfExpan_theta_mean         =   0.0000000000000E+00
(PID.TID 0000.0001) %MON surfExpan_salt_mean          =   0.0000000000000E+00
(PID.TID 0000.0001) // =======================================================
(PID.TID 0000.0001) // End MONITOR dynamic field statistics
(PID.TID 0000.0001) // =======================================================
(PID.TID 0000.0001) SOLVE_FOR_PRESSURE: putPmEinXvector =    F
(PID.TID 0000.0001) SOLVE_FOR_PRESSURE: zeroPsNH=    F , zeroMeanPnh=    F
(PID.TID 0000.0001) SOLVE_FOR_PRESSURE: oldFreeSurfTerm =    F
 cg2d: Sum(rhs),rhsMax =   7.10542735760100E-15  2.38990812331932E-13
(PID.TID 0000.0001)                    cg2d_init_res =    8.49111263799137E+00
(PID.TID 0000.0001)                       cg2d_iters =   215
(PID.TID 0000.0001)                         cg2d_res =    8.86718616081882E-14
(PID.TID 0000.0001) // =======================================================
(PID.TID 0000.0001) // Begin MONITOR dynamic field statistics
(PID.TID 0000.0001) // =======================================================
(PID.TID 0000.0001) %MON time_tsnumber                =                     1
(PID.TID 0000.0001) %MON time_secondsf                =   1.8000000000000E+03
(PID.TID 0000.0001) %MON dynstat_eta_max              =   3.1036857598518E-14
(PID.TID 0000.0001) %MON dynstat_eta_min              =  -3.4812753914262E-14
(PID.TID 0000.0001) %MON dynstat_eta_mean             =  -5.9497169877991E-30
(PID.TID 0000.0001) %MON dynstat_eta_sd               =   1.0479681544293E-14
(PID.TID 0000.0001) %MON dynstat_eta_del2             =   8.9903581898044E-17
(PID.TID 0000.0001) %MON dynstat_uvel_max             =   8.6011557715738E-15
(PID.TID 0000.0001) %MON dynstat_uvel_min             =  -4.2133745576537E-15
(PID.TID 0000.0001) %MON dynstat_uvel_mean            =   1.4274186700969E-16
(PID.TID 0000.0001) %MON dynstat_uvel_sd              =   1.1486393664338E-15
(PID.TID 0000.0001) %MON dynstat_uvel_del2            =   5.2621196388025E-18
(PID.TID 0000.0001) %MON dynstat_vvel_max             =   1.7355311849203E-15
(PID.TID 0000.0001) %MON dynstat_vvel_min             =  -7.7554935535682E-15
(PID.TID 0000.0001) %MON dynstat_vvel_mean            =  -1.4632900644946E-15
(PID.TID 0000.0001) %MON dynstat_vvel_sd              =   1.3722239451161E-15
(PID.TID 0000.0001) %MON dynstat_vvel_del2            =   7.9304009891642E-19
(PID.TID 0000.0001) %MON dynstat_wvel_max             =   1.0805019741595E-16
(PID.TID 0000.0001) %MON dynstat_wvel_min             =  -2.1843531534202E-16
(PID.TID 0000.0001) %MON dynstat_wvel_mean            =  -1.2630605078337E-18
(PID.TID 0000.0001) %MON dynstat_wvel_sd              =   5.3311364310466E-18
(PID.TID 0000.0001) %MON dynstat_wvel_del2            =   3.2531472677908E-20
(PID.TID 0000.0001) %MON dynstat_theta_max            =  -1.9000000000000E+00
(PID.TID 0000.0001) %MON dynstat_theta_min            =  -1.9006851721692E+00
(PID.TID 0000.0001) %MON dynstat_theta_mean           =  -1.9000057693499E+00
(PID.TID 0000.0001) %MON dynstat_theta_sd             =   4.4667286239157E-05
(PID.TID 0000.0001) %MON dynstat_theta_del2           =   5.2806570677999E-08
(PID.TID 0000.0001) %MON dynstat_salt_max             =   3.4400000000000E+01
(PID.TID 0000.0001) %MON dynstat_salt_min             =   3.4399720387688E+01
(PID.TID 0000.0001) %MON dynstat_salt_mean            =   3.4399997656847E+01
(PID.TID 0000.0001) %MON dynstat_salt_sd              =   1.8183098456483E-05
(PID.TID 0000.0001) %MON dynstat_salt_del2            =   2.1474097321698E-08
(PID.TID 0000.0001) %MON advcfl_uvel_max              =   1.7976584486645E-15
(PID.TID 0000.0001) %MON advcfl_vvel_max              =   1.2556400119132E-15
(PID.TID 0000.0001) %MON advcfl_wvel_max              =   1.3106118920521E-14
(PID.TID 0000.0001) %MON advcfl_W_hf_max              =   1.3449961336468E-14
(PID.TID 0000.0001) %MON pe_b_mean                    =  -2.4577164654124E-17
(PID.TID 0000.0001) %MON ke_max                       =   4.3469974070280E-29
(PID.TID 0000.0001) %MON ke_mean                      =   2.6420474756167E-30
(PID.TID 0000.0001) %MON ke_vol                       =   3.4703745874271E+14
(PID.TID 0000.0001) %MON vort_r_min                   =  -8.0600750178762E-19
(PID.TID 0000.0001) %MON vort_r_max                   =   9.0430300543315E-19
(PID.TID 0000.0001) %MON vort_a_mean                  =  -1.3992981969633E-04
(PID.TID 0000.0001) %MON vort_a_sd                    =   1.7365065466786E-06
(PID.TID 0000.0001) %MON vort_p_mean                  =  -1.4746660593271E-04
(PID.TID 0000.0001) %MON vort_p_sd                    =   7.7973631850191E-05
(PID.TID 0000.0001) %MON surfExpan_theta_mean         =  -9.4951529111137E-22
(PID.TID 0000.0001) %MON surfExpan_salt_mean          =  -3.8639669956190E-22
(PID.TID 0000.0001) // =======================================================
(PID.TID 0000.0001) // End MONITOR dynamic field statistics
(PID.TID 0000.0001) // =======================================================
 cg2d: Sum(rhs),rhsMax =  -1.20792265079217E-13  1.15434215862258E-05
(PID.TID 0000.0001)                    cg2d_init_res =    8.49147463143188E+00
(PID.TID 0000.0001)                       cg2d_iters =   214
(PID.TID 0000.0001)                         cg2d_res =    9.44162217135230E-14
(PID.TID 0000.0001) // =======================================================
(PID.TID 0000.0001) // Begin MONITOR dynamic field statistics
(PID.TID 0000.0001) // =======================================================
(PID.TID 0000.0001) %MON time_tsnumber                =                     2
(PID.TID 0000.0001) %MON time_secondsf                =   3.6000000000000E+03
(PID.TID 0000.0001) %MON dynstat_eta_max              =   1.4837786533309E-06
(PID.TID 0000.0001) %MON dynstat_eta_min              =  -1.5744945164247E-06
(PID.TID 0000.0001) %MON dynstat_eta_mean             =  -1.3309291605757E-22
(PID.TID 0000.0001) %MON dynstat_eta_sd               =   4.7056106686623E-07
(PID.TID 0000.0001) %MON dynstat_eta_del2             =   4.3898068907097E-09
(PID.TID 0000.0001) %MON dynstat_uvel_max             =   4.3488531998769E-07
(PID.TID 0000.0001) %MON dynstat_uvel_min             =  -1.4123867559909E-06
(PID.TID 0000.0001) %MON dynstat_uvel_mean            =   3.5993668277204E-09
(PID.TID 0000.0001) %MON dynstat_uvel_sd              =   1.0164107895331E-07
(PID.TID 0000.0001) %MON dynstat_uvel_del2            =   3.1693969224486E-10
(PID.TID 0000.0001) %MON dynstat_vvel_max             =   5.6018491462828E-06
(PID.TID 0000.0001) %MON dynstat_vvel_min             =  -7.1990392843545E-07
(PID.TID 0000.0001) %MON dynstat_vvel_mean            =  -5.0851875241567E-08
(PID.TID 0000.0001) %MON dynstat_vvel_sd              =   3.1596623061083E-07
(PID.TID 0000.0001) %MON dynstat_vvel_del2            =   8.6192041906185E-10
(PID.TID 0000.0001) %MON dynstat_wvel_max             =   1.2936089813359E-08
(PID.TID 0000.0001) %MON dynstat_wvel_min             =  -1.8048068565256E-08
(PID.TID 0000.0001) %MON dynstat_wvel_mean            =  -4.0799541777218E-11
(PID.TID 0000.0001) %MON dynstat_wvel_sd              =   1.0653010339293E-09
(PID.TID 0000.0001) %MON dynstat_wvel_del2            =   1.0300789157875E-11
(PID.TID 0000.0001) %MON dynstat_theta_max            =  -1.9000000000000E+00
(PID.TID 0000.0001) %MON dynstat_theta_min            =  -1.9013688224855E+00
(PID.TID 0000.0001) %MON dynstat_theta_mean           =  -1.9000115281051E+00
(PID.TID 0000.0001) %MON dynstat_theta_sd             =   8.9223690134448E-05
(PID.TID 0000.0001) %MON dynstat_theta_del2           =   1.0526240489742E-07
(PID.TID 0000.0001) %MON dynstat_salt_max             =   3.4400000000000E+01
(PID.TID 0000.0001) %MON dynstat_salt_min             =   3.4399441399459E+01
(PID.TID 0000.0001) %MON dynstat_salt_mean            =   3.4399995318035E+01
(PID.TID 0000.0001) %MON dynstat_salt_sd              =   3.6320778904377E-05
(PID.TID 0000.0001) %MON dynstat_salt_del2            =   4.2805259160864E-08
(PID.TID 0000.0001) %MON advcfl_uvel_max              =   4.2024727327222E-07
(PID.TID 0000.0001) %MON advcfl_vvel_max              =   9.0695787188656E-07
(PID.TID 0000.0001) %MON advcfl_wvel_max              =   1.0828841139153E-06
(PID.TID 0000.0001) %MON advcfl_W_hf_max              =   1.2006633292827E-06
(PID.TID 0000.0001) %MON pe_b_mean                    =  -1.0892129245914E-09
(PID.TID 0000.0001) %MON ke_max                       =   9.2638969439316E-12
(PID.TID 0000.0001) %MON ke_mean                      =   5.5608229858472E-14
(PID.TID 0000.0001) %MON ke_vol                       =   3.4703745874271E+14
(PID.TID 0000.0001) %MON vort_r_min                   =  -9.4774873773963E-10
(PID.TID 0000.0001) %MON vort_r_max                   =   9.3444729887057E-10
(PID.TID 0000.0001) %MON vort_a_mean                  =  -1.3992981969616E-04
(PID.TID 0000.0001) %MON vort_a_sd                    =   1.7365065493718E-06
(PID.TID 0000.0001) %MON vort_p_mean                  =  -1.4746660593254E-04
(PID.TID 0000.0001) %MON vort_p_sd                    =   7.7973619316923E-05
(PID.TID 0000.0001) %MON surfExpan_theta_mean         =  -5.9404398210872E-14
(PID.TID 0000.0001) %MON surfExpan_salt_mean          =  -2.4085253089336E-14
(PID.TID 0000.0001) // =======================================================
(PID.TID 0000.0001) // End MONITOR dynamic field statistics
(PID.TID 0000.0001) // =======================================================
 cg2d: Sum(rhs),rhsMax =  -9.94759830064140E-14  1.81396294546362E-05
(PID.TID 0000.0001)                    cg2d_init_res =    3.36323571549780E+00
(PID.TID 0000.0001)                       cg2d_iters =   214
(PID.TID 0000.0001)                         cg2d_res =    9.21065267610034E-14
(PID.TID 0000.0001) // =======================================================
(PID.TID 0000.0001) // Begin MONITOR dynamic field statistics
(PID.TID 0000.0001) // =======================================================
(PID.TID 0000.0001) %MON time_tsnumber                =                     3
(PID.TID 0000.0001) %MON time_secondsf                =   5.4000000000000E+03
(PID.TID 0000.0001) %MON dynstat_eta_max              =   2.4500720271876E-06
(PID.TID 0000.0001) %MON dynstat_eta_min              =  -2.8805709741489E-06
(PID.TID 0000.0001) %MON dynstat_eta_mean             =   2.0629401988923E-21
(PID.TID 0000.0001) %MON dynstat_eta_sd               =   1.1677650177873E-06
(PID.TID 0000.0001) %MON dynstat_eta_del2             =   7.1345871170640E-09
(PID.TID 0000.0001) %MON dynstat_uvel_max             =   8.7531231991104E-07
(PID.TID 0000.0001) %MON dynstat_uvel_min             =  -4.8276731841208E-06
(PID.TID 0000.0001) %MON dynstat_uvel_mean            =   9.0714646382795E-09
(PID.TID 0000.0001) %MON dynstat_uvel_sd              =   3.1716633807631E-07
(PID.TID 0000.0001) %MON dynstat_uvel_del2            =   8.1581080851604E-10
(PID.TID 0000.0001) %MON dynstat_vvel_max             =   1.3884371995774E-05
(PID.TID 0000.0001) %MON dynstat_vvel_min             =  -1.8802542630007E-06
(PID.TID 0000.0001) %MON dynstat_vvel_mean            =  -1.1984966007145E-07
(PID.TID 0000.0001) %MON dynstat_vvel_sd              =   7.8805235498589E-07
(PID.TID 0000.0001) %MON dynstat_vvel_del2            =   2.1177142270240E-09
(PID.TID 0000.0001) %MON dynstat_wvel_max             =   3.5582110377150E-08
(PID.TID 0000.0001) %MON dynstat_wvel_min             =  -3.9926433084405E-08
(PID.TID 0000.0001) %MON dynstat_wvel_mean            =  -8.3687082999046E-11
(PID.TID 0000.0001) %MON dynstat_wvel_sd              =   2.5659959591612E-09
(PID.TID 0000.0001) %MON dynstat_wvel_del2            =   2.4759348545547E-11
(PID.TID 0000.0001) %MON dynstat_theta_max            =  -1.9000000000000E+00
(PID.TID 0000.0001) %MON dynstat_theta_min            =  -1.9020515257543E+00
(PID.TID 0000.0001) %MON dynstat_theta_mean           =  -1.9000172802666E+00
(PID.TID 0000.0001) %MON dynstat_theta_sd             =   1.3371114840004E-04
(PID.TID 0000.0001) %MON dynstat_theta_del2           =   1.5750272575517E-07
(PID.TID 0000.0001) %MON dynstat_salt_max             =   3.4400000000000E+01
(PID.TID 0000.0001) %MON dynstat_salt_min             =   3.4399162799589E+01
(PID.TID 0000.0001) %MON dynstat_salt_mean            =   3.4399992981926E+01
(PID.TID 0000.0001) %MON dynstat_salt_sd              =   5.4430219135881E-05
(PID.TID 0000.0001) %MON dynstat_salt_del2            =   6.4048490948805E-08
(PID.TID 0000.0001) %MON advcfl_uvel_max              =   1.4364454235149E-06
(PID.TID 0000.0001) %MON advcfl_vvel_max              =   2.2479256668532E-06
(PID.TID 0000.0001) %MON advcfl_wvel_max              =   2.3955859850643E-06
(PID.TID 0000.0001) %MON advcfl_W_hf_max              =   2.9699344153147E-06
(PID.TID 0000.0001) %MON pe_b_mean                    =  -3.0821953080016E-09
(PID.TID 0000.0001) %MON ke_max                       =   6.2616525556356E-11
(PID.TID 0000.0001) %MON ke_mean                      =   3.6285948534416E-13
(PID.TID 0000.0001) %MON ke_vol                       =   3.4703745874271E+14
(PID.TID 0000.0001) %MON vort_r_min                   =  -2.3507535600397E-09
(PID.TID 0000.0001) %MON vort_r_max                   =   2.3163564216423E-09
(PID.TID 0000.0001) %MON vort_a_mean                  =  -1.3992981969459E-04
(PID.TID 0000.0001) %MON vort_a_sd                    =   1.7365065521156E-06
(PID.TID 0000.0001) %MON vort_p_mean                  =  -1.4746660593088E-04
(PID.TID 0000.0001) %MON vort_p_sd                    =   7.7973587782426E-05
(PID.TID 0000.0001) %MON surfExpan_theta_mean         =  -1.8401880146499E-13
(PID.TID 0000.0001) %MON surfExpan_salt_mean          =  -7.4768227114910E-14
(PID.TID 0000.0001) // =======================================================
(PID.TID 0000.0001) // End MONITOR dynamic field statistics
(PID.TID 0000.0001) // =======================================================
 cg2d: Sum(rhs),rhsMax =  -4.97379915032070E-14  2.47201979112204E-05
(PID.TID 0000.0001)                    cg2d_init_res =    2.44206805551444E+00
(PID.TID 0000.0001)                       cg2d_iters =   212
(PID.TID 0000.0001)                         cg2d_res =    9.98711284350408E-14
(PID.TID 0000.0001) // =======================================================
(PID.TID 0000.0001) // Begin MONITOR dynamic field statistics
(PID.TID 0000.0001) // =======================================================
(PID.TID 0000.0001) %MON time_tsnumber                =                     4
(PID.TID 0000.0001) %MON time_secondsf                =   7.2000000000000E+03
(PID.TID 0000.0001) %MON dynstat_eta_max              =   4.0738831960925E-06
(PID.TID 0000.0001) %MON dynstat_eta_min              =  -4.1935478817777E-06
(PID.TID 0000.0001) %MON dynstat_eta_mean             =   0.0000000000000E+00
(PID.TID 0000.0001) %MON dynstat_eta_sd               =   2.1128580685442E-06
(PID.TID 0000.0001) %MON dynstat_eta_del2             =   9.8480888128969E-09
(PID.TID 0000.0001) %MON dynstat_uvel_max             =   1.5278714712189E-06
(PID.TID 0000.0001) %MON dynstat_uvel_min             =  -1.0730034578963E-05
(PID.TID 0000.0001) %MON dynstat_uvel_mean            =   1.2995100872988E-08
(PID.TID 0000.0001) %MON dynstat_uvel_sd              =   6.9144691175660E-07
(PID.TID 0000.0001) %MON dynstat_uvel_del2            =   1.6417808115536E-09
(PID.TID 0000.0001) %MON dynstat_vvel_max             =   2.4214946805172E-05
(PID.TID 0000.0001) %MON dynstat_vvel_min             =  -3.3791365869493E-06
(PID.TID 0000.0001) %MON dynstat_vvel_mean            =  -1.9277665291827E-07
(PID.TID 0000.0001) %MON dynstat_vvel_sd              =   1.3797562915357E-06
(PID.TID 0000.0001) %MON dynstat_vvel_del2            =   3.6660909557164E-09
(PID.TID 0000.0001) %MON dynstat_wvel_max             =   6.8403239093655E-08
(PID.TID 0000.0001) %MON dynstat_wvel_min             =  -6.9454492124213E-08
(PID.TID 0000.0001) %MON dynstat_wvel_mean            =  -1.2737741404485E-10
(PID.TID 0000.0001) %MON dynstat_wvel_sd              =   4.4987751490863E-09
(PID.TID 0000.0001) %MON dynstat_wvel_del2            =   4.2633632426394E-11
(PID.TID 0000.0001) %MON dynstat_theta_max            =  -1.9000000000000E+00
(PID.TID 0000.0001) %MON dynstat_theta_min            =  -1.9027332830324E+00
(PID.TID 0000.0001) %MON dynstat_theta_mean           =  -1.9000230258421E+00
(PID.TID 0000.0001) %MON dynstat_theta_sd             =   1.7812976303186E-04
(PID.TID 0000.0001) %MON dynstat_theta_del2           =   2.0952816667520E-07
(PID.TID 0000.0001) %MON dynstat_salt_max             =   3.4400000000000E+01
(PID.TID 0000.0001) %MON dynstat_salt_min             =   3.4398884587641E+01
(PID.TID 0000.0001) %MON dynstat_salt_mean            =   3.4399990648518E+01
(PID.TID 0000.0001) %MON dynstat_salt_sd              =   7.2511461076396E-05
(PID.TID 0000.0001) %MON dynstat_salt_del2            =   8.5204077935547E-08
(PID.TID 0000.0001) %MON advcfl_uvel_max              =   3.1926579280065E-06
(PID.TID 0000.0001) %MON advcfl_vvel_max              =   3.9204798359910E-06
(PID.TID 0000.0001) %MON advcfl_wvel_max              =   4.1672695274528E-06
(PID.TID 0000.0001) %MON advcfl_W_hf_max              =   5.7410177514788E-06
(PID.TID 0000.0001) %MON pe_b_mean                    =  -5.9229233422242E-09
(PID.TID 0000.0001) %MON ke_max                       =   2.1300757612320E-10
(PID.TID 0000.0001) %MON ke_mean                      =   1.1920316705929E-12
(PID.TID 0000.0001) %MON ke_vol                       =   3.4703745874271E+14
(PID.TID 0000.0001) %MON vort_r_min                   =  -4.0998161404604E-09
(PID.TID 0000.0001) %MON vort_r_max                   =   4.0371163074937E-09
(PID.TID 0000.0001) %MON vort_a_mean                  =  -1.3992981968933E-04
(PID.TID 0000.0001) %MON vort_a_sd                    =   1.7365065503122E-06
(PID.TID 0000.0001) %MON vort_p_mean                  =  -1.4746660592534E-04
(PID.TID 0000.0001) %MON vort_p_sd                    =   7.7973532389105E-05
(PID.TID 0000.0001) %MON surfExpan_theta_mean         =  -3.7542392450358E-13
(PID.TID 0000.0001) %MON surfExpan_salt_mean          =  -1.5266216111259E-13
(PID.TID 0000.0001) // =======================================================
(PID.TID 0000.0001) // End MONITOR dynamic field statistics
(PID.TID 0000.0001) // =======================================================
 cg2d: Sum(rhs),rhsMax =  -1.63424829224823E-13  3.12539964976728E-05
(PID.TID 0000.0001)                    cg2d_init_res =    1.92386940186273E+00
(PID.TID 0000.0001)                       cg2d_iters =   212
(PID.TID 0000.0001)                         cg2d_res =    7.27665867306191E-14
(PID.TID 0000.0001) // =======================================================
(PID.TID 0000.0001) // Begin MONITOR dynamic field statistics
(PID.TID 0000.0001) // =======================================================
(PID.TID 0000.0001) %MON time_tsnumber                =                     5
(PID.TID 0000.0001) %MON time_secondsf                =   9.0000000000000E+03
(PID.TID 0000.0001) %MON dynstat_eta_max              =   6.3137704038890E-06
(PID.TID 0000.0001) %MON dynstat_eta_min              =  -5.4117419941835E-06
(PID.TID 0000.0001) %MON dynstat_eta_mean             =   2.3956724890362E-21
(PID.TID 0000.0001) %MON dynstat_eta_sd               =   3.2824842714082E-06
(PID.TID 0000.0001) %MON dynstat_eta_del2             =   1.2551691907455E-08
(PID.TID 0000.0001) %MON dynstat_uvel_max             =   2.7918086368854E-06
(PID.TID 0000.0001) %MON dynstat_uvel_min             =  -1.9427012627270E-05
(PID.TID 0000.0001) %MON dynstat_uvel_mean            =   1.3418379017355E-08
(PID.TID 0000.0001) %MON dynstat_uvel_sd              =   1.2455545985061E-06
(PID.TID 0000.0001) %MON dynstat_uvel_del2            =   2.8382408734432E-09
(PID.TID 0000.0001) %MON dynstat_vvel_max             =   3.5818760314164E-05
(PID.TID 0000.0001) %MON dynstat_vvel_min             =  -5.1028008274983E-06
(PID.TID 0000.0001) %MON dynstat_vvel_mean            =  -2.5686243390195E-07
(PID.TID 0000.0001) %MON dynstat_vvel_sd              =   2.0471567872940E-06
(PID.TID 0000.0001) %MON dynstat_vvel_del2            =   5.3870871454459E-09
(PID.TID 0000.0001) %MON dynstat_wvel_max             =   1.1719122851057E-07
(PID.TID 0000.0001) %MON dynstat_wvel_min             =  -1.1721936186989E-07
(PID.TID 0000.0001) %MON dynstat_wvel_mean            =  -1.6515409280804E-10
(PID.TID 0000.0001) %MON dynstat_wvel_sd              =   6.7587904019936E-09
(PID.TID 0000.0001) %MON dynstat_wvel_del2            =   6.2537645064514E-11
(PID.TID 0000.0001) %MON dynstat_theta_max            =  -1.9000000000000E+00
(PID.TID 0000.0001) %MON dynstat_theta_min            =  -1.9034140960019E+00
(PID.TID 0000.0001) %MON dynstat_theta_mean           =  -1.9000287648431E+00
(PID.TID 0000.0001) %MON dynstat_theta_sd             =   2.2247968056118E-04
(PID.TID 0000.0001) %MON dynstat_theta_del2           =   2.6133882228983E-07
(PID.TID 0000.0001) %MON dynstat_salt_max             =   3.4400000000000E+01
(PID.TID 0000.0001) %MON dynstat_salt_min             =   3.4398606762921E+01
(PID.TID 0000.0001) %MON dynstat_salt_mean            =   3.4399988317805E+01
(PID.TID 0000.0001) %MON dynstat_salt_sd              =   9.0564564904652E-05
(PID.TID 0000.0001) %MON dynstat_salt_del2            =   1.0627210840545E-07
(PID.TID 0000.0001) %MON advcfl_uvel_max              =   5.7803919852727E-06
(PID.TID 0000.0001) %MON advcfl_vvel_max              =   5.7991755543267E-06
(PID.TID 0000.0001) %MON advcfl_wvel_max              =   7.0331617121933E-06
(PID.TID 0000.0001) %MON advcfl_W_hf_max              =   9.5115256018105E-06
(PID.TID 0000.0001) %MON pe_b_mean                    =  -9.4715662977991E-09
(PID.TID 0000.0001) %MON ke_max                       =   5.2968168401745E-10
(PID.TID 0000.0001) %MON ke_mean                      =   2.8605935057878E-12
(PID.TID 0000.0001) %MON ke_vol                       =   3.4703745874271E+14
(PID.TID 0000.0001) %MON vort_r_min                   =  -6.0644498973635E-09
(PID.TID 0000.0001) %MON vort_r_max                   =   5.9662111784837E-09
(PID.TID 0000.0001) %MON vort_a_mean                  =  -1.3992981967854E-04
(PID.TID 0000.0001) %MON vort_a_sd                    =   1.7365065469787E-06
(PID.TID 0000.0001) %MON vort_p_mean                  =  -1.4746660591397E-04
(PID.TID 0000.0001) %MON vort_p_sd                    =   7.7973450106641E-05
(PID.TID 0000.0001) %MON surfExpan_theta_mean         =  -6.1021465778080E-13
(PID.TID 0000.0001) %MON surfExpan_salt_mean          =  -2.4823096129683E-13
(PID.TID 0000.0001) // =======================================================
(PID.TID 0000.0001) // End MONITOR dynamic field statistics
(PID.TID 0000.0001) // =======================================================
 cg2d: Sum(rhs),rhsMax =   7.81597009336110E-14  3.76801082386217E-05
(PID.TID 0000.0001)                    cg2d_init_res =    1.58746846276668E+00
(PID.TID 0000.0001)                       cg2d_iters =   211
(PID.TID 0000.0001)                         cg2d_res =    8.56416952079120E-14
(PID.TID 0000.0001) // =======================================================
(PID.TID 0000.0001) // Begin MONITOR dynamic field statistics
(PID.TID 0000.0001) // =======================================================
(PID.TID 0000.0001) %MON time_tsnumber                =                     6
(PID.TID 0000.0001) %MON time_secondsf                =   1.0800000000000E+04
(PID.TID 0000.0001) %MON dynstat_eta_max              =   8.6920716356995E-06
(PID.TID 0000.0001) %MON dynstat_eta_min              =  -6.4813433855403E-06
(PID.TID 0000.0001) %MON dynstat_eta_mean             =   2.9280441532665E-21
(PID.TID 0000.0001) %MON dynstat_eta_sd               =   4.6272911299566E-06
(PID.TID 0000.0001) %MON dynstat_eta_del2             =   1.5241862392191E-08
(PID.TID 0000.0001) %MON dynstat_uvel_max             =   4.4858478341519E-06
(PID.TID 0000.0001) %MON dynstat_uvel_min             =  -3.1016968583755E-05
(PID.TID 0000.0001) %MON dynstat_uvel_mean            =   1.0201718649414E-08
(PID.TID 0000.0001) %MON dynstat_uvel_sd              =   1.9869561883152E-06
(PID.TID 0000.0001) %MON dynstat_uvel_del2            =   4.4174356570553E-09
(PID.TID 0000.0001) %MON dynstat_vvel_max             =   4.7895557580320E-05
(PID.TID 0000.0001) %MON dynstat_vvel_min             =  -6.9296553466761E-06
(PID.TID 0000.0001) %MON dynstat_vvel_mean            =  -3.0316404071270E-07
(PID.TID 0000.0001) %MON dynstat_vvel_sd              =   2.7432341482307E-06
(PID.TID 0000.0001) %MON dynstat_vvel_del2            =   7.1600452315619E-09
(PID.TID 0000.0001) %MON dynstat_wvel_max             =   1.7894715947215E-07
(PID.TID 0000.0001) %MON dynstat_wvel_min             =  -1.7713048972442E-07
(PID.TID 0000.0001) %MON dynstat_wvel_mean            =  -1.9235210525698E-10
(PID.TID 0000.0001) %MON dynstat_wvel_sd              =   9.2509775444491E-09
(PID.TID 0000.0001) %MON dynstat_wvel_del2            =   8.3138386084244E-11
(PID.TID 0000.0001) %MON dynstat_theta_max            =  -1.9000000000000E+00
(PID.TID 0000.0001) %MON dynstat_theta_min            =  -1.9040939664860E+00
(PID.TID 0000.0001) %MON dynstat_theta_mean           =  -1.9000344972811E+00
(PID.TID 0000.0001) %MON dynstat_theta_sd             =   2.6676104741690E-04
(PID.TID 0000.0001) %MON dynstat_theta_del2           =   3.1293611617659E-07
(PID.TID 0000.0001) %MON dynstat_salt_max             =   3.4400000000000E+01
(PID.TID 0000.0001) %MON dynstat_salt_min             =   3.4398329324678E+01
(PID.TID 0000.0001) %MON dynstat_salt_mean            =   3.4399985989784E+01
(PID.TID 0000.0001) %MON dynstat_salt_sd              =   1.0858959076357E-04
(PID.TID 0000.0001) %MON dynstat_salt_del2            =   1.2725305165546E-07
(PID.TID 0000.0001) %MON advcfl_uvel_max              =   9.2289144012455E-06
(PID.TID 0000.0001) %MON advcfl_vvel_max              =   7.7544489045536E-06
(PID.TID 0000.0001) %MON advcfl_wvel_max              =   1.0736829568329E-05
(PID.TID 0000.0001) %MON advcfl_W_hf_max              =   1.4112041170029E-05
(PID.TID 0000.0001) %MON pe_b_mean                    =  -1.3530570336507E-08
(PID.TID 0000.0001) %MON ke_max                       =   1.0915721573718E-09
(PID.TID 0000.0001) %MON ke_mean                      =   5.6926707202111E-12
(PID.TID 0000.0001) %MON ke_vol                       =   3.4703745874271E+14
(PID.TID 0000.0001) %MON vort_r_min                   =  -8.1091642118414E-09
(PID.TID 0000.0001) %MON vort_r_max                   =   7.9679611009333E-09
(PID.TID 0000.0001) %MON vort_a_mean                  =  -1.3992981966249E-04
(PID.TID 0000.0001) %MON vort_a_sd                    =   1.7365065399411E-06
(PID.TID 0000.0001) %MON vort_p_mean                  =  -1.4746660589705E-04
(PID.TID 0000.0001) %MON vort_p_sd                    =   7.7973339907118E-05
(PID.TID 0000.0001) %MON surfExpan_theta_mean         =  -8.5371488156850E-13
(PID.TID 0000.0001) %MON surfExpan_salt_mean          =  -3.4734353487717E-13
(PID.TID 0000.0001) // =======================================================
(PID.TID 0000.0001) // End MONITOR dynamic field statistics
(PID.TID 0000.0001) // =======================================================
 cg2d: Sum(rhs),rhsMax =  -1.42108547152020E-14  4.39816142560237E-05
(PID.TID 0000.0001)                    cg2d_init_res =    1.35273905527509E+00
(PID.TID 0000.0001)                       cg2d_iters =   209
(PID.TID 0000.0001)                         cg2d_res =    9.49815093863692E-14
(PID.TID 0000.0001) // =======================================================
(PID.TID 0000.0001) // Begin MONITOR dynamic field statistics
(PID.TID 0000.0001) // =======================================================
(PID.TID 0000.0001) %MON time_tsnumber                =                     7
(PID.TID 0000.0001) %MON time_secondsf                =   1.2600000000000E+04
(PID.TID 0000.0001) %MON dynstat_eta_max              =   1.1167542705408E-05
(PID.TID 0000.0001) %MON dynstat_eta_min              =  -7.3904627923010E-06
(PID.TID 0000.0001) %MON dynstat_eta_mean             =   1.0647433284605E-21
(PID.TID 0000.0001) %MON dynstat_eta_sd               =   6.0717951029334E-06
(PID.TID 0000.0001) %MON dynstat_eta_del2             =   1.7917732680266E-08
(PID.TID 0000.0001) %MON dynstat_uvel_max             =   6.6339593156864E-06
(PID.TID 0000.0001) %MON dynstat_uvel_min             =  -4.5391054206255E-05
(PID.TID 0000.0001) %MON dynstat_uvel_mean            =   4.5678176794018E-09
(PID.TID 0000.0001) %MON dynstat_uvel_sd              =   2.9102465558471E-06
(PID.TID 0000.0001) %MON dynstat_uvel_del2            =   6.3648002166722E-09
(PID.TID 0000.0001) %MON dynstat_vvel_max             =   5.9667428939273E-05
(PID.TID 0000.0001) %MON dynstat_vvel_min             =  -8.7416979202144E-06
(PID.TID 0000.0001) %MON dynstat_vvel_mean            =  -3.2721755165237E-07
(PID.TID 0000.0001) %MON dynstat_vvel_sd              =   3.4213724122824E-06
(PID.TID 0000.0001) %MON dynstat_vvel_del2            =   8.8712800010219E-09
(PID.TID 0000.0001) %MON dynstat_wvel_max             =   2.5245926051128E-07
(PID.TID 0000.0001) %MON dynstat_wvel_min             =  -2.4792179044484E-07
(PID.TID 0000.0001) %MON dynstat_wvel_mean            =  -2.0633409184850E-10
(PID.TID 0000.0001) %MON dynstat_wvel_sd              =   1.1886576293626E-08
(PID.TID 0000.0001) %MON dynstat_wvel_del2            =   1.0319367736805E-10
(PID.TID 0000.0001) %MON dynstat_theta_max            =  -1.9000000000000E+00
(PID.TID 0000.0001) %MON dynstat_theta_min            =  -1.9047728964869E+00
(PID.TID 0000.0001) %MON dynstat_theta_mean           =  -1.9000402231675E+00
(PID.TID 0000.0001) %MON dynstat_theta_sd             =   3.1097401008841E-04
(PID.TID 0000.0001) %MON dynstat_theta_del2           =   3.6432375721154E-07
(PID.TID 0000.0001) %MON dynstat_salt_max             =   3.4400000000000E+01
(PID.TID 0000.0001) %MON dynstat_salt_min             =   3.4398052272088E+01
(PID.TID 0000.0001) %MON dynstat_salt_mean            =   3.4399983664448E+01
(PID.TID 0000.0001) %MON dynstat_salt_sd              =   1.2658659881432E-04
(PID.TID 0000.0001) %MON dynstat_salt_del2            =   1.4814847160988E-07
(PID.TID 0000.0001) %MON advcfl_uvel_max              =   1.3505838029292E-05
(PID.TID 0000.0001) %MON advcfl_vvel_max              =   9.6603537436589E-06
(PID.TID 0000.0001) %MON advcfl_wvel_max              =   1.5147555630677E-05
(PID.TID 0000.0001) %MON advcfl_W_hf_max              =   1.9414556095596E-05
(PID.TID 0000.0001) %MON pe_b_mean                    =  -1.7861837637032E-08
(PID.TID 0000.0001) %MON ke_max                       =   1.9775531822276E-09
(PID.TID 0000.0001) %MON ke_mean                      =   9.9776890259031E-12
(PID.TID 0000.0001) %MON ke_vol                       =   3.4703745874271E+14
(PID.TID 0000.0001) %MON vort_r_min                   =  -1.0102251728786E-08
(PID.TID 0000.0001) %MON vort_r_max                   =   9.9109957563292E-09
(PID.TID 0000.0001) %MON vort_a_mean                  =  -1.3992981964354E-04
(PID.TID 0000.0001) %MON vort_a_sd                    =   1.7365065223629E-06
(PID.TID 0000.0001) %MON vort_p_mean                  =  -1.4746660587708E-04
(PID.TID 0000.0001) %MON vort_p_sd                    =   7.7973202714261E-05
(PID.TID 0000.0001) %MON surfExpan_theta_mean         =  -1.0681552318455E-12
(PID.TID 0000.0001) %MON surfExpan_salt_mean          =  -4.3461013129129E-13
(PID.TID 0000.0001) // =======================================================
(PID.TID 0000.0001) // End MONITOR dynamic field statistics
(PID.TID 0000.0001) // =======================================================
 cg2d: Sum(rhs),rhsMax =  -1.27897692436818E-13  5.01523007436575E-05
(PID.TID 0000.0001)                    cg2d_init_res =    1.17996671839056E+00
(PID.TID 0000.0001)                       cg2d_iters =   208
(PID.TID 0000.0001)                         cg2d_res =    8.28773956795637E-14
(PID.TID 0000.0001) // =======================================================
(PID.TID 0000.0001) // Begin MONITOR dynamic field statistics
(PID.TID 0000.0001) // =======================================================
(PID.TID 0000.0001) %MON time_tsnumber                =                     8
(PID.TID 0000.0001) %MON time_secondsf                =   1.4400000000000E+04
(PID.TID 0000.0001) %MON dynstat_eta_max              =   1.3610909400011E-05
(PID.TID 0000.0001) %MON dynstat_eta_min              =  -8.1957631735835E-06
(PID.TID 0000.0001) %MON dynstat_eta_mean             =  -6.3884599707632E-21
(PID.TID 0000.0001) %MON dynstat_eta_sd               =   7.5289634277938E-06
(PID.TID 0000.0001) %MON dynstat_eta_del2             =   2.0578799817936E-08
(PID.TID 0000.0001) %MON dynstat_uvel_max             =   9.1741842502485E-06
(PID.TID 0000.0001) %MON dynstat_uvel_min             =  -6.2256534241287E-05
(PID.TID 0000.0001) %MON dynstat_uvel_mean            =  -1.7632808682691E-09
(PID.TID 0000.0001) %MON dynstat_uvel_sd              =   3.9982502011091E-06
(PID.TID 0000.0001) %MON dynstat_uvel_del2            =   8.6425773360235E-09
(PID.TID 0000.0001) %MON dynstat_vvel_max             =   7.0426624474047E-05
(PID.TID 0000.0001) %MON dynstat_vvel_min             =  -1.0433447595302E-05
(PID.TID 0000.0001) %MON dynstat_vvel_mean            =  -3.2856186723153E-07
(PID.TID 0000.0001) %MON dynstat_vvel_sd              =   4.0384899379191E-06
(PID.TID 0000.0001) %MON dynstat_vvel_del2            =   1.0420261774090E-08
(PID.TID 0000.0001) %MON dynstat_wvel_max             =   3.3587377869184E-07
(PID.TID 0000.0001) %MON dynstat_wvel_min             =  -3.2770710971040E-07
(PID.TID 0000.0001) %MON dynstat_wvel_mean            =  -2.0653638365468E-10
(PID.TID 0000.0001) %MON dynstat_wvel_sd              =   1.4586193881601E-08
(PID.TID 0000.0001) %MON dynstat_wvel_del2            =   1.2162407032494E-10
(PID.TID 0000.0001) %MON dynstat_theta_max            =  -1.9000000000000E+00
(PID.TID 0000.0001) %MON dynstat_theta_min            =  -1.9054508882033E+00
(PID.TID 0000.0001) %MON dynstat_theta_mean           =  -1.9000459425139E+00
(PID.TID 0000.0001) %MON dynstat_theta_sd             =   3.5511871526164E-04
(PID.TID 0000.0001) %MON dynstat_theta_del2           =   4.1550246715861E-07
(PID.TID 0000.0001) %MON dynstat_salt_max             =   3.4400000000000E+01
(PID.TID 0000.0001) %MON dynstat_salt_min             =   3.4397775604247E+01
(PID.TID 0000.0001) %MON dynstat_salt_mean            =   3.4399981341795E+01
(PID.TID 0000.0001) %MON dynstat_salt_sd              =   1.4455564929703E-04
(PID.TID 0000.0001) %MON dynstat_salt_del2            =   1.6895865705947E-07
(PID.TID 0000.0001) %MON advcfl_uvel_max              =   1.8524061236983E-05
(PID.TID 0000.0001) %MON advcfl_vvel_max              =   1.1402303023372E-05
(PID.TID 0000.0001) %MON advcfl_wvel_max              =   2.0152426721510E-05
(PID.TID 0000.0001) %MON advcfl_W_hf_max              =   2.5258785979404E-05
(PID.TID 0000.0001) %MON pe_b_mean                    =  -2.2212645109728E-08
(PID.TID 0000.0001) %MON ke_max                       =   3.2548900502574E-09
(PID.TID 0000.0001) %MON ke_mean                      =   1.5931412793944E-11
(PID.TID 0000.0001) %MON ke_vol                       =   3.4703745874271E+14
(PID.TID 0000.0001) %MON vort_r_min                   =  -1.1923883792103E-08
(PID.TID 0000.0001) %MON vort_r_max                   =   1.1676659629566E-08
(PID.TID 0000.0001) %MON vort_a_mean                  =  -1.3992981962501E-04
(PID.TID 0000.0001) %MON vort_a_sd                    =   1.7365064842475E-06
(PID.TID 0000.0001) %MON vort_p_mean                  =  -1.4746660585755E-04
(PID.TID 0000.0001) %MON vort_p_sd                    =   7.7973041196685E-05
(PID.TID 0000.0001) %MON surfExpan_theta_mean         =  -1.2206883791872E-12
(PID.TID 0000.0001) %MON surfExpan_salt_mean          =  -4.9665093595346E-13
(PID.TID 0000.0001) // =======================================================
(PID.TID 0000.0001) // End MONITOR dynamic field statistics
(PID.TID 0000.0001) // =======================================================
 cg2d: Sum(rhs),rhsMax =   1.49213974509621E-13  5.61940786608751E-05
(PID.TID 0000.0001)                    cg2d_init_res =    1.04744865894282E+00
(PID.TID 0000.0001)                       cg2d_iters =   208
(PID.TID 0000.0001)                         cg2d_res =    8.01617187481337E-14
(PID.TID 0000.0001) // =======================================================
(PID.TID 0000.0001) // Begin MONITOR dynamic field statistics
(PID.TID 0000.0001) // =======================================================
(PID.TID 0000.0001) %MON time_tsnumber                =                     9
(PID.TID 0000.0001) %MON time_secondsf                =   1.6200000000000E+04
(PID.TID 0000.0001) %MON dynstat_eta_max              =   1.6332073936762E-05
(PID.TID 0000.0001) %MON dynstat_eta_min              =  -8.8492055935100E-06
(PID.TID 0000.0001) %MON dynstat_eta_mean             =  -1.3309291605757E-20
(PID.TID 0000.0001) %MON dynstat_eta_sd               =   8.9172340532863E-06
(PID.TID 0000.0001) %MON dynstat_eta_del2             =   2.3224387872659E-08
(PID.TID 0000.0001) %MON dynstat_uvel_max             =   1.2044717247000E-05
(PID.TID 0000.0001) %MON dynstat_uvel_min             =  -8.1172449798439E-05
(PID.TID 0000.0001) %MON dynstat_uvel_mean            =  -7.3186810340444E-09
(PID.TID 0000.0001) %MON dynstat_uvel_sd              =   5.2237843214244E-06
(PID.TID 0000.0001) %MON dynstat_uvel_del2            =   1.1194196274314E-08
(PID.TID 0000.0001) %MON dynstat_vvel_max             =   7.9577092534791E-05
(PID.TID 0000.0001) %MON dynstat_vvel_min             =  -1.1917057140077E-05
(PID.TID 0000.0001) %MON dynstat_vvel_mean            =  -3.0985802680867E-07
(PID.TID 0000.0001) %MON dynstat_vvel_sd              =   4.5576811645071E-06
(PID.TID 0000.0001) %MON dynstat_vvel_del2            =   1.1725015741254E-08
(PID.TID 0000.0001) %MON dynstat_wvel_max             =   4.2683465987475E-07
(PID.TID 0000.0001) %MON dynstat_wvel_min             =  -4.1414250386651E-07
(PID.TID 0000.0001) %MON dynstat_wvel_mean            =  -1.9434252055374E-10
(PID.TID 0000.0001) %MON dynstat_wvel_sd              =   1.7282469649186E-08
(PID.TID 0000.0001) %MON dynstat_wvel_del2            =   1.3757720108258E-10
(PID.TID 0000.0001) %MON dynstat_theta_max            =  -1.9000000000000E+00
(PID.TID 0000.0001) %MON dynstat_theta_min            =  -1.9061279440272E+00
(PID.TID 0000.0001) %MON dynstat_theta_mean           =  -1.9000516553321E+00
(PID.TID 0000.0001) %MON dynstat_theta_sd             =   3.9919530959532E-04
(PID.TID 0000.0001) %MON dynstat_theta_del2           =   4.6647325163723E-07
(PID.TID 0000.0001) %MON dynstat_salt_max             =   3.4400000000000E+01
(PID.TID 0000.0001) %MON dynstat_salt_min             =   3.4397499320172E+01
(PID.TID 0000.0001) %MON dynstat_salt_mean            =   3.4399979021818E+01
(PID.TID 0000.0001) %MON dynstat_salt_sd              =   1.6249680244013E-04
(PID.TID 0000.0001) %MON dynstat_salt_del2            =   1.8968401589793E-07
(PID.TID 0000.0001) %MON advcfl_uvel_max              =   2.4152379330892E-05
(PID.TID 0000.0001) %MON advcfl_vvel_max              =   1.2883794013655E-05
(PID.TID 0000.0001) %MON advcfl_wvel_max              =   2.5610079592485E-05
(PID.TID 0000.0001) %MON advcfl_W_hf_max              =   3.1461866573269E-05
(PID.TID 0000.0001) %MON pe_b_mean                    =  -2.6349203489588E-08
(PID.TID 0000.0001) %MON ke_max                       =   4.9680591961842E-09
(PID.TID 0000.0001) %MON ke_mean                      =   2.3663579517357E-11
(PID.TID 0000.0001) %MON ke_vol                       =   3.4703745874271E+14
(PID.TID 0000.0001) %MON vort_r_min                   =  -1.3473143303183E-08
(PID.TID 0000.0001) %MON vort_r_max                   =   1.3165980005553E-08
(PID.TID 0000.0001) %MON vort_a_mean                  =  -1.3992981960982E-04
(PID.TID 0000.0001) %MON vort_a_sd                    =   1.7365064194985E-06
(PID.TID 0000.0001) %MON vort_p_mean                  =  -1.4746660584154E-04
(PID.TID 0000.0001) %MON vort_p_sd                    =   7.7972859462879E-05
(PID.TID 0000.0001) %MON surfExpan_theta_mean         =  -1.2901148548476E-12
(PID.TID 0000.0001) %MON surfExpan_salt_mean          =  -5.2483504485232E-13
(PID.TID 0000.0001) // =======================================================
(PID.TID 0000.0001) // End MONITOR dynamic field statistics
(PID.TID 0000.0001) // =======================================================
 cg2d: Sum(rhs),rhsMax =   0.00000000000000E+00  6.21173443758808E-05
(PID.TID 0000.0001)                    cg2d_init_res =    9.42440144606480E-01
(PID.TID 0000.0001)                       cg2d_iters =   208
(PID.TID 0000.0001)                         cg2d_res =    8.93545557915422E-14
(PID.TID 0000.0001) // =======================================================
(PID.TID 0000.0001) // Begin MONITOR dynamic field statistics
(PID.TID 0000.0001) // =======================================================
(PID.TID 0000.0001) %MON time_tsnumber                =                    10
(PID.TID 0000.0001) %MON time_secondsf                =   1.8000000000000E+04
(PID.TID 0000.0001) %MON dynstat_eta_max              =   1.8905954345403E-05
(PID.TID 0000.0001) %MON dynstat_eta_min              =  -9.4655994033795E-06
(PID.TID 0000.0001) %MON dynstat_eta_mean             =   0.0000000000000E+00
(PID.TID 0000.0001) %MON dynstat_eta_sd               =   1.0173003507992E-05
(PID.TID 0000.0001) %MON dynstat_eta_del2             =   2.5853862187546E-08
(PID.TID 0000.0001) %MON dynstat_uvel_max             =   1.5164923934104E-05
(PID.TID 0000.0001) %MON dynstat_uvel_min             =  -1.0159045057931E-04
(PID.TID 0000.0001) %MON dynstat_uvel_mean            =  -1.1216686083800E-08
(PID.TID 0000.0001) %MON dynstat_uvel_sd              =   6.5519540663699E-06
(PID.TID 0000.0001) %MON dynstat_uvel_del2            =   1.3949420534580E-08
(PID.TID 0000.0001) %MON dynstat_vvel_max             =   8.6666731941058E-05
(PID.TID 0000.0001) %MON dynstat_vvel_min             =  -1.3125075673800E-05
(PID.TID 0000.0001) %MON dynstat_vvel_mean            =  -2.7594281601473E-07
(PID.TID 0000.0001) %MON dynstat_vvel_sd              =   4.9502952881948E-06
(PID.TID 0000.0001) %MON dynstat_vvel_del2            =   1.2725832806381E-08
(PID.TID 0000.0001) %MON dynstat_wvel_max             =   5.2265735106596E-07
(PID.TID 0000.0001) %MON dynstat_wvel_min             =  -5.0460482257866E-07
(PID.TID 0000.0001) %MON dynstat_wvel_mean            =  -1.7266922891401E-10
(PID.TID 0000.0001) %MON dynstat_wvel_sd              =   1.9920910690811E-08
(PID.TID 0000.0001) %MON dynstat_wvel_del2            =   1.5046901100744E-10
(PID.TID 0000.0001) %MON dynstat_theta_max            =  -1.9000000000000E+00
(PID.TID 0000.0001) %MON dynstat_theta_min            =  -1.9068040665185E+00
(PID.TID 0000.0001) %MON dynstat_theta_mean           =  -1.9000573616337E+00
(PID.TID 0000.0001) %MON dynstat_theta_sd             =   4.4320393946343E-04
(PID.TID 0000.0001) %MON dynstat_theta_del2           =   5.1723716540417E-07
(PID.TID 0000.0001) %MON dynstat_salt_max             =   3.4400000000000E+01
(PID.TID 0000.0001) %MON dynstat_salt_min             =   3.4397223418810E+01
(PID.TID 0000.0001) %MON dynstat_salt_mean            =   3.4399976704513E+01
(PID.TID 0000.0001) %MON dynstat_salt_sd              =   1.8041011835436E-04
(PID.TID 0000.0001) %MON dynstat_salt_del2            =   2.1032497700367E-07
(PID.TID 0000.0001) %MON advcfl_uvel_max              =   3.0227633943295E-05
(PID.TID 0000.0001) %MON advcfl_vvel_max              =   1.4031630040731E-05
(PID.TID 0000.0001) %MON advcfl_wvel_max              =   3.1359441063958E-05
(PID.TID 0000.0001) %MON advcfl_W_hf_max              =   3.7830306458703E-05
(PID.TID 0000.0001) %MON pe_b_mean                    =  -3.0087740773610E-08
(PID.TID 0000.0001) %MON ke_max                       =   7.1302317323336E-09
(PID.TID 0000.0001) %MON ke_mean                      =   3.3156427848950E-11
(PID.TID 0000.0001) %MON ke_vol                       =   3.4703745874271E+14
(PID.TID 0000.0001) %MON vort_r_min                   =  -1.4673485319283E-08
(PID.TID 0000.0001) %MON vort_r_max                   =   1.4304876431537E-08
(PID.TID 0000.0001) %MON vort_a_mean                  =  -1.3992981959986E-04
(PID.TID 0000.0001) %MON vort_a_sd                    =   1.7365063228629E-06
(PID.TID 0000.0001) %MON vort_p_mean                  =  -1.4746660583105E-04
(PID.TID 0000.0001) %MON vort_p_sd                    =   7.7972662699387E-05
(PID.TID 0000.0001) %MON surfExpan_theta_mean         =  -1.2708362871012E-12
(PID.TID 0000.0001) %MON surfExpan_salt_mean          =  -5.1688803183850E-13
(PID.TID 0000.0001) // =======================================================
(PID.TID 0000.0001) // End MONITOR dynamic field statistics
(PID.TID 0000.0001) // =======================================================
 Computing Diagnostic #    189  SHIfwFlx     Counter:      10   Parms: SM      L1      
 Computing Diagnostic #    190  SHIhtFlx     Counter:      10   Parms: SM      L1      
 Computing Diagnostic #    197  ICFfwFlx     Counter:      10   Parms: SM      MR      
 Computing Diagnostic #    198  ICFhtFlx     Counter:      10   Parms: SM      MR      
 cg2d: Sum(rhs),rhsMax =   5.68434188608080E-14  6.79388147875251E-05
(PID.TID 0000.0001)                    cg2d_init_res =    8.56968273482995E-01
(PID.TID 0000.0001)                       cg2d_iters =   208
(PID.TID 0000.0001)                         cg2d_res =    8.86153104055912E-14
(PID.TID 0000.0001) // =======================================================
(PID.TID 0000.0001) // Begin MONITOR dynamic field statistics
(PID.TID 0000.0001) // =======================================================
(PID.TID 0000.0001) %MON time_tsnumber                =                    11
(PID.TID 0000.0001) %MON time_secondsf                =   1.9800000000000E+04
(PID.TID 0000.0001) %MON dynstat_eta_max              =   2.1183900090627E-05
(PID.TID 0000.0001) %MON dynstat_eta_min              =  -1.0225718027181E-05
(PID.TID 0000.0001) %MON dynstat_eta_mean             =   1.4906406598448E-20
(PID.TID 0000.0001) %MON dynstat_eta_sd               =   1.1257618018259E-05
(PID.TID 0000.0001) %MON dynstat_eta_del2             =   2.8466752431525E-08
(PID.TID 0000.0001) %MON dynstat_uvel_max             =   1.8441385063937E-05
(PID.TID 0000.0001) %MON dynstat_uvel_min             =  -1.2289729546205E-04
(PID.TID 0000.0001) %MON dynstat_uvel_mean            =  -1.3142931882060E-08
(PID.TID 0000.0001) %MON dynstat_uvel_sd              =   7.9428172782734E-06
(PID.TID 0000.0001) %MON dynstat_uvel_del2            =   1.6829964385057E-08
(PID.TID 0000.0001) %MON dynstat_vvel_max             =   9.1408039993529E-05
(PID.TID 0000.0001) %MON dynstat_vvel_min             =  -1.4012197745827E-05
(PID.TID 0000.0001) %MON dynstat_vvel_mean            =  -2.3288412546122E-07
(PID.TID 0000.0001) %MON dynstat_vvel_sd              =   5.1973871514349E-06
(PID.TID 0000.0001) %MON dynstat_vvel_del2            =   1.3387249124143E-08
(PID.TID 0000.0001) %MON dynstat_wvel_max             =   6.2052497353791E-07
(PID.TID 0000.0001) %MON dynstat_wvel_min             =  -5.9637896292035E-07
(PID.TID 0000.0001) %MON dynstat_wvel_mean            =  -1.4534930080617E-10
(PID.TID 0000.0001) %MON dynstat_wvel_sd              =   2.2459427517969E-08
(PID.TID 0000.0001) %MON dynstat_wvel_del2            =   1.6000344629584E-10
(PID.TID 0000.0001) %MON dynstat_theta_max            =  -1.9000000000000E+00
(PID.TID 0000.0001) %MON dynstat_theta_min            =  -1.9074792583617E+00
(PID.TID 0000.0001) %MON dynstat_theta_mean           =  -1.9000630614302E+00
(PID.TID 0000.0001) %MON dynstat_theta_sd             =   4.8714475072493E-04
(PID.TID 0000.0001) %MON dynstat_theta_del2           =   5.6779525950551E-07
(PID.TID 0000.0001) %MON dynstat_salt_max             =   3.4400000000000E+01
(PID.TID 0000.0001) %MON dynstat_salt_min             =   3.4396947899060E+01
(PID.TID 0000.0001) %MON dynstat_salt_mean            =   3.4399974389875E+01
(PID.TID 0000.0001) %MON dynstat_salt_sd              =   1.9829565693870E-04
(PID.TID 0000.0001) %MON dynstat_salt_del2            =   2.3088196820582E-07
(PID.TID 0000.0001) %MON advcfl_uvel_max              =   3.6567358828159E-05
(PID.TID 0000.0001) %MON advcfl_vvel_max              =   1.4799263468361E-05
(PID.TID 0000.0001) %MON advcfl_wvel_max              =   3.7231498412275E-05
(PID.TID 0000.0001) %MON advcfl_W_hf_max              =   4.4173472621256E-05
(PID.TID 0000.0001) %MON pe_b_mean                    =  -3.3314852915566E-08
(PID.TID 0000.0001) %MON ke_max                       =   9.7184956522354E-09
(PID.TID 0000.0001) %MON ke_mean                      =   4.4257386178691E-11
(PID.TID 0000.0001) %MON ke_vol                       =   3.4703745874271E+14
(PID.TID 0000.0001) %MON vort_r_min                   =  -1.5476232954320E-08
(PID.TID 0000.0001) %MON vort_r_max                   =   1.5047389708260E-08
(PID.TID 0000.0001) %MON vort_a_mean                  =  -1.3992981959588E-04
(PID.TID 0000.0001) %MON vort_a_sd                    =   1.7365061983399E-06
(PID.TID 0000.0001) %MON vort_p_mean                  =  -1.4746660582685E-04
(PID.TID 0000.0001) %MON vort_p_sd                    =   7.7972456778967E-05
(PID.TID 0000.0001) %MON surfExpan_theta_mean         =  -1.1733681244588E-12
(PID.TID 0000.0001) %MON surfExpan_salt_mean          =  -4.7709864720596E-13
(PID.TID 0000.0001) // =======================================================
(PID.TID 0000.0001) // End MONITOR dynamic field statistics
(PID.TID 0000.0001) // =======================================================
 cg2d: Sum(rhs),rhsMax =  -1.13686837721616E-13  7.36783319421048E-05
(PID.TID 0000.0001)                    cg2d_init_res =    7.85819162122130E-01
(PID.TID 0000.0001)                       cg2d_iters =   208
(PID.TID 0000.0001)                         cg2d_res =    7.78086436408451E-14
(PID.TID 0000.0001) // =======================================================
(PID.TID 0000.0001) // Begin MONITOR dynamic field statistics
(PID.TID 0000.0001) // =======================================================
(PID.TID 0000.0001) %MON time_tsnumber                =                    12
(PID.TID 0000.0001) %MON time_secondsf                =   2.1600000000000E+04
(PID.TID 0000.0001) %MON dynstat_eta_max              =   2.3120496993009E-05
(PID.TID 0000.0001) %MON dynstat_eta_min              =  -1.0878730332385E-05
(PID.TID 0000.0001) %MON dynstat_eta_mean             =  -1.3841663269987E-20
(PID.TID 0000.0001) %MON dynstat_eta_sd               =   1.2159261074083E-05
(PID.TID 0000.0001) %MON dynstat_eta_del2             =   3.1062807810024E-08
(PID.TID 0000.0001) %MON dynstat_uvel_max             =   2.1774701535092E-05
(PID.TID 0000.0001) %MON dynstat_uvel_min             =  -1.4445857137933E-04
(PID.TID 0000.0001) %MON dynstat_uvel_mean            =  -1.3154999421011E-08
(PID.TID 0000.0001) %MON dynstat_uvel_sd              =   9.3542419591007E-06
(PID.TID 0000.0001) %MON dynstat_uvel_del2            =   1.9755204672386E-08
(PID.TID 0000.0001) %MON dynstat_vvel_max             =   9.3686308008074E-05
(PID.TID 0000.0001) %MON dynstat_vvel_min             =  -1.4556244184865E-05
(PID.TID 0000.0001) %MON dynstat_vvel_mean            =  -1.8705469665369E-07
(PID.TID 0000.0001) %MON dynstat_vvel_sd              =   5.2904894853078E-06
(PID.TID 0000.0001) %MON dynstat_vvel_del2            =   1.3698355217416E-08
(PID.TID 0000.0001) %MON dynstat_wvel_max             =   7.1768492951967E-07
(PID.TID 0000.0001) %MON dynstat_wvel_min             =  -6.8684106948769E-07
(PID.TID 0000.0001) %MON dynstat_wvel_mean            =  -1.1645777006353E-10
(PID.TID 0000.0001) %MON dynstat_wvel_sd              =   2.4867009610938E-08
(PID.TID 0000.0001) %MON dynstat_wvel_del2            =   1.6617157995068E-10
(PID.TID 0000.0001) %MON dynstat_theta_max            =  -1.9000000000000E+00
(PID.TID 0000.0001) %MON dynstat_theta_min            =  -1.9081535223094E+00
(PID.TID 0000.0001) %MON dynstat_theta_mean           =  -1.9000687547332E+00
(PID.TID 0000.0001) %MON dynstat_theta_sd             =   5.3101788851883E-04
(PID.TID 0000.0001) %MON dynstat_theta_del2           =   6.1814856807143E-07
(PID.TID 0000.0001) %MON dynstat_salt_max             =   3.4400000000000E+01
(PID.TID 0000.0001) %MON dynstat_salt_min             =   3.4396672759791E+01
(PID.TID 0000.0001) %MON dynstat_salt_mean            =   3.4399972077899E+01
(PID.TID 0000.0001) %MON dynstat_salt_sd              =   2.1615347779684E-04
(PID.TID 0000.0001) %MON dynstat_salt_del2            =   2.5135541075018E-07
(PID.TID 0000.0001) %MON advcfl_uvel_max              =   4.2982788153072E-05
(PID.TID 0000.0001) %MON advcfl_vvel_max              =   1.5168122581861E-05
(PID.TID 0000.0001) %MON advcfl_wvel_max              =   4.3061095771180E-05
(PID.TID 0000.0001) %MON advcfl_W_hf_max              =   5.0316626662095E-05
(PID.TID 0000.0001) %MON pe_b_mean                    =  -3.5994128881987E-08
(PID.TID 0000.0001) %MON ke_max                       =   1.2674026365288E-08
(PID.TID 0000.0001) %MON ke_mean                      =   5.6687371729048E-11
(PID.TID 0000.0001) %MON ke_vol                       =   3.4703745874271E+14
(PID.TID 0000.0001) %MON vort_r_min                   =  -1.5861964959163E-08
(PID.TID 0000.0001) %MON vort_r_max                   =   1.5376834365750E-08
(PID.TID 0000.0001) %MON vort_a_mean                  =  -1.3992981959776E-04
(PID.TID 0000.0001) %MON vort_a_sd                    =   1.7365060495555E-06
(PID.TID 0000.0001) %MON vort_p_mean                  =  -1.4746660582883E-04
(PID.TID 0000.0001) %MON vort_p_sd                    =   7.7972247855792E-05
(PID.TID 0000.0001) %MON surfExpan_theta_mean         =  -1.0216728708582E-12
(PID.TID 0000.0001) %MON surfExpan_salt_mean          =  -4.1523160096089E-13
(PID.TID 0000.0001) // =======================================================
(PID.TID 0000.0001) // End MONITOR dynamic field statistics
(PID.TID 0000.0001) // =======================================================
 cg2d: Sum(rhs),rhsMax =  -1.49213974509621E-13  7.93559406992248E-05
(PID.TID 0000.0001)                    cg2d_init_res =    7.25470169361615E-01
(PID.TID 0000.0001)                       cg2d_iters =   204
(PID.TID 0000.0001)                         cg2d_res =    9.99191054875117E-14
(PID.TID 0000.0001) // =======================================================
(PID.TID 0000.0001) // Begin MONITOR dynamic field statistics
(PID.TID 0000.0001) // =======================================================
(PID.TID 0000.0001) %MON time_tsnumber                =                    13
(PID.TID 0000.0001) %MON time_secondsf                =   2.3400000000000E+04
(PID.TID 0000.0001) %MON dynstat_eta_max              =   2.4688513576415E-05
(PID.TID 0000.0001) %MON dynstat_eta_min              =  -1.1380990744509E-05
(PID.TID 0000.0001) %MON dynstat_eta_mean             =   6.3884599707632E-21
(PID.TID 0000.0001) %MON dynstat_eta_sd               =   1.2890519110703E-05
(PID.TID 0000.0001) %MON dynstat_eta_del2             =   3.3641997679510E-08
(PID.TID 0000.0001) %MON dynstat_uvel_max             =   2.5066426159849E-05
(PID.TID 0000.0001) %MON dynstat_uvel_min             =  -1.6565766979318E-04
(PID.TID 0000.0001) %MON dynstat_uvel_mean            =  -1.1496816341119E-08
(PID.TID 0000.0001) %MON dynstat_uvel_sd              =   1.0744768572944E-05
(PID.TID 0000.0001) %MON dynstat_uvel_del2            =   2.2647617330949E-08
(PID.TID 0000.0001) %MON dynstat_vvel_max             =   9.3555805300797E-05
(PID.TID 0000.0001) %MON dynstat_vvel_min             =  -1.4758295864117E-05
(PID.TID 0000.0001) %MON dynstat_vvel_mean            =  -1.4428825780915E-07
(PID.TID 0000.0001) %MON dynstat_vvel_sd              =   5.2316867777683E-06
(PID.TID 0000.0001) %MON dynstat_vvel_del2            =   1.3671539347186E-08
(PID.TID 0000.0001) %MON dynstat_wvel_max             =   8.1162616852320E-07
(PID.TID 0000.0001) %MON dynstat_wvel_min             =  -7.7362388640241E-07
(PID.TID 0000.0001) %MON dynstat_wvel_mean            =  -8.9710474540710E-11
(PID.TID 0000.0001) %MON dynstat_wvel_sd              =   2.7121969428343E-08
(PID.TID 0000.0001) %MON dynstat_wvel_del2            =   1.6923146465441E-10
(PID.TID 0000.0001) %MON dynstat_theta_max            =  -1.9000000000000E+00
(PID.TID 0000.0001) %MON dynstat_theta_min            =  -1.9088268611206E+00
(PID.TID 0000.0001) %MON dynstat_theta_mean           =  -1.9000744415542E+00
(PID.TID 0000.0001) %MON dynstat_theta_sd             =   5.7482349711741E-04
(PID.TID 0000.0001) %MON dynstat_theta_del2           =   6.6829810522940E-07
(PID.TID 0000.0001) %MON dynstat_salt_max             =   3.4400000000000E+01
(PID.TID 0000.0001) %MON dynstat_salt_min             =   3.4396397999870E+01
(PID.TID 0000.0001) %MON dynstat_salt_mean            =   3.4399969768581E+01
(PID.TID 0000.0001) %MON dynstat_salt_sd              =   2.3398364017742E-04
(PID.TID 0000.0001) %MON dynstat_salt_del2            =   2.7174571796754E-07
(PID.TID 0000.0001) %MON advcfl_uvel_max              =   4.9290453717382E-05
(PID.TID 0000.0001) %MON advcfl_vvel_max              =   1.5146993762684E-05
(PID.TID 0000.0001) %MON advcfl_wvel_max              =   4.8697570111392E-05
(PID.TID 0000.0001) %MON advcfl_W_hf_max              =   5.6111786642548E-05
(PID.TID 0000.0001) %MON pe_b_mean                    =  -3.8160295147751E-08
(PID.TID 0000.0001) %MON ke_max                       =   1.5906909809561E-08
(PID.TID 0000.0001) %MON ke_mean                      =   7.0063951348632E-11
(PID.TID 0000.0001) %MON ke_vol                       =   3.4703745874271E+14
(PID.TID 0000.0001) %MON vort_r_min                   =  -1.5839869634735E-08
(PID.TID 0000.0001) %MON vort_r_max                   =   1.5304926050715E-08
(PID.TID 0000.0001) %MON vort_a_mean                  =  -1.3992981960474E-04
(PID.TID 0000.0001) %MON vort_a_sd                    =   1.7365058828986E-06
(PID.TID 0000.0001) %MON vort_p_mean                  =  -1.4746660583619E-04
(PID.TID 0000.0001) %MON vort_p_sd                    =   7.7972041966058E-05
(PID.TID 0000.0001) %MON surfExpan_theta_mean         =  -8.4823341857299E-13
(PID.TID 0000.0001) %MON surfExpan_salt_mean          =  -3.4452053970245E-13
(PID.TID 0000.0001) // =======================================================
(PID.TID 0000.0001) // End MONITOR dynamic field statistics
(PID.TID 0000.0001) // =======================================================
 cg2d: Sum(rhs),rhsMax =  -5.68434188608080E-14  8.49898145136467E-05
(PID.TID 0000.0001)                    cg2d_init_res =    6.73478209909354E-01
(PID.TID 0000.0001)                       cg2d_iters =   206
(PID.TID 0000.0001)                         cg2d_res =    9.77197104292536E-14
(PID.TID 0000.0001) // =======================================================
(PID.TID 0000.0001) // Begin MONITOR dynamic field statistics
(PID.TID 0000.0001) // =======================================================
(PID.TID 0000.0001) %MON time_tsnumber                =                    14
(PID.TID 0000.0001) %MON time_secondsf                =   2.5200000000000E+04
(PID.TID 0000.0001) %MON dynstat_eta_max              =   2.5997205912299E-05
(PID.TID 0000.0001) %MON dynstat_eta_min              =  -1.1733888986759E-05
(PID.TID 0000.0001) %MON dynstat_eta_mean             =   4.2589733138421E-21
(PID.TID 0000.0001) %MON dynstat_eta_sd               =   1.3482844111802E-05
(PID.TID 0000.0001) %MON dynstat_eta_del2             =   3.6204476411119E-08
(PID.TID 0000.0001) %MON dynstat_uvel_max             =   2.8225546139077E-05
(PID.TID 0000.0001) %MON dynstat_uvel_min             =  -1.8593678527045E-04
(PID.TID 0000.0001) %MON dynstat_uvel_mean            =  -8.4994632970873E-09
(PID.TID 0000.0001) %MON dynstat_uvel_sd              =   1.2076290898267E-05
(PID.TID 0000.0001) %MON dynstat_uvel_del2            =   2.5437608144045E-08
(PID.TID 0000.0001) %MON dynstat_vvel_max             =   9.1225204781468E-05
(PID.TID 0000.0001) %MON dynstat_vvel_min             =  -1.4640442789086E-05
(PID.TID 0000.0001) %MON dynstat_vvel_mean            =  -1.0921582561915E-07
(PID.TID 0000.0001) %MON dynstat_vvel_sd              =   5.0330128552038E-06
(PID.TID 0000.0001) %MON dynstat_vvel_del2            =   1.3339863807565E-08
(PID.TID 0000.0001) %MON dynstat_wvel_max             =   9.0022494102903E-07
(PID.TID 0000.0001) %MON dynstat_wvel_min             =  -8.5475331343939E-07
(PID.TID 0000.0001) %MON dynstat_wvel_mean            =  -6.8020590678667E-11
(PID.TID 0000.0001) %MON dynstat_wvel_sd              =   2.9210134934216E-08
(PID.TID 0000.0001) %MON dynstat_wvel_del2            =   1.6966968877197E-10
(PID.TID 0000.0001) %MON dynstat_theta_max            =  -1.9000000000000E+00
(PID.TID 0000.0001) %MON dynstat_theta_min            =  -1.9094992774989E+00
(PID.TID 0000.0001) %MON dynstat_theta_mean           =  -1.9000801219044E+00
(PID.TID 0000.0001) %MON dynstat_theta_sd             =   6.1856171985889E-04
(PID.TID 0000.0001) %MON dynstat_theta_del2           =   7.1824486618739E-07
(PID.TID 0000.0001) %MON dynstat_salt_max             =   3.4400000000000E+01
(PID.TID 0000.0001) %MON dynstat_salt_min             =   3.4396123618188E+01
(PID.TID 0000.0001) %MON dynstat_salt_mean            =   3.4399967461917E+01
(PID.TID 0000.0001) %MON dynstat_salt_sd              =   2.5178620294625E-04
(PID.TID 0000.0001) %MON dynstat_salt_del2            =   2.9205329566836E-07
(PID.TID 0000.0001) %MON advcfl_uvel_max              =   5.5324383834289E-05
(PID.TID 0000.0001) %MON advcfl_vvel_max              =   1.4769661843878E-05
(PID.TID 0000.0001) %MON advcfl_wvel_max              =   5.4013496461742E-05
(PID.TID 0000.0001) %MON advcfl_W_hf_max              =   6.1445585193640E-05
(PID.TID 0000.0001) %MON pe_b_mean                    =  -3.9904334728305E-08
(PID.TID 0000.0001) %MON ke_max                       =   1.9305161515370E-08
(PID.TID 0000.0001) %MON ke_mean                      =   8.3936488049010E-11
(PID.TID 0000.0001) %MON ke_vol                       =   3.4703745874271E+14
(PID.TID 0000.0001) %MON vort_r_min                   =  -1.5445277249173E-08
(PID.TID 0000.0001) %MON vort_r_max                   =   1.4869079873826E-08
(PID.TID 0000.0001) %MON vort_a_mean                  =  -1.3992981961559E-04
(PID.TID 0000.0001) %MON vort_a_sd                    =   1.7365057089479E-06
(PID.TID 0000.0001) %MON vort_p_mean                  =  -1.4746660584762E-04
(PID.TID 0000.0001) %MON vort_p_sd                    =   7.7971844654240E-05
(PID.TID 0000.0001) %MON surfExpan_theta_mean         =  -6.8810853827765E-13
(PID.TID 0000.0001) %MON surfExpan_salt_mean          =  -2.7924669676218E-13
(PID.TID 0000.0001) // =======================================================
(PID.TID 0000.0001) // End MONITOR dynamic field statistics
(PID.TID 0000.0001) // =======================================================
 cg2d: Sum(rhs),rhsMax =  -2.70006239588838E-13  9.05950251653516E-05
(PID.TID 0000.0001)                    cg2d_init_res =    6.28109963406149E-01
(PID.TID 0000.0001)                       cg2d_iters =   206
(PID.TID 0000.0001)                         cg2d_res =    9.73888359648675E-14
(PID.TID 0000.0001) // =======================================================
(PID.TID 0000.0001) // Begin MONITOR dynamic field statistics
(PID.TID 0000.0001) // =======================================================
(PID.TID 0000.0001) %MON time_tsnumber                =                    15
(PID.TID 0000.0001) %MON time_secondsf                =   2.7000000000000E+04
(PID.TID 0000.0001) %MON dynstat_eta_max              =   2.7018262369779E-05
(PID.TID 0000.0001) %MON dynstat_eta_min              =  -1.1982923712414E-05
(PID.TID 0000.0001) %MON dynstat_eta_mean             =  -1.0647433284605E-21
(PID.TID 0000.0001) %MON dynstat_eta_sd               =   1.3979402949612E-05
(PID.TID 0000.0001) %MON dynstat_eta_del2             =   3.8750533358622E-08
(PID.TID 0000.0001) %MON dynstat_uvel_max             =   3.1174080194361E-05
(PID.TID 0000.0001) %MON dynstat_uvel_min             =  -2.0482940770206E-04
(PID.TID 0000.0001) %MON dynstat_uvel_mean            =  -4.5517078034367E-09
(PID.TID 0000.0001) %MON dynstat_uvel_sd              =   1.3316387407997E-05
(PID.TID 0000.0001) %MON dynstat_uvel_del2            =   2.8067467227935E-08
(PID.TID 0000.0001) %MON dynstat_vvel_max             =   8.7033987185021E-05
(PID.TID 0000.0001) %MON dynstat_vvel_min             =  -1.4273297802461E-05
(PID.TID 0000.0001) %MON dynstat_vvel_mean            =  -8.4862284066759E-08
(PID.TID 0000.0001) %MON dynstat_vvel_sd              =   4.7152390023398E-06
(PID.TID 0000.0001) %MON dynstat_vvel_del2            =   1.2753339677333E-08
(PID.TID 0000.0001) %MON dynstat_wvel_max             =   9.8185323630734E-07
(PID.TID 0000.0001) %MON dynstat_wvel_min             =  -9.2874928933471E-07
(PID.TID 0000.0001) %MON dynstat_wvel_mean            =  -5.3251597724340E-11
(PID.TID 0000.0001) %MON dynstat_wvel_sd              =   3.1123318412471E-08
(PID.TID 0000.0001) %MON dynstat_wvel_del2            =   1.6814528413196E-10
(PID.TID 0000.0001) %MON dynstat_theta_max            =  -1.9000000000000E+00
(PID.TID 0000.0001) %MON dynstat_theta_min            =  -1.9101707740364E+00
(PID.TID 0000.0001) %MON dynstat_theta_mean           =  -1.9000857957952E+00
(PID.TID 0000.0001) %MON dynstat_theta_sd             =   6.6223269916496E-04
(PID.TID 0000.0001) %MON dynstat_theta_del2           =   7.6798983038650E-07
(PID.TID 0000.0001) %MON dynstat_salt_max             =   3.4400000000000E+01
(PID.TID 0000.0001) %MON dynstat_salt_min             =   3.4395849613680E+01
(PID.TID 0000.0001) %MON dynstat_salt_mean            =   3.4399965157900E+01
(PID.TID 0000.0001) %MON dynstat_salt_sd              =   2.6956122459374E-04
(PID.TID 0000.0001) %MON dynstat_salt_del2            =   3.1227854339311E-07
(PID.TID 0000.0001) %MON advcfl_uvel_max              =   6.0945771197325E-05
(PID.TID 0000.0001) %MON advcfl_vvel_max              =   1.4091089877261E-05
(PID.TID 0000.0001) %MON advcfl_wvel_max              =   5.8911194178441E-05
(PID.TID 0000.0001) %MON advcfl_W_hf_max              =   6.6243993289234E-05
(PID.TID 0000.0001) %MON pe_b_mean                    =  -4.1353687825350E-08
(PID.TID 0000.0001) %MON ke_max                       =   2.2746616927283E-08
(PID.TID 0000.0001) %MON ke_mean                      =   9.7828845488678E-11
(PID.TID 0000.0001) %MON ke_vol                       =   3.4703745874271E+14
(PID.TID 0000.0001) %MON vort_r_min                   =  -1.4735665054344E-08
(PID.TID 0000.0001) %MON vort_r_max                   =   1.4128192039335E-08
(PID.TID 0000.0001) %MON vort_a_mean                  =  -1.3992981962873E-04
(PID.TID 0000.0001) %MON vort_a_sd                    =   1.7365055365357E-06
(PID.TID 0000.0001) %MON vort_p_mean                  =  -1.4746660586148E-04
(PID.TID 0000.0001) %MON vort_p_sd                    =   7.7971660646837E-05
(PID.TID 0000.0001) %MON surfExpan_theta_mean         =  -5.7321310499408E-13
(PID.TID 0000.0001) %MON surfExpan_salt_mean          =  -2.3240921586068E-13
(PID.TID 0000.0001) // =======================================================
(PID.TID 0000.0001) // End MONITOR dynamic field statistics
(PID.TID 0000.0001) // =======================================================
 cg2d: Sum(rhs),rhsMax =  -4.97379915032070E-14  9.64379787901256E-05
(PID.TID 0000.0001)                    cg2d_init_res =    5.86553391696637E-01
(PID.TID 0000.0001)                       cg2d_iters =   205
(PID.TID 0000.0001)                         cg2d_res =    9.53090830046064E-14
(PID.TID 0000.0001) // =======================================================
(PID.TID 0000.0001) // Begin MONITOR dynamic field statistics
(PID.TID 0000.0001) // =======================================================
(PID.TID 0000.0001) %MON time_tsnumber                =                    16
(PID.TID 0000.0001) %MON time_secondsf                =   2.8800000000000E+04
(PID.TID 0000.0001) %MON dynstat_eta_max              =   2.7827562123672E-05
(PID.TID 0000.0001) %MON dynstat_eta_min              =  -1.2284190019992E-05
(PID.TID 0000.0001) %MON dynstat_eta_mean             =  -1.3841663269987E-20
(PID.TID 0000.0001) %MON dynstat_eta_sd               =   1.4427768382011E-05
(PID.TID 0000.0001) %MON dynstat_eta_del2             =   4.1280541108065E-08
(PID.TID 0000.0001) %MON dynstat_uvel_max             =   3.3851488685105E-05
(PID.TID 0000.0001) %MON dynstat_uvel_min             =  -2.2198667566699E-04
(PID.TID 0000.0001) %MON dynstat_uvel_mean            =  -8.9300003777014E-11
(PID.TID 0000.0001) %MON dynstat_uvel_sd              =   1.4440166510372E-05
(PID.TID 0000.0001) %MON dynstat_uvel_del2            =   3.0494250176007E-08
(PID.TID 0000.0001) %MON dynstat_vvel_max             =   8.1421907838721E-05
(PID.TID 0000.0001) %MON dynstat_vvel_min             =  -1.3729378572136E-05
(PID.TID 0000.0001) %MON dynstat_vvel_mean            =  -7.2529806401311E-08
(PID.TID 0000.0001) %MON dynstat_vvel_sd              =   4.3061584926471E-06
(PID.TID 0000.0001) %MON dynstat_vvel_del2            =   1.1974406825326E-08
(PID.TID 0000.0001) %MON dynstat_wvel_max             =   1.0554474655862E-06
(PID.TID 0000.0001) %MON dynstat_wvel_min             =  -9.9468765609676E-07
(PID.TID 0000.0001) %MON dynstat_wvel_mean            =  -4.6163436405164E-11
(PID.TID 0000.0001) %MON dynstat_wvel_sd              =   3.2858305983819E-08
(PID.TID 0000.0001) %MON dynstat_wvel_del2            =   1.6541688343854E-10
(PID.TID 0000.0001) %MON dynstat_theta_max            =  -1.9000000000000E+00
(PID.TID 0000.0001) %MON dynstat_theta_min            =  -1.9108413531661E+00
(PID.TID 0000.0001) %MON dynstat_theta_mean           =  -1.9000914632374E+00
(PID.TID 0000.0001) %MON dynstat_theta_sd             =   7.0583657663345E-04
(PID.TID 0000.0001) %MON dynstat_theta_del2           =   8.1753396565644E-07
(PID.TID 0000.0001) %MON dynstat_salt_max             =   3.4400000000000E+01
(PID.TID 0000.0001) %MON dynstat_salt_min             =   3.4395575985347E+01
(PID.TID 0000.0001) %MON dynstat_salt_mean            =   3.4399962856528E+01
(PID.TID 0000.0001) %MON dynstat_salt_sd              =   2.8730876327256E-04
(PID.TID 0000.0001) %MON dynstat_salt_del2            =   3.3242185608018E-07
(PID.TID 0000.0001) %MON advcfl_uvel_max              =   6.6050814166949E-05
(PID.TID 0000.0001) %MON advcfl_vvel_max              =   1.3182475702216E-05
(PID.TID 0000.0001) %MON advcfl_wvel_max              =   6.3326847935169E-05
(PID.TID 0000.0001) %MON advcfl_W_hf_max              =   7.0474070392673E-05
(PID.TID 0000.0001) %MON pe_b_mean                    =  -4.2651367192838E-08
(PID.TID 0000.0001) %MON ke_max                       =   2.6112236256535E-08
(PID.TID 0000.0001) %MON ke_mean                      =   1.1128455559952E-10
(PID.TID 0000.0001) %MON ke_vol                       =   3.4703745874271E+14
(PID.TID 0000.0001) %MON vort_r_min                   =  -1.3785487725001E-08
(PID.TID 0000.0001) %MON vort_r_max                   =   1.3157293803239E-08
(PID.TID 0000.0001) %MON vort_a_mean                  =  -1.3992981964242E-04
(PID.TID 0000.0001) %MON vort_a_sd                    =   1.7365053761341E-06
(PID.TID 0000.0001) %MON vort_p_mean                  =  -1.4746660587590E-04
(PID.TID 0000.0001) %MON vort_p_sd                    =   7.7971493593439E-05
(PID.TID 0000.0001) %MON surfExpan_theta_mean         =  -5.2780562578729E-13
(PID.TID 0000.0001) %MON surfExpan_salt_mean          =  -2.1388736347076E-13
(PID.TID 0000.0001) // =======================================================
(PID.TID 0000.0001) // End MONITOR dynamic field statistics
(PID.TID 0000.0001) // =======================================================
 cg2d: Sum(rhs),rhsMax =   9.23705556488130E-14  1.02688835972755E-04
(PID.TID 0000.0001)                    cg2d_init_res =    5.47551326543652E-01
(PID.TID 0000.0001)                       cg2d_iters =   204
(PID.TID 0000.0001)                         cg2d_res =    9.69026649644164E-14
(PID.TID 0000.0001) // =======================================================
(PID.TID 0000.0001) // Begin MONITOR dynamic field statistics
(PID.TID 0000.0001) // =======================================================
(PID.TID 0000.0001) %MON time_tsnumber                =                    17
(PID.TID 0000.0001) %MON time_secondsf                =   3.0600000000000E+04
(PID.TID 0000.0001) %MON dynstat_eta_max              =   2.8511141861790E-05
(PID.TID 0000.0001) %MON dynstat_eta_min              =  -1.2967107089470E-05
(PID.TID 0000.0001) %MON dynstat_eta_mean             =  -1.5971149926908E-20
(PID.TID 0000.0001) %MON dynstat_eta_sd               =   1.4873599115946E-05
(PID.TID 0000.0001) %MON dynstat_eta_del2             =   4.3794912213175E-08
(PID.TID 0000.0001) %MON dynstat_uvel_max             =   3.6217700297933E-05
(PID.TID 0000.0001) %MON dynstat_uvel_min             =  -2.3719100434740E-04
(PID.TID 0000.0001) %MON dynstat_uvel_mean            =   4.4323544758151E-09
(PID.TID 0000.0001) %MON dynstat_uvel_sd              =   1.5431528235588E-05
(PID.TID 0000.0001) %MON dynstat_uvel_del2            =   3.2691471108055E-08
(PID.TID 0000.0001) %MON dynstat_vvel_max             =   7.4893885334319E-05
(PID.TID 0000.0001) %MON dynstat_vvel_min             =  -1.3034193816129E-05
(PID.TID 0000.0001) %MON dynstat_vvel_mean            =  -7.1936939130855E-08
(PID.TID 0000.0001) %MON dynstat_vvel_sd              =   3.8384994731811E-06
(PID.TID 0000.0001) %MON dynstat_vvel_del2            =   1.1072940474689E-08
(PID.TID 0000.0001) %MON dynstat_wvel_max             =   1.1205367520717E-06
(PID.TID 0000.0001) %MON dynstat_wvel_min             =  -1.0657978268512E-06
(PID.TID 0000.0001) %MON dynstat_wvel_mean            =  -4.6517992506016E-11
(PID.TID 0000.0001) %MON dynstat_wvel_sd              =   3.4416493427476E-08
(PID.TID 0000.0001) %MON dynstat_wvel_del2            =   1.6225625258091E-10
(PID.TID 0000.0001) %MON dynstat_theta_max            =  -1.9000000000000E+00
(PID.TID 0000.0001) %MON dynstat_theta_min            =  -1.9115110171283E+00
(PID.TID 0000.0001) %MON dynstat_theta_mean           =  -1.9000971242423E+00
(PID.TID 0000.0001) %MON dynstat_theta_sd             =   7.4937349318025E-04
(PID.TID 0000.0001) %MON dynstat_theta_del2           =   8.6687823269256E-07
(PID.TID 0000.0001) %MON dynstat_salt_max             =   3.4400000000000E+01
(PID.TID 0000.0001) %MON dynstat_salt_min             =   3.4395302732266E+01
(PID.TID 0000.0001) %MON dynstat_salt_mean            =   3.4399960557795E+01
(PID.TID 0000.0001) %MON dynstat_salt_sd              =   3.0502887685583E-04
(PID.TID 0000.0001) %MON dynstat_salt_del2            =   3.5248362586795E-07
(PID.TID 0000.0001) %MON advcfl_uvel_max              =   7.0574771675597E-05
(PID.TID 0000.0001) %MON advcfl_vvel_max              =   1.2125567305789E-05
(PID.TID 0000.0001) %MON advcfl_wvel_max              =   6.7232205124301E-05
(PID.TID 0000.0001) %MON advcfl_W_hf_max              =   7.4142968195892E-05
(PID.TID 0000.0001) %MON pe_b_mean                    =  -4.3937048316312E-08
(PID.TID 0000.0001) %MON ke_max                       =   2.9298625830124E-08
(PID.TID 0000.0001) %MON ke_mean                      =   1.2390956930102E-10
(PID.TID 0000.0001) %MON ke_vol                       =   3.4703745874271E+14
(PID.TID 0000.0001) %MON vort_r_min                   =  -1.2680232683800E-08
(PID.TID 0000.0001) %MON vort_r_max                   =   1.2050650875936E-08
(PID.TID 0000.0001) %MON vort_a_mean                  =  -1.3992981965487E-04
(PID.TID 0000.0001) %MON vort_a_sd                    =   1.7365052351085E-06
(PID.TID 0000.0001) %MON vort_p_mean                  =  -1.4746660588902E-04
(PID.TID 0000.0001) %MON vort_p_sd                    =   7.7971345888568E-05
(PID.TID 0000.0001) %MON surfExpan_theta_mean         =  -5.6575769683337E-13
(PID.TID 0000.0001) %MON surfExpan_salt_mean          =  -2.2932864690133E-13
(PID.TID 0000.0001) // =======================================================
(PID.TID 0000.0001) // End MONITOR dynamic field statistics
(PID.TID 0000.0001) // =======================================================
 cg2d: Sum(rhs),rhsMax =  -1.56319401867222E-13  1.08847693707210E-04
(PID.TID 0000.0001)                    cg2d_init_res =    5.13463241185724E-01
(PID.TID 0000.0001)                       cg2d_iters =   204
(PID.TID 0000.0001)                         cg2d_res =    8.57677170982342E-14
(PID.TID 0000.0001) // =======================================================
(PID.TID 0000.0001) // Begin MONITOR dynamic field statistics
(PID.TID 0000.0001) // =======================================================
(PID.TID 0000.0001) %MON time_tsnumber                =                    18
(PID.TID 0000.0001) %MON time_secondsf                =   3.2400000000000E+04
(PID.TID 0000.0001) %MON dynstat_eta_max              =   2.9155354957020E-05
(PID.TID 0000.0001) %MON dynstat_eta_min              =  -1.3569114672408E-05
(PID.TID 0000.0001) %MON dynstat_eta_mean             =  -1.2776919941526E-20
(PID.TID 0000.0001) %MON dynstat_eta_sd               =   1.5355988215346E-05
(PID.TID 0000.0001) %MON dynstat_eta_del2             =   4.6294064793749E-08
(PID.TID 0000.0001) %MON dynstat_uvel_max             =   3.8254646007501E-05
(PID.TID 0000.0001) %MON dynstat_uvel_min             =  -2.5036427508246E-04
(PID.TID 0000.0001) %MON dynstat_uvel_mean            =   8.5859576584010E-09
(PID.TID 0000.0001) %MON dynstat_uvel_sd              =   1.6283788102577E-05
(PID.TID 0000.0001) %MON dynstat_uvel_del2            =   3.4649578590423E-08
(PID.TID 0000.0001) %MON dynstat_vvel_max             =   6.7982837006340E-05
(PID.TID 0000.0001) %MON dynstat_vvel_min             =  -1.2252690057792E-05
(PID.TID 0000.0001) %MON dynstat_vvel_mean            =  -8.1542567465358E-08
(PID.TID 0000.0001) %MON dynstat_vvel_sd              =   3.3476029730199E-06
(PID.TID 0000.0001) %MON dynstat_vvel_del2            =   1.0121094976844E-08
(PID.TID 0000.0001) %MON dynstat_wvel_max             =   1.1810563671245E-06
(PID.TID 0000.0001) %MON dynstat_wvel_min             =  -1.1320154113125E-06
(PID.TID 0000.0001) %MON dynstat_wvel_mean            =  -5.3293341945512E-11
(PID.TID 0000.0001) %MON dynstat_wvel_sd              =   3.5804149489713E-08
(PID.TID 0000.0001) %MON dynstat_wvel_del2            =   1.5935676286172E-10
(PID.TID 0000.0001) %MON dynstat_theta_max            =  -1.9000000000000E+00
(PID.TID 0000.0001) %MON dynstat_theta_min            =  -1.9121797679516E+00
(PID.TID 0000.0001) %MON dynstat_theta_mean           =  -1.9001027788208E+00
(PID.TID 0000.0001) %MON dynstat_theta_sd             =   7.9284358920482E-04
(PID.TID 0000.0001) %MON dynstat_theta_del2           =   9.1602358935499E-07
(PID.TID 0000.0001) %MON dynstat_salt_max             =   3.4400000000000E+01
(PID.TID 0000.0001) %MON dynstat_salt_min             =   3.4395029853605E+01
(PID.TID 0000.0001) %MON dynstat_salt_mean            =   3.4399958261696E+01
(PID.TID 0000.0001) %MON dynstat_salt_sd              =   3.2272162300441E-04
(PID.TID 0000.0001) %MON dynstat_salt_del2            =   3.7246424382931E-07
(PID.TID 0000.0001) %MON advcfl_uvel_max              =   7.4494399980666E-05
(PID.TID 0000.0001) %MON advcfl_vvel_max              =   1.1006645763925E-05
(PID.TID 0000.0001) %MON advcfl_wvel_max              =   7.0863382027473E-05
(PID.TID 0000.0001) %MON advcfl_W_hf_max              =   7.7294452545590E-05
(PID.TID 0000.0001) %MON pe_b_mean                    =  -4.5332193357225E-08
(PID.TID 0000.0001) %MON ke_max                       =   3.2228470488001E-08
(PID.TID 0000.0001) %MON ke_mean                      =   1.3540856397494E-10
(PID.TID 0000.0001) %MON ke_vol                       =   3.4703745874271E+14
(PID.TID 0000.0001) %MON vort_r_min                   =  -1.1510127801451E-08
(PID.TID 0000.0001) %MON vort_r_max                   =   1.2115214970760E-08
(PID.TID 0000.0001) %MON vort_a_mean                  =  -1.3992981966447E-04
(PID.TID 0000.0001) %MON vort_a_sd                    =   1.7365051227247E-06
(PID.TID 0000.0001) %MON vort_p_mean                  =  -1.4746660589913E-04
(PID.TID 0000.0001) %MON vort_p_sd                    =   7.7971218581942E-05
(PID.TID 0000.0001) %MON surfExpan_theta_mean         =  -6.8975178733124E-13
(PID.TID 0000.0001) %MON surfExpan_salt_mean          =  -2.7982238792724E-13
(PID.TID 0000.0001) // =======================================================
(PID.TID 0000.0001) // End MONITOR dynamic field statistics
(PID.TID 0000.0001) // =======================================================
 cg2d: Sum(rhs),rhsMax =   7.10542735760100E-15  1.14913040544647E-04
(PID.TID 0000.0001)                    cg2d_init_res =    4.83435256541346E-01
(PID.TID 0000.0001)                       cg2d_iters =   203
(PID.TID 0000.0001)                         cg2d_res =    8.92621948968516E-14
(PID.TID 0000.0001) // =======================================================
(PID.TID 0000.0001) // Begin MONITOR dynamic field statistics
(PID.TID 0000.0001) // =======================================================
(PID.TID 0000.0001) %MON time_tsnumber                =                    19
(PID.TID 0000.0001) %MON time_secondsf                =   3.4200000000000E+04
(PID.TID 0000.0001) %MON dynstat_eta_max              =   2.9838916707161E-05
(PID.TID 0000.0001) %MON dynstat_eta_min              =  -1.4105914921232E-05
(PID.TID 0000.0001) %MON dynstat_eta_mean             =  -1.0647433284605E-21
(PID.TID 0000.0001) %MON dynstat_eta_sd               =   1.5904674646375E-05
(PID.TID 0000.0001) %MON dynstat_eta_del2             =   4.8778399881518E-08
(PID.TID 0000.0001) %MON dynstat_uvel_max             =   3.9966292774346E-05
(PID.TID 0000.0001) %MON dynstat_uvel_min             =  -2.6156505564918E-04
(PID.TID 0000.0001) %MON dynstat_uvel_mean            =   1.2023725119172E-08
(PID.TID 0000.0001) %MON dynstat_uvel_sd              =   1.6999653014580E-05
(PID.TID 0000.0001) %MON dynstat_uvel_del2            =   3.6375268654312E-08
(PID.TID 0000.0001) %MON dynstat_vvel_max             =   6.1330876355871E-05
(PID.TID 0000.0001) %MON dynstat_vvel_min             =  -1.1449645365363E-05
(PID.TID 0000.0001) %MON dynstat_vvel_mean            =  -9.8968952449654E-08
(PID.TID 0000.0001) %MON dynstat_vvel_sd              =   2.8689727982566E-06
(PID.TID 0000.0001) %MON dynstat_vvel_del2            =   9.1882726474826E-09
(PID.TID 0000.0001) %MON dynstat_wvel_max             =   1.2359299203827E-06
(PID.TID 0000.0001) %MON dynstat_wvel_min             =  -1.1904304636527E-06
(PID.TID 0000.0001) %MON dynstat_wvel_mean            =  -6.4952686799663E-11
(PID.TID 0000.0001) %MON dynstat_wvel_sd              =   3.7033147631159E-08
(PID.TID 0000.0001) %MON dynstat_wvel_del2            =   1.5725342848716E-10
(PID.TID 0000.0001) %MON dynstat_theta_max            =  -1.9000000000000E+00
(PID.TID 0000.0001) %MON dynstat_theta_min            =  -1.9128476074511E+00
(PID.TID 0000.0001) %MON dynstat_theta_mean           =  -1.9001084269838E+00
(PID.TID 0000.0001) %MON dynstat_theta_sd             =   8.3624700474882E-04
(PID.TID 0000.0001) %MON dynstat_theta_del2           =   9.6497099440096E-07
(PID.TID 0000.0001) %MON dynstat_salt_max             =   3.4400000000000E+01
(PID.TID 0000.0001) %MON dynstat_salt_min             =   3.4394757348616E+01
(PID.TID 0000.0001) %MON dynstat_salt_mean            =   3.4399955968228E+01
(PID.TID 0000.0001) %MON dynstat_salt_sd              =   3.4038705923181E-04
(PID.TID 0000.0001) %MON dynstat_salt_del2            =   3.9236410147617E-07
(PID.TID 0000.0001) %MON advcfl_uvel_max              =   7.7827125575632E-05
(PID.TID 0000.0001) %MON advcfl_vvel_max              =   9.9296713724555E-06
(PID.TID 0000.0001) %MON advcfl_wvel_max              =   7.4155795222963E-05
(PID.TID 0000.0001) %MON advcfl_W_hf_max              =   8.0003299028454E-05
(PID.TID 0000.0001) %MON pe_b_mean                    =  -4.6930239940659E-08
(PID.TID 0000.0001) %MON ke_max                       =   3.4857970905002E-08
(PID.TID 0000.0001) %MON ke_mean                      =   1.4561194786079E-10
(PID.TID 0000.0001) %MON ke_vol                       =   3.4703745874271E+14
(PID.TID 0000.0001) %MON vort_r_min                   =  -1.0363930526523E-08
(PID.TID 0000.0001) %MON vort_r_max                   =   1.2654662791937E-08
(PID.TID 0000.0001) %MON vort_a_mean                  =  -1.3992981966993E-04
(PID.TID 0000.0001) %MON vort_a_sd                    =   1.7365050429088E-06
(PID.TID 0000.0001) %MON vort_p_mean                  =  -1.4746660590490E-04
(PID.TID 0000.0001) %MON vort_p_sd                    =   7.7971111377424E-05
(PID.TID 0000.0001) %MON surfExpan_theta_mean         =  -8.9220228255051E-13
(PID.TID 0000.0001) %MON surfExpan_salt_mean          =  -3.6227515726664E-13
(PID.TID 0000.0001) // =======================================================
(PID.TID 0000.0001) // End MONITOR dynamic field statistics
(PID.TID 0000.0001) // =======================================================
 cg2d: Sum(rhs),rhsMax =  -5.68434188608080E-14  1.20886842003697E-04
(PID.TID 0000.0001)                    cg2d_init_res =    4.56788446514242E-01
(PID.TID 0000.0001)                       cg2d_iters =   202
(PID.TID 0000.0001)                         cg2d_res =    8.81568692707936E-14
(PID.TID 0000.0001) // =======================================================
(PID.TID 0000.0001) // Begin MONITOR dynamic field statistics
(PID.TID 0000.0001) // =======================================================
(PID.TID 0000.0001) %MON time_tsnumber                =                    20
(PID.TID 0000.0001) %MON time_secondsf                =   3.6000000000000E+04
(PID.TID 0000.0001) %MON dynstat_eta_max              =   3.0627174845534E-05
(PID.TID 0000.0001) %MON dynstat_eta_min              =  -1.4596476294554E-05
(PID.TID 0000.0001) %MON dynstat_eta_mean             =   2.1294866569211E-20
(PID.TID 0000.0001) %MON dynstat_eta_sd               =   1.6538942351770E-05
(PID.TID 0000.0001) %MON dynstat_eta_del2             =   5.1248288978760E-08
(PID.TID 0000.0001) %MON dynstat_uvel_max             =   4.1377163644559E-05
(PID.TID 0000.0001) %MON dynstat_uvel_min             =  -2.7097817587596E-04
(PID.TID 0000.0001) %MON dynstat_uvel_mean            =   1.4513570879759E-08
(PID.TID 0000.0001) %MON dynstat_uvel_sd              =   1.7590581616223E-05
(PID.TID 0000.0001) %MON dynstat_uvel_del2            =   3.7889764350029E-08
(PID.TID 0000.0001) %MON dynstat_vvel_max             =   5.5655454628528E-05
(PID.TID 0000.0001) %MON dynstat_vvel_min             =  -1.0685810436845E-05
(PID.TID 0000.0001) %MON dynstat_vvel_mean            =  -1.2144288293428E-07
(PID.TID 0000.0001) %MON dynstat_vvel_sd              =   2.4357238793830E-06
(PID.TID 0000.0001) %MON dynstat_vvel_del2            =   8.3364989207931E-09
(PID.TID 0000.0001) %MON dynstat_wvel_max             =   1.2838780648775E-06
(PID.TID 0000.0001) %MON dynstat_wvel_min             =  -1.2416261011718E-06
(PID.TID 0000.0001) %MON dynstat_wvel_mean            =  -7.9719840500285E-11
(PID.TID 0000.0001) %MON dynstat_wvel_sd              =   3.8121893087769E-08
(PID.TID 0000.0001) %MON dynstat_wvel_del2            =   1.5627648033468E-10
(PID.TID 0000.0001) %MON dynstat_theta_max            =  -1.9000000000000E+00
(PID.TID 0000.0001) %MON dynstat_theta_min            =  -1.9135145372435E+00
(PID.TID 0000.0001) %MON dynstat_theta_mean           =  -1.9001140687423E+00
(PID.TID 0000.0001) %MON dynstat_theta_sd             =   8.7958387962924E-04
(PID.TID 0000.0001) %MON dynstat_theta_del2           =   1.0137214103513E-06
(PID.TID 0000.0001) %MON dynstat_salt_max             =   3.4400000000000E+01
(PID.TID 0000.0001) %MON dynstat_salt_min             =   3.4394485216631E+01
(PID.TID 0000.0001) %MON dynstat_salt_mean            =   3.4399953677386E+01
(PID.TID 0000.0001) %MON dynstat_salt_sd              =   3.5802524295847E-04
(PID.TID 0000.0001) %MON dynstat_salt_del2            =   4.1218359191383E-07
(PID.TID 0000.0001) %MON advcfl_uvel_max              =   8.0627943475904E-05
(PID.TID 0000.0001) %MON advcfl_vvel_max              =   9.0108018567875E-06
(PID.TID 0000.0001) %MON advcfl_wvel_max              =   7.7032683892648E-05
(PID.TID 0000.0001) %MON advcfl_W_hf_max              =   8.2368037812334E-05
(PID.TID 0000.0001) %MON pe_b_mean                    =  -4.8791977410383E-08
(PID.TID 0000.0001) %MON ke_max                       =   3.7179964878228E-08
(PID.TID 0000.0001) %MON ke_mean                      =   1.5449190263922E-10
(PID.TID 0000.0001) %MON ke_vol                       =   3.4703745874271E+14
(PID.TID 0000.0001) %MON vort_r_min                   =  -9.3231992250954E-09
(PID.TID 0000.0001) %MON vort_r_max                   =   1.3244232778854E-08
(PID.TID 0000.0001) %MON vort_a_mean                  =  -1.3992981967045E-04
(PID.TID 0000.0001) %MON vort_a_sd                    =   1.7365049980025E-06
(PID.TID 0000.0001) %MON vort_p_mean                  =  -1.4746660590544E-04
(PID.TID 0000.0001) %MON vort_p_sd                    =   7.7971022716587E-05
(PID.TID 0000.0001) %MON surfExpan_theta_mean         =  -1.1574626999481E-12
(PID.TID 0000.0001) %MON surfExpan_salt_mean          =  -4.7031001765773E-13
(PID.TID 0000.0001) // =======================================================
(PID.TID 0000.0001) // End MONITOR dynamic field statistics
(PID.TID 0000.0001) // =======================================================
 Computing Diagnostic #    189  SHIfwFlx     Counter:      10   Parms: SM      L1      
 Computing Diagnostic #    190  SHIhtFlx     Counter:      10   Parms: SM      L1      
 Computing Diagnostic #    197  ICFfwFlx     Counter:      10   Parms: SM      MR      
 Computing Diagnostic #    198  ICFhtFlx     Counter:      10   Parms: SM      MR      
(PID.TID 0000.0001) %CHECKPOINT        20 ckptA
(PID.TID 0000.0001)   Seconds in section "ALL                    [THE_MODEL_MAIN]":
(PID.TID 0000.0001)           User time:   14.370000000000001
(PID.TID 0000.0001)         System time:  7.00000000000000067E-002
(PID.TID 0000.0001)     Wall clock time:   14.484757900238037
(PID.TID 0000.0001)          No. starts:           1
(PID.TID 0000.0001)           No. stops:           1
(PID.TID 0000.0001)   Seconds in section "INITIALISE_FIXED       [THE_MODEL_MAIN]":
(PID.TID 0000.0001)           User time:  8.00000000000000017E-002
(PID.TID 0000.0001)         System time:  2.99999999999999989E-002
(PID.TID 0000.0001)     Wall clock time:  0.10932517051696777
(PID.TID 0000.0001)          No. starts:           1
(PID.TID 0000.0001)           No. stops:           1
(PID.TID 0000.0001)   Seconds in section "THE_MAIN_LOOP          [THE_MODEL_MAIN]":
(PID.TID 0000.0001)           User time:   14.290000000000001
(PID.TID 0000.0001)         System time:  4.00000000000000078E-002
(PID.TID 0000.0001)     Wall clock time:   14.375409126281738
(PID.TID 0000.0001)          No. starts:           1
(PID.TID 0000.0001)           No. stops:           1
(PID.TID 0000.0001)   Seconds in section "INITIALISE_VARIA    [THE_MAIN_LOOP]":
(PID.TID 0000.0001)           User time:  0.20999999999999996
(PID.TID 0000.0001)         System time:  2.00000000000000039E-002
(PID.TID 0000.0001)     Wall clock time:  0.22313690185546875
(PID.TID 0000.0001)          No. starts:           1
(PID.TID 0000.0001)           No. stops:           1
(PID.TID 0000.0001)   Seconds in section "MAIN LOOP           [THE_MAIN_LOOP]":
(PID.TID 0000.0001)           User time:   14.080000000000002
(PID.TID 0000.0001)         System time:  2.00000000000000039E-002
(PID.TID 0000.0001)     Wall clock time:   14.152245998382568
(PID.TID 0000.0001)          No. starts:           1
(PID.TID 0000.0001)           No. stops:           1
(PID.TID 0000.0001)   Seconds in section "FORWARD_STEP        [THE_MAIN_LOOP]":
(PID.TID 0000.0001)           User time:   14.080000000000004
(PID.TID 0000.0001)         System time:  2.00000000000000039E-002
(PID.TID 0000.0001)     Wall clock time:   14.152079582214355
(PID.TID 0000.0001)          No. starts:          20
(PID.TID 0000.0001)           No. stops:          20
(PID.TID 0000.0001)   Seconds in section "DO_STATEVARS_DIAGS  [FORWARD_STEP]":
(PID.TID 0000.0001)           User time:  2.00000000000013500E-002
(PID.TID 0000.0001)         System time:   0.0000000000000000
(PID.TID 0000.0001)     Wall clock time:  1.09832286834716797E-002
(PID.TID 0000.0001)          No. starts:          40
(PID.TID 0000.0001)           No. stops:          40
(PID.TID 0000.0001)   Seconds in section "LOAD_FIELDS_DRIVER  [FORWARD_STEP]":
(PID.TID 0000.0001)           User time:   0.0000000000000000
(PID.TID 0000.0001)         System time:   0.0000000000000000
(PID.TID 0000.0001)     Wall clock time:  4.86612319946289063E-004
(PID.TID 0000.0001)          No. starts:          20
(PID.TID 0000.0001)           No. stops:          20
(PID.TID 0000.0001)   Seconds in section "EXTERNAL_FLDS_LOAD [LOAD_FLDS_DRIVER]":
(PID.TID 0000.0001)           User time:   0.0000000000000000
(PID.TID 0000.0001)         System time:   0.0000000000000000
(PID.TID 0000.0001)     Wall clock time:  1.65224075317382813E-004
(PID.TID 0000.0001)          No. starts:          20
(PID.TID 0000.0001)           No. stops:          20
(PID.TID 0000.0001)   Seconds in section "DO_ATMOSPHERIC_PHYS [FORWARD_STEP]":
(PID.TID 0000.0001)           User time:   0.0000000000000000
(PID.TID 0000.0001)         System time:   0.0000000000000000
(PID.TID 0000.0001)     Wall clock time:  1.64031982421875000E-004
(PID.TID 0000.0001)          No. starts:          20
(PID.TID 0000.0001)           No. stops:          20
(PID.TID 0000.0001)   Seconds in section "DO_OCEANIC_PHYS     [FORWARD_STEP]":
(PID.TID 0000.0001)           User time:  0.53999999999999559
(PID.TID 0000.0001)         System time:   0.0000000000000000
(PID.TID 0000.0001)     Wall clock time:  0.51585459709167480
(PID.TID 0000.0001)          No. starts:          20
(PID.TID 0000.0001)           No. stops:          20
(PID.TID 0000.0001)   Seconds in section "SHELFICE_THERMODYNAMICS [DO_OCEANIC_PHYS]":
(PID.TID 0000.0001)           User time:  8.99999999999980815E-002
(PID.TID 0000.0001)         System time:   0.0000000000000000
(PID.TID 0000.0001)     Wall clock time:  4.34024333953857422E-002
(PID.TID 0000.0001)          No. starts:          20
(PID.TID 0000.0001)           No. stops:          20
(PID.TID 0000.0001)   Seconds in section "ICEFRONT_THERMODYNAMICS [DO_OCEANIC_PHYS]":
(PID.TID 0000.0001)           User time:  4.99999999999989342E-002
(PID.TID 0000.0001)         System time:   0.0000000000000000
(PID.TID 0000.0001)     Wall clock time:  7.16857910156250000E-002
(PID.TID 0000.0001)          No. starts:          20
(PID.TID 0000.0001)           No. stops:          20
(PID.TID 0000.0001)   Seconds in section "THERMODYNAMICS      [FORWARD_STEP]":
(PID.TID 0000.0001)           User time:   2.2300000000000004
(PID.TID 0000.0001)         System time:   0.0000000000000000
(PID.TID 0000.0001)     Wall clock time:   2.2383861541748047
(PID.TID 0000.0001)          No. starts:          20
(PID.TID 0000.0001)           No. stops:          20
(PID.TID 0000.0001)   Seconds in section "DYNAMICS            [FORWARD_STEP]":
(PID.TID 0000.0001)           User time:   5.3999999999999986
(PID.TID 0000.0001)         System time:  2.00000000000000039E-002
(PID.TID 0000.0001)     Wall clock time:   5.4248137474060059
(PID.TID 0000.0001)          No. starts:          20
(PID.TID 0000.0001)           No. stops:          20
(PID.TID 0000.0001)   Seconds in section "UPDATE_SURF_DR      [FORWARD_STEP]":
(PID.TID 0000.0001)           User time:  5.00000000000024869E-002
(PID.TID 0000.0001)         System time:   0.0000000000000000
(PID.TID 0000.0001)     Wall clock time:  5.94165325164794922E-002
(PID.TID 0000.0001)          No. starts:          20
(PID.TID 0000.0001)           No. stops:          20
(PID.TID 0000.0001)   Seconds in section "SOLVE_FOR_PRESSURE  [FORWARD_STEP]":
(PID.TID 0000.0001)           User time:   2.5199999999999978
(PID.TID 0000.0001)         System time:   0.0000000000000000
(PID.TID 0000.0001)     Wall clock time:   2.5469856262207031
(PID.TID 0000.0001)          No. starts:          20
(PID.TID 0000.0001)           No. stops:          20
(PID.TID 0000.0001)   Seconds in section "MOM_CORRECTION_STEP [FORWARD_STEP]":
(PID.TID 0000.0001)           User time:  0.17999999999999972
(PID.TID 0000.0001)         System time:   0.0000000000000000
(PID.TID 0000.0001)     Wall clock time:  0.18247056007385254
(PID.TID 0000.0001)          No. starts:          20
(PID.TID 0000.0001)           No. stops:          20
(PID.TID 0000.0001)   Seconds in section "INTEGR_CONTINUITY   [FORWARD_STEP]":
(PID.TID 0000.0001)           User time:  0.33999999999999631
(PID.TID 0000.0001)         System time:   0.0000000000000000
(PID.TID 0000.0001)     Wall clock time:  0.31844520568847656
(PID.TID 0000.0001)          No. starts:          20
(PID.TID 0000.0001)           No. stops:          20
(PID.TID 0000.0001)   Seconds in section "TRC_CORRECTION_STEP [FORWARD_STEP]":
(PID.TID 0000.0001)           User time:   1.0000000000000018
(PID.TID 0000.0001)         System time:   0.0000000000000000
(PID.TID 0000.0001)     Wall clock time:  0.99987792968750000
(PID.TID 0000.0001)          No. starts:          20
(PID.TID 0000.0001)           No. stops:          20
(PID.TID 0000.0001)   Seconds in section "BLOCKING_EXCHANGES  [FORWARD_STEP]":
(PID.TID 0000.0001)           User time:  6.99999999999985079E-002
(PID.TID 0000.0001)         System time:   0.0000000000000000
(PID.TID 0000.0001)     Wall clock time:  0.10145807266235352
(PID.TID 0000.0001)          No. starts:          20
(PID.TID 0000.0001)           No. stops:          20
(PID.TID 0000.0001)   Seconds in section "DO_STATEVARS_TAVE   [FORWARD_STEP]":
(PID.TID 0000.0001)           User time:   0.0000000000000000
(PID.TID 0000.0001)         System time:   0.0000000000000000
(PID.TID 0000.0001)     Wall clock time:  1.69515609741210938E-004
(PID.TID 0000.0001)          No. starts:          20
(PID.TID 0000.0001)           No. stops:          20
(PID.TID 0000.0001)   Seconds in section "MONITOR             [FORWARD_STEP]":
(PID.TID 0000.0001)           User time:   1.5800000000000001
(PID.TID 0000.0001)         System time:   0.0000000000000000
(PID.TID 0000.0001)     Wall clock time:   1.5976381301879883
(PID.TID 0000.0001)          No. starts:          20
(PID.TID 0000.0001)           No. stops:          20
(PID.TID 0000.0001)   Seconds in section "DO_THE_MODEL_IO     [FORWARD_STEP]":
(PID.TID 0000.0001)           User time:  7.00000000000020606E-002
(PID.TID 0000.0001)         System time:   0.0000000000000000
(PID.TID 0000.0001)     Wall clock time:  7.41505622863769531E-002
(PID.TID 0000.0001)          No. starts:          20
(PID.TID 0000.0001)           No. stops:          20
(PID.TID 0000.0001)   Seconds in section "DO_WRITE_PICKUP     [FORWARD_STEP]":
(PID.TID 0000.0001)           User time:  8.00000000000000711E-002
(PID.TID 0000.0001)         System time:   0.0000000000000000
(PID.TID 0000.0001)     Wall clock time:  7.77494907379150391E-002
(PID.TID 0000.0001)          No. starts:          20
(PID.TID 0000.0001)           No. stops:          20
(PID.TID 0000.0001) // ======================================================
(PID.TID 0000.0001) // Tile <-> Tile communication statistics
(PID.TID 0000.0001) // ======================================================
(PID.TID 0000.0001) // o Tile number: 000001
(PID.TID 0000.0001) //         No. X exchanges =              0
(PID.TID 0000.0001) //            Max. X spins =              0
(PID.TID 0000.0001) //            Min. X spins =     1000000000
(PID.TID 0000.0001) //          Total. X spins =              0
(PID.TID 0000.0001) //            Avg. X spins =       0.00E+00
(PID.TID 0000.0001) //         No. Y exchanges =              0
(PID.TID 0000.0001) //            Max. Y spins =              0
(PID.TID 0000.0001) //            Min. Y spins =     1000000000
(PID.TID 0000.0001) //          Total. Y spins =              0
(PID.TID 0000.0001) //            Avg. Y spins =       0.00E+00
(PID.TID 0000.0001) // o Tile number: 000002
(PID.TID 0000.0001) //         No. X exchanges =              0
(PID.TID 0000.0001) //            Max. X spins =              0
(PID.TID 0000.0001) //            Min. X spins =     1000000000
(PID.TID 0000.0001) //          Total. X spins =              0
(PID.TID 0000.0001) //            Avg. X spins =       0.00E+00
(PID.TID 0000.0001) //         No. Y exchanges =              0
(PID.TID 0000.0001) //            Max. Y spins =              0
(PID.TID 0000.0001) //            Min. Y spins =     1000000000
(PID.TID 0000.0001) //          Total. Y spins =              0
(PID.TID 0000.0001) //            Avg. Y spins =       0.00E+00
(PID.TID 0000.0001) // o Thread number: 000001
(PID.TID 0000.0001) //            No. barriers =          28154
(PID.TID 0000.0001) //      Max. barrier spins =              1
(PID.TID 0000.0001) //      Min. barrier spins =              1
(PID.TID 0000.0001) //     Total barrier spins =          28154
(PID.TID 0000.0001) //      Avg. barrier spins =       1.00E+00
PROGRAM MAIN: Execution ended Normally
