(PID.TID 0000.0001) 
(PID.TID 0000.0001) // ======================================================
(PID.TID 0000.0001) //                      MITgcm UV
(PID.TID 0000.0001) //                      =========
(PID.TID 0000.0001) // ======================================================
(PID.TID 0000.0001) // execution environment starting up...
(PID.TID 0000.0001) 
(PID.TID 0000.0001) // MITgcmUV version:  checkpoint58o_post
(PID.TID 0000.0001) // Build user:        mlosch
(PID.TID 0000.0001) // Build host:        faulks
(PID.TID 0000.0001) // Build date:        Fri Sep  1 12:16:20 EDT 2006
(PID.TID 0000.0001) 
(PID.TID 0000.0001) // =======================================================
(PID.TID 0000.0001) // Execution Environment parameter file "eedata"
(PID.TID 0000.0001) // =======================================================
(PID.TID 0000.0001) ># Example "eedata" file
(PID.TID 0000.0001) ># Lines beginning "#" are comments
(PID.TID 0000.0001) ># nTx - No. threads per process in X
(PID.TID 0000.0001) ># nTy - No. threads per process in Y
(PID.TID 0000.0001) > &EEPARMS
(PID.TID 0000.0001) > &
(PID.TID 0000.0001) ># Note: Some systems use & as the
(PID.TID 0000.0001) ># namelist terminator. Other systems
(PID.TID 0000.0001) ># use a / character (as shown here).
(PID.TID 0000.0001) 
(PID.TID 0000.0001) // =======================================================
(PID.TID 0000.0001) // Computational Grid Specification ( see files "SIZE.h" )
(PID.TID 0000.0001) //                                  ( and "eedata"       )
(PID.TID 0000.0001) // =======================================================
(PID.TID 0000.0001)      nPx =    1 ; /* No. processes in X */
(PID.TID 0000.0001)      nPy =    1 ; /* No. processes in Y */
(PID.TID 0000.0001)      nSx =    2 ; /* No. tiles in X per process */
(PID.TID 0000.0001)      nSy =    1 ; /* No. tiles in Y per process */
(PID.TID 0000.0001)      sNx =   50 ; /* Tile size in X */
(PID.TID 0000.0001)      sNy =   50 ; /* Tile size in Y */
(PID.TID 0000.0001)      OLx =    3 ; /* Tile overlap distance in X */
(PID.TID 0000.0001)      OLy =    3 ; /* Tile overlap distance in Y */
(PID.TID 0000.0001)      nTx =    1 ; /* No. threads in X per process */
(PID.TID 0000.0001)      nTy =    1 ; /* No. threads in Y per process */
(PID.TID 0000.0001)       Nr =   30 ; /* No. levels in the vertical   */
(PID.TID 0000.0001)       nX =  100 ; /* Total domain size in X ( = nPx*nSx*sNx ) */
(PID.TID 0000.0001)       nY =   50 ; /* Total domain size in Y ( = nPy*nSy*sNy ) */
(PID.TID 0000.0001)   nTiles =    2 ; /* Total no. tiles per process ( = nSx*nSy ) */
(PID.TID 0000.0001)   nProcs =    1 ; /* Total no. processes ( = nPx*nPy ) */
(PID.TID 0000.0001) nThreads =    1 ; /* Total no. threads per process ( = nTx*nTy ) */
(PID.TID 0000.0001) usingMPI =    F ; /* Flag used to control whether MPI is in use */
(PID.TID 0000.0001)                   /*  note: To execute a program with MPI calls */
(PID.TID 0000.0001)                   /*  it must be launched appropriately e.g     */
(PID.TID 0000.0001)                   /*  "mpirun -np 64 ......"                    */
(PID.TID 0000.0001) useCoupler=   F ; /* Flag used to control communications with */
(PID.TID 0000.0001)                   /*  other model components, through a coupler */
(PID.TID 0000.0001) 
(PID.TID 0000.0001) // ======================================================
(PID.TID 0000.0001) // Mapping of tiles to threads
(PID.TID 0000.0001) // ======================================================
(PID.TID 0000.0001) // -o- Thread   1, tiles (   1:   2,   1:   1)
(PID.TID 0000.0001) 
(PID.TID 0000.0001) // ======================================================
(PID.TID 0000.0001) // Tile <-> Tile connectvity table
(PID.TID 0000.0001) // ======================================================
(PID.TID 0000.0001) // Tile number: 000001 (process no. = 000001)
(PID.TID 0000.0001) //        WEST: Tile = 000002, Process = 000001, Comm = put
(PID.TID 0000.0001) //                bi = 000002, bj = 000001
(PID.TID 0000.0001) //        EAST: Tile = 000002, Process = 000001, Comm = put
(PID.TID 0000.0001) //                bi = 000002, bj = 000001
(PID.TID 0000.0001) //       SOUTH: Tile = 000001, Process = 000001, Comm = put
(PID.TID 0000.0001) //                bi = 000001, bj = 000001
(PID.TID 0000.0001) //       NORTH: Tile = 000001, Process = 000001, Comm = put
(PID.TID 0000.0001) //                bi = 000001, bj = 000001
(PID.TID 0000.0001) // Tile number: 000002 (process no. = 000001)
(PID.TID 0000.0001) //        WEST: Tile = 000001, Process = 000001, Comm = put
(PID.TID 0000.0001) //                bi = 000001, bj = 000001
(PID.TID 0000.0001) //        EAST: Tile = 000001, Process = 000001, Comm = put
(PID.TID 0000.0001) //                bi = 000001, bj = 000001
(PID.TID 0000.0001) //       SOUTH: Tile = 000002, Process = 000001, Comm = put
(PID.TID 0000.0001) //                bi = 000002, bj = 000001
(PID.TID 0000.0001) //       NORTH: Tile = 000002, Process = 000001, Comm = put
(PID.TID 0000.0001) //                bi = 000002, bj = 000001
(PID.TID 0000.0001) 
(PID.TID 0000.0001) // =======================================================
(PID.TID 0000.0001) // Model parameter file "data"
(PID.TID 0000.0001) // =======================================================
(PID.TID 0000.0001) ># ====================
(PID.TID 0000.0001) ># | Model parameters |
(PID.TID 0000.0001) ># ====================
(PID.TID 0000.0001) >#
(PID.TID 0000.0001) ># Continuous equation parameters
(PID.TID 0000.0001) > &PARM01
(PID.TID 0000.0001) > Tref = 30*-1.9,
(PID.TID 0000.0001) > Sref = 30*34.4,
(PID.TID 0000.0001) > viscAz=1.E-3,
(PID.TID 0000.0001) > viscAh=600.0,
(PID.TID 0000.0001) > no_slip_sides=.FALSE.,
(PID.TID 0000.0001) > no_slip_bottom=.FALSE.,
(PID.TID 0000.0001) > diffKhT=100.0,
(PID.TID 0000.0001) > diffKzT=5.E-5,
(PID.TID 0000.0001) > diffKhS=100.0,
(PID.TID 0000.0001) > diffKzS=5.E-5,
(PID.TID 0000.0001) > bottomDragQuadratic=2.5E-3,
(PID.TID 0000.0001) > eosType='JMD95Z',
(PID.TID 0000.0001) > HeatCapacity_cp = 3974.0,
(PID.TID 0000.0001) > rhoConst=1030.,
(PID.TID 0000.0001) > rhoNil=1030.,
(PID.TID 0000.0001) > gravity=9.81,
(PID.TID 0000.0001) > gBaro=9.81,
(PID.TID 0000.0001) > convertFW2Salt = 33.4,
(PID.TID 0000.0001) > rigidLid=.FALSE.,
(PID.TID 0000.0001) > implicitFreeSurface=.TRUE.,
(PID.TID 0000.0001) > exactConserv=.true.,
(PID.TID 0000.0001) > hFacMin=0.05,
(PID.TID 0000.0001) > nonHydrostatic=.false.,
(PID.TID 0000.0001) > readBinaryPrec=64,
(PID.TID 0000.0001) > useCDScheme = .true.,
(PID.TID 0000.0001) > &
(PID.TID 0000.0001) >
(PID.TID 0000.0001) ># Elliptic solver parameters
(PID.TID 0000.0001) > &PARM02
(PID.TID 0000.0001) > cg2dMaxIters=1000,
(PID.TID 0000.0001) > cg2dTargetResidual=1.E-13,
(PID.TID 0000.0001) > cg3dMaxIters=400,
(PID.TID 0000.0001) > cg3dTargetResidual=1.E-13,
(PID.TID 0000.0001) > &
(PID.TID 0000.0001) >
(PID.TID 0000.0001) ># Time stepping parameters
(PID.TID 0000.0001) > &PARM03
(PID.TID 0000.0001) > niter0=0,
(PID.TID 0000.0001) > nTimeSteps=20,
(PID.TID 0000.0001) > deltaT=1800.0,
(PID.TID 0000.0001) > abEps=0.1,
(PID.TID 0000.0001) > cAdjFreq = -1.,
(PID.TID 0000.0001) > tauCD = 400000.,
(PID.TID 0000.0001) > pChkptFreq=0.0,
(PID.TID 0000.0001) > chkptFreq=0.0,
(PID.TID 0000.0001) > dumpFreq=0.0,
(PID.TID 0000.0001) > taveFreq=0.0,
(PID.TID 0000.0001) > monitorFreq=1.,
(PID.TID 0000.0001) > &
(PID.TID 0000.0001) >
(PID.TID 0000.0001) ># Gridding parameters
(PID.TID 0000.0001) > &PARM04
(PID.TID 0000.0001) > usingCartesianGrid=.FALSE.,
(PID.TID 0000.0001) > usingSphericalPolarGrid=.TRUE.,
(PID.TID 0000.0001) > phiMin = -80.0,
(PID.TID 0000.0001) > delX=50*0.3,
(PID.TID 0000.0001) > delY=100*0.1,
(PID.TID 0000.0001) > delZ=30*30.0,
(PID.TID 0000.0001) > &
(PID.TID 0000.0001) >
(PID.TID 0000.0001) ># Input datasets
(PID.TID 0000.0001) > &PARM05
(PID.TID 0000.0001) > bathyFile='bathy.box',
(PID.TID 0000.0001) > shelfIceFile='icetopo.exp1',
(PID.TID 0000.0001) > &
(PID.TID 0000.0001) 
(PID.TID 0000.0001) S/R INI_PARMS ; starts to read PARM01
(PID.TID 0000.0001) S/R INI_PARMS ; read PARM01 : OK
(PID.TID 0000.0001) S/R INI_PARMS ; starts to read PARM02
(PID.TID 0000.0001) S/R INI_PARMS ; read PARM02 : OK
(PID.TID 0000.0001) S/R INI_PARMS ; starts to read PARM03
(PID.TID 0000.0001) S/R INI_PARMS ; read PARM03 : OK
(PID.TID 0000.0001) S/R INI_PARMS ; starts to read PARM04
(PID.TID 0000.0001) S/R INI_PARMS ; read PARM04 : OK
(PID.TID 0000.0001) S/R INI_PARMS ; starts to read PARM05
(PID.TID 0000.0001) S/R INI_PARMS ; read PARM05 : OK
(PID.TID 0000.0001)  PACKAGES_BOOT: opening data.pkg
(PID.TID 0000.0001)  OPEN_COPY_DATA_FILE: opening file data.pkg
(PID.TID 0000.0001) // =======================================================
(PID.TID 0000.0001) // Parameter file "data.pkg"
(PID.TID 0000.0001) // =======================================================
(PID.TID 0000.0001) ># Packages
(PID.TID 0000.0001) > &PACKAGES
(PID.TID 0000.0001) > useMNC=.TRUE.,
(PID.TID 0000.0001) > useShelfIce=.true.,
(PID.TID 0000.0001) > &
(PID.TID 0000.0001) 
(PID.TID 0000.0001)  PACKAGES_BOOT: finished reading data.pkg
(PID.TID 0000.0001)  MNC_READPARMS: opening file 'data.mnc'
(PID.TID 0000.0001)  OPEN_COPY_DATA_FILE: opening file data.mnc
(PID.TID 0000.0001) // =======================================================
(PID.TID 0000.0001) // Parameter file "data.mnc"
(PID.TID 0000.0001) // =======================================================
(PID.TID 0000.0001) ># Example "data.mnc" file
(PID.TID 0000.0001) ># Lines beginning "#" are comments
(PID.TID 0000.0001) > &MNC_01
(PID.TID 0000.0001) ># mnc_echo_gvtypes=.FALSE.,
(PID.TID 0000.0001) ># mnc_use_indir=.FALSE.,
(PID.TID 0000.0001) > mnc_use_outdir=.TRUE.,
(PID.TID 0000.0001) > mnc_outdir_str='mnc_test_',
(PID.TID 0000.0001) >#mnc_outdir_date=.TRUE.,
(PID.TID 0000.0001) > monitor_mnc=.FALSE.,
(PID.TID 0000.0001) > timeave_mnc=.TRUE.,
(PID.TID 0000.0001) > snapshot_mnc=.TRUE.,
(PID.TID 0000.0001) ># pickup_write_mnc=.TRUE.,
(PID.TID 0000.0001) > &
(PID.TID 0000.0001) ># Note: Some systems use & as the
(PID.TID 0000.0001) ># namelist terminator. Other systems
(PID.TID 0000.0001) ># use a / character (as shown here).
(PID.TID 0000.0001) 
(PID.TID 0000.0001)  MNC_READPARMS: finished reading data.mnc
(PID.TID 0000.0001)  SHELFICE_READPARMS: opening data.shelfice
(PID.TID 0000.0001)  OPEN_COPY_DATA_FILE: opening file data.shelfice
(PID.TID 0000.0001) // =======================================================
(PID.TID 0000.0001) // Parameter file "data.shelfice"
(PID.TID 0000.0001) // =======================================================
(PID.TID 0000.0001) ># ===================================
(PID.TID 0000.0001) ># | Parameters for SHELFICE package |
(PID.TID 0000.0001) ># ===================================
(PID.TID 0000.0001) > &SHELFICE_PARM01
(PID.TID 0000.0001) > SHELFICEboundaryLayer = .TRUE.,
(PID.TID 0000.0001) > SHELFICEloadAnomalyFile = 'phi0surf.exp1.jmd95z',
(PID.TID 0000.0001) > useISOMIPTD = .TRUE.,
(PID.TID 0000.0001) > no_slip_shelfice = .false.,
(PID.TID 0000.0001) > SHELFICEwriteState = .TRUE.,
(PID.TID 0000.0001) > &
(PID.TID 0000.0001) 
(PID.TID 0000.0001)  SHELFICE_READPARMS: finished reading data.shelfice
(PID.TID 0000.0001) SET_PARMS: done
(PID.TID 0000.0001) %MON XC_max                       =   6.1111216500000E+06
(PID.TID 0000.0001) %MON XC_min                       =   1.5000000002910E-01
(PID.TID 0000.0001) %MON XC_mean                      =   1.5432200000000E+06
(PID.TID 0000.0001) %MON XC_sd                        =   1.9921174461741E+06
(PID.TID 0000.0001) %MON XG_max                       =   6.0493933000000E+06
(PID.TID 0000.0001) %MON XG_min                       =   2.9103830456734E-11
(PID.TID 0000.0001) %MON XG_mean                      =   1.5123557500000E+06
(PID.TID 0000.0001) %MON XG_sd                        =   1.9683050531301E+06
(PID.TID 0000.0001) %MON DXC_max                      =   3.5408766491519E+09
(PID.TID 0000.0001) %MON DXC_min                      =   5.8203914905589E+03
(PID.TID 0000.0001) %MON DXC_mean                     =   1.4849147279623E+09
(PID.TID 0000.0001) %MON DXC_sd                       =   1.4890319566389E+09
(PID.TID 0000.0001) %MON DXF_max                      =   3.5408766491519E+09
(PID.TID 0000.0001) %MON DXF_min                      =   5.8203914905589E+03
(PID.TID 0000.0001) %MON DXF_mean                     =   1.4849147279623E+09
(PID.TID 0000.0001) %MON DXF_sd                       =   1.5039562870742E+09
(PID.TID 0000.0001) %MON DXG_max                      =   3.5293028876676E+09
(PID.TID 0000.0001) %MON DXG_min                      =   5.7917296935586E+03
(PID.TID 0000.0001) %MON DXG_mean                     =   1.4790690403623E+09
(PID.TID 0000.0001) %MON DXG_sd                       =   1.4981922920903E+09
(PID.TID 0000.0001) %MON DXV_max                      =   3.5293028876676E+09
(PID.TID 0000.0001) %MON DXV_min                      =   5.7917296935586E+03
(PID.TID 0000.0001) %MON DXV_mean                     =   1.4790690403623E+09
(PID.TID 0000.0001) %MON DXV_sd                       =   1.4833267023089E+09
(PID.TID 0000.0001) %MON YC_max                       =  -7.5050000000000E+01
(PID.TID 0000.0001) %MON YC_min                       =  -7.9950000000000E+01
(PID.TID 0000.0001) %MON YC_mean                      =  -7.7500000000000E+01
(PID.TID 0000.0001) %MON YC_sd                        =   1.4430869689661E+00
(PID.TID 0000.0001) %MON YG_max                       =  -7.5100000000000E+01
(PID.TID 0000.0001) %MON YG_min                       =  -8.0000000000000E+01
(PID.TID 0000.0001) %MON YG_mean                      =  -7.7550000000000E+01
(PID.TID 0000.0001) %MON YG_sd                        =   1.4430869689661E+00
(PID.TID 0000.0001) %MON DYC_max                      =   1.1117747335204E+04
(PID.TID 0000.0001) %MON DYC_min                      =   1.1117747335204E+04
(PID.TID 0000.0001) %MON DYC_mean                     =   1.1117747335203E+04
(PID.TID 0000.0001) %MON DYC_sd                       =   6.0754246078432E-10
(PID.TID 0000.0001) %MON DYF_max                      =   1.1117747335204E+04
(PID.TID 0000.0001) %MON DYF_min                      =   1.1117747335204E+04
(PID.TID 0000.0001) %MON DYF_mean                     =   1.1117747335203E+04
(PID.TID 0000.0001) %MON DYF_sd                       =   6.0754246078432E-10
(PID.TID 0000.0001) %MON DYG_max                      =   1.1117747335204E+04
(PID.TID 0000.0001) %MON DYG_min                      =   1.1117747335204E+04
(PID.TID 0000.0001) %MON DYG_mean                     =   1.1117747335203E+04
(PID.TID 0000.0001) %MON DYG_sd                       =   6.0754246078432E-10
(PID.TID 0000.0001) %MON DYU_max                      =   1.1117747335204E+04
(PID.TID 0000.0001) %MON DYU_min                      =   1.1117747335204E+04
(PID.TID 0000.0001) %MON DYU_mean                     =   1.1117747335203E+04
(PID.TID 0000.0001) %MON DYU_sd                       =   6.0754246078432E-10
(PID.TID 0000.0001) %MON RA_max                       =   3.9366566933838E+13
(PID.TID 0000.0001) %MON RA_min                       =   6.4709633770803E+07
(PID.TID 0000.0001) %MON RA_mean                      =   1.6508904664432E+13
(PID.TID 0000.0001) %MON RA_sd                        =   1.6720603880636E+13
(PID.TID 0000.0001) %MON RAW_max                      =   3.9366566933838E+13
(PID.TID 0000.0001) %MON RAW_min                      =   6.4709633770803E+07
(PID.TID 0000.0001) %MON RAW_mean                     =   1.6508904664432E+13
(PID.TID 0000.0001) %MON RAW_sd                       =   1.6554678966769E+13
(PID.TID 0000.0001) %MON RAS_max                      =   3.9237892794260E+13
(PID.TID 0000.0001) %MON RAS_min                      =   6.4390979194019E+07
(PID.TID 0000.0001) %MON RAS_mean                     =   1.6443913794943E+13
(PID.TID 0000.0001) %MON RAS_sd                       =   1.6656521248898E+13
(PID.TID 0000.0001) %MON RAZ_max                      =   3.9237892794260E+13
(PID.TID 0000.0001) %MON RAZ_min                      =   6.4390979194019E+07
(PID.TID 0000.0001) %MON RAZ_mean                     =   1.6443913794943E+13
(PID.TID 0000.0001) %MON RAZ_sd                       =   1.6491249398697E+13
(PID.TID 0000.0001) %MON AngleCS_max                  =   1.0000000000000E+00
(PID.TID 0000.0001) %MON AngleCS_min                  =   1.0000000000000E+00
(PID.TID 0000.0001) %MON AngleCS_mean                 =   1.0000000000000E+00
(PID.TID 0000.0001) %MON AngleCS_sd                   =   0.0000000000000E+00
(PID.TID 0000.0001) %MON AngleSN_max                  =   0.0000000000000E+00
(PID.TID 0000.0001) %MON AngleSN_min                  =   0.0000000000000E+00
(PID.TID 0000.0001) %MON AngleSN_mean                 =   0.0000000000000E+00
(PID.TID 0000.0001) %MON AngleSN_sd                   =   0.0000000000000E+00
(PID.TID 0000.0001)  MDSREADFIELD: opening global file: bathy.box
(PID.TID 0000.0001) // =======================================================
(PID.TID 0000.0001) // Field Bottom depths (ini_depths) at iteration          1
(PID.TID 0000.0001) // CMIN =         -9.000000000000000E+02
(PID.TID 0000.0001) // CMAX =         -9.000000000000000E+02
(PID.TID 0000.0001) // CINT =          0.000000000000000E+00
(PID.TID 0000.0001) // SYMBOLS (CMIN->CMAX): -abcdefghijklmnopqrstuvwxyz+
(PID.TID 0000.0001) //                  0.0: .
(PID.TID 0000.0001) // RANGE I (Lo:Hi:Step):(  -2: 103:   1)
(PID.TID 0000.0001) // RANGE J (Lo:Hi:Step):(  53:  -2:  -1)
(PID.TID 0000.0001) // RANGE K (Lo:Hi:Step):(   1:   1:   1)
(PID.TID 0000.0001) // =======================================================
(PID.TID 0000.0001) // =======================================================
(PID.TID 0000.0001) // END OF FIELD                                          =
(PID.TID 0000.0001) // =======================================================
(PID.TID 0000.0001) 
(PID.TID 0000.0001)  MDSREADFIELD: opening global file: icetopo.exp1
(PID.TID 0000.0001) // =======================================================
(PID.TID 0000.0001) // Field Model R_low (ini_masks_etc) at iteration          1
(PID.TID 0000.0001) // CMIN =         -9.000000000000000E+02
(PID.TID 0000.0001) // CMAX =         -9.000000000000000E+02
(PID.TID 0000.0001) // CINT =          0.000000000000000E+00
(PID.TID 0000.0001) // SYMBOLS (CMIN->CMAX): -abcdefghijklmnopqrstuvwxyz+
(PID.TID 0000.0001) //                  0.0: .
(PID.TID 0000.0001) // RANGE I (Lo:Hi:Step):(  -2: 103:   1)
(PID.TID 0000.0001) // RANGE J (Lo:Hi:Step):(  53:  -2:  -1)
(PID.TID 0000.0001) // RANGE K (Lo:Hi:Step):(   1:   1:   1)
(PID.TID 0000.0001) // =======================================================
(PID.TID 0000.0001) // =======================================================
(PID.TID 0000.0001) // END OF FIELD                                          =
(PID.TID 0000.0001) // =======================================================
(PID.TID 0000.0001) 
(PID.TID 0000.0001) // =======================================================
(PID.TID 0000.0001) // Field Model Ro_surf (ini_masks_etc) at iteration          1
(PID.TID 0000.0001) // CMIN =         -6.812500000000010E+02
(PID.TID 0000.0001) // CMAX =         -2.000000000000000E+02
(PID.TID 0000.0001) // CINT =          1.782407407407411E+01
(PID.TID 0000.0001) // SYMBOLS (CMIN->CMAX): -abcdefghijklmnopqrstuvwxyz+
(PID.TID 0000.0001) //                  0.0: .
(PID.TID 0000.0001) // RANGE I (Lo:Hi:Step):(  -2: 103:   1)
(PID.TID 0000.0001) // RANGE J (Lo:Hi:Step):(  53:  -2:  -1)
(PID.TID 0000.0001) // RANGE K (Lo:Hi:Step):(   1:   1:   1)
(PID.TID 0000.0001) // =======================================================
(PID.TID 0000.0001) K =   1
(PID.TID 0000.0001) //                I=7       I=17      I=27      I=37      I=47      I=51      I=61      I=71      I=81      I=91      I=101
(PID.TID 0000.0001) // |--J--|**0123456|890123456|890123456|890123456|890123456|890123890|234567890|234567890|234567890|234567890|234567890|23
(PID.TID 0000.0001) //     53 ccc.bbbbbbbbbbbbbbbbbbbbbbbbbbbbbbbbbbbbbbbbbbbbbbbbb.ccbbb.ccccccccccccccccccccccccccccccccccccccccccccccccc.bb
(PID.TID 0000.0001) //     52 aaa.aaaaaaaaaaaaaaaaaaaaaaaaaaaaaaaaaaaaaaaaaaaaaaaaa.aaaaa.aaaaaaaaaaaaaaaaaaaaaaaaaaaaaaaaaaaaaaaaaaaaaaaaa.aa
(PID.TID 0000.0001) //     51 ---...................................................--....-------------------------------------------------...
(PID.TID 0000.0001) //     50 +++.+++++++++++++++++++++++++++++++++++++++++++++++++.+++++.+++++++++++++++++++++++++++++++++++++++++++++++++.++
(PID.TID 0000.0001) //     49 +++.+++++++++++++++++++++++++++++++++++++++++++++++++.+++++.+++++++++++++++++++++++++++++++++++++++++++++++++.++
(PID.TID 0000.0001) //     48 +++.+++++++++++++++++++++++++++++++++++++++++++++++++.+++++.+++++++++++++++++++++++++++++++++++++++++++++++++.++
(PID.TID 0000.0001) //     47 +++.+++++++++++++++++++++++++++++++++++++++++++++++++.+++++.+++++++++++++++++++++++++++++++++++++++++++++++++.++
(PID.TID 0000.0001) //     46 +++.+++++++++++++++++++++++++++++++++++++++++++++++++.+++++.+++++++++++++++++++++++++++++++++++++++++++++++++.++
(PID.TID 0000.0001) //     45 +++.+++++++++++++++++++++++++++++++++++++++++++++++++.+++++.+++++++++++++++++++++++++++++++++++++++++++++++++.++
(PID.TID 0000.0001) //     44 +++.+++++++++++++++++++++++++++++++++++++++++++++++++.+++++.+++++++++++++++++++++++++++++++++++++++++++++++++.++
(PID.TID 0000.0001) //     43 +++.+++++++++++++++++++++++++++++++++++++++++++++++++.+++++.+++++++++++++++++++++++++++++++++++++++++++++++++.++
(PID.TID 0000.0001) //     42 +++.+++++++++++++++++++++++++++++++++++++++++++++++++.+++++.+++++++++++++++++++++++++++++++++++++++++++++++++.++
(PID.TID 0000.0001) //     41 +++.+++++++++++++++++++++++++++++++++++++++++++++++++.+++++.+++++++++++++++++++++++++++++++++++++++++++++++++.++
(PID.TID 0000.0001) //     40 +++.+++++++++++++++++++++++++++++++++++++++++++++++++.+++++.+++++++++++++++++++++++++++++++++++++++++++++++++.++
(PID.TID 0000.0001) //     39 +++.+++++++++++++++++++++++++++++++++++++++++++++++++.+++++.+++++++++++++++++++++++++++++++++++++++++++++++++.++
(PID.TID 0000.0001) //     38 +++.+++++++++++++++++++++++++++++++++++++++++++++++++.+++++.+++++++++++++++++++++++++++++++++++++++++++++++++.++
(PID.TID 0000.0001) //     37 +++.+++++++++++++++++++++++++++++++++++++++++++++++++.+++++.+++++++++++++++++++++++++++++++++++++++++++++++++.++
(PID.TID 0000.0001) //     36 +++.+++++++++++++++++++++++++++++++++++++++++++++++++.+++++.+++++++++++++++++++++++++++++++++++++++++++++++++.++
(PID.TID 0000.0001) //     35 +++.+++++++++++++++++++++++++++++++++++++++++++++++++.+++++.+++++++++++++++++++++++++++++++++++++++++++++++++.++
(PID.TID 0000.0001) //     34 +++.+++++++++++++++++++++++++++++++++++++++++++++++++.+++++.+++++++++++++++++++++++++++++++++++++++++++++++++.++
(PID.TID 0000.0001) //     33 +++.+++++++++++++++++++++++++++++++++++++++++++++++++.+++++.+++++++++++++++++++++++++++++++++++++++++++++++++.++
(PID.TID 0000.0001) //     32 +++.+++++++++++++++++++++++++++++++++++++++++++++++++.+++++.+++++++++++++++++++++++++++++++++++++++++++++++++.++
(PID.TID 0000.0001) //     31 +++.+++++++++++++++++++++++++++++++++++++++++++++++++.+++++.+++++++++++++++++++++++++++++++++++++++++++++++++.++
(PID.TID 0000.0001) //     30 +++.+++++++++++++++++++++++++++++++++++++++++++++++++.+++++.+++++++++++++++++++++++++++++++++++++++++++++++++.++
(PID.TID 0000.0001) //     29 +++.+++++++++++++++++++++++++++++++++++++++++++++++++.+++++.+++++++++++++++++++++++++++++++++++++++++++++++++.++
(PID.TID 0000.0001) //     28 +++.+++++++++++++++++++++++++++++++++++++++++++++++++.+++++.+++++++++++++++++++++++++++++++++++++++++++++++++.++
(PID.TID 0000.0001) //     27 +++.+++++++++++++++++++++++++++++++++++++++++++++++++.+++++.+++++++++++++++++++++++++++++++++++++++++++++++++.++
(PID.TID 0000.0001) //     26 +++.+++++++++++++++++++++++++++++++++++++++++++++++++.+++++.+++++++++++++++++++++++++++++++++++++++++++++++++.++
(PID.TID 0000.0001) //     25 +++.+++++++++++++++++++++++++++++++++++++++++++++++++.+++++.+++++++++++++++++++++++++++++++++++++++++++++++++.++
(PID.TID 0000.0001) //     24 +++.+++++++++++++++++++++++++++++++++++++++++++++++++.+++++.+++++++++++++++++++++++++++++++++++++++++++++++++.++
(PID.TID 0000.0001) //     23 +++.+++++++++++++++++++++++++++++++++++++++++++++++++.+++++.+++++++++++++++++++++++++++++++++++++++++++++++++.++
(PID.TID 0000.0001) //     22 +++.+++++++++++++++++++++++++++++++++++++++++++++++++.+++++.+++++++++++++++++++++++++++++++++++++++++++++++++.++
(PID.TID 0000.0001) //     21 +++.+++++++++++++++++++++++++++++++++++++++++++++++++.+++++.+++++++++++++++++++++++++++++++++++++++++++++++++.++
(PID.TID 0000.0001) //     20 +++.zzzzzzzzzzzzzzzzzzzzzzzzzzzzzzzzzzzzzzzzzzzzzzzzz.++zzz.+++++++++++++++++++++++++++++++++++++++++++++++++.zz
(PID.TID 0000.0001) //     19 yyy.yyyyyyyyyyyyyyyyyyyyyyyyyyyyyyyyyyyyyyyyyyyyyyyyy.yyyyy.yyyyyyyyyyyyyyyyyyyyyyyyyyyyyyyyyyyyyyyyyyyyyyyyy.yy
(PID.TID 0000.0001) //     18 xxx.wwwwwwwwwwwwwwwwwwwwwwwwwwwwwwwwwwwwwwwwwwwwwwwww.xxwww.xxxxxxxxxxxxxxxxxxxxxxxxxxxxxxxxxxxxxxxxxxxxxxxxx.ww
(PID.TID 0000.0001) //     17 vvv.vvvvvvvvvvvvvvvvvvvvvvvvvvvvvvvvvvvvvvvvvvvvvvvvv.vvvvv.vvvvvvvvvvvvvvvvvvvvvvvvvvvvvvvvvvvvvvvvvvvvvvvvv.vv
(PID.TID 0000.0001) //     16 uuu.ttttttttttttttttttttttttttttttttttttttttttttttttt.uuttt.uuuuuuuuuuuuuuuuuuuuuuuuuuuuuuuuuuuuuuuuuuuuuuuuu.tt
(PID.TID 0000.0001) //     15 ttt.sssssssssssssssssssssssssssssssssssssssssssssssss.ttsss.ttttttttttttttttttttttttttttttttttttttttttttttttt.ss
(PID.TID 0000.0001) //     14 rrr.rrrrrrrrrrrrrrrrrrrrrrrrrrrrrrrrrrrrrrrrrrrrrrrrr.rrrrr.rrrrrrrrrrrrrrrrrrrrrrrrrrrrrrrrrrrrrrrrrrrrrrrrr.rr
(PID.TID 0000.0001) //     13 qqq.ppppppppppppppppppppppppppppppppppppppppppppppppp.qqppp.qqqqqqqqqqqqqqqqqqqqqqqqqqqqqqqqqqqqqqqqqqqqqqqqq.pp
(PID.TID 0000.0001) //     12 ooo.ooooooooooooooooooooooooooooooooooooooooooooooooo.ooooo.ooooooooooooooooooooooooooooooooooooooooooooooooo.oo
(PID.TID 0000.0001) //     11 nnn.mmmmmmmmmmmmmmmmmmmmmmmmmmmmmmmmmmmmmmmmmmmmmmmmm.nnmmm.nnnnnnnnnnnnnnnnnnnnnnnnnnnnnnnnnnnnnnnnnnnnnnnnn.mm
(PID.TID 0000.0001) //     10 mmm.lllllllllllllllllllllllllllllllllllllllllllllllll.mmlll.mmmmmmmmmmmmmmmmmmmmmmmmmmmmmmmmmmmmmmmmmmmmmmmmm.ll
(PID.TID 0000.0001) //      9 kkk.kkkkkkkkkkkkkkkkkkkkkkkkkkkkkkkkkkkkkkkkkkkkkkkkk.kkkkk.kkkkkkkkkkkkkkkkkkkkkkkkkkkkkkkkkkkkkkkkkkkkkkkkk.kk
(PID.TID 0000.0001) //      8 jjj.iiiiiiiiiiiiiiiiiiiiiiiiiiiiiiiiiiiiiiiiiiiiiiiii.jjiii.jjjjjjjjjjjjjjjjjjjjjjjjjjjjjjjjjjjjjjjjjjjjjjjjj.ii
(PID.TID 0000.0001) //      7 hhh.hhhhhhhhhhhhhhhhhhhhhhhhhhhhhhhhhhhhhhhhhhhhhhhhh.hhhhh.hhhhhhhhhhhhhhhhhhhhhhhhhhhhhhhhhhhhhhhhhhhhhhhhh.hh
(PID.TID 0000.0001) //      6 ggg.fffffffffffffffffffffffffffffffffffffffffffffffff.ggfff.ggggggggggggggggggggggggggggggggggggggggggggggggg.ff
(PID.TID 0000.0001) //      5 fff.eeeeeeeeeeeeeeeeeeeeeeeeeeeeeeeeeeeeeeeeeeeeeeeee.ffeee.fffffffffffffffffffffffffffffffffffffffffffffffff.ee
(PID.TID 0000.0001) //      4 ddd.ddddddddddddddddddddddddddddddddddddddddddddddddd.ddddd.ddddddddddddddddddddddddddddddddddddddddddddddddd.dd
(PID.TID 0000.0001) //      3 ccc.bbbbbbbbbbbbbbbbbbbbbbbbbbbbbbbbbbbbbbbbbbbbbbbbb.ccbbb.ccccccccccccccccccccccccccccccccccccccccccccccccc.bb
(PID.TID 0000.0001) //      2 aaa.aaaaaaaaaaaaaaaaaaaaaaaaaaaaaaaaaaaaaaaaaaaaaaaaa.aaaaa.aaaaaaaaaaaaaaaaaaaaaaaaaaaaaaaaaaaaaaaaaaaaaaaaa.aa
(PID.TID 0000.0001) //      1 ---...................................................--....-------------------------------------------------...
(PID.TID 0000.0001) //      0 +++.+++++++++++++++++++++++++++++++++++++++++++++++++.+++++.+++++++++++++++++++++++++++++++++++++++++++++++++.++
(PID.TID 0000.0001) //     -1 +++.+++++++++++++++++++++++++++++++++++++++++++++++++.+++++.+++++++++++++++++++++++++++++++++++++++++++++++++.++
(PID.TID 0000.0001) //     -2 +++.+++++++++++++++++++++++++++++++++++++++++++++++++.+++++.+++++++++++++++++++++++++++++++++++++++++++++++++.++
(PID.TID 0000.0001) // =======================================================
(PID.TID 0000.0001) // END OF FIELD                                          =
(PID.TID 0000.0001) // =======================================================
(PID.TID 0000.0001) 
(PID.TID 0000.0001) // =======================================================
(PID.TID 0000.0001) // Field hFacC at iteration          1
(PID.TID 0000.0001) // CMIN =          1.000000000000000E+32
(PID.TID 0000.0001) // CMAX =         -1.000000000000000E+32
(PID.TID 0000.0001) // CINT =          0.000000000000000E+00
(PID.TID 0000.0001) // SYMBOLS (CMIN->CMAX): -abcdefghijklmnopqrstuvwxyz+
(PID.TID 0000.0001) //                  0.0: .
(PID.TID 0000.0001) // RANGE I (Lo:Hi:Step):(  -2: 103:   1)
(PID.TID 0000.0001) // RANGE J (Lo:Hi:Step):(  53:  -2:  -1)
(PID.TID 0000.0001) // RANGE K (Lo:Hi:Step):(   1:   1:   1)
(PID.TID 0000.0001) // =======================================================
(PID.TID 0000.0001) // =======================================================
(PID.TID 0000.0001) // END OF FIELD                                          =
(PID.TID 0000.0001) // =======================================================
(PID.TID 0000.0001) 
(PID.TID 0000.0001) // =======================================================
(PID.TID 0000.0001) // Field hFacW at iteration          1
(PID.TID 0000.0001) // CMIN =          1.000000000000000E+32
(PID.TID 0000.0001) // CMAX =         -1.000000000000000E+32
(PID.TID 0000.0001) // CINT =          0.000000000000000E+00
(PID.TID 0000.0001) // SYMBOLS (CMIN->CMAX): -abcdefghijklmnopqrstuvwxyz+
(PID.TID 0000.0001) //                  0.0: .
(PID.TID 0000.0001) // RANGE I (Lo:Hi:Step):(  -2: 103:   1)
(PID.TID 0000.0001) // RANGE J (Lo:Hi:Step):(  53:  -2:  -1)
(PID.TID 0000.0001) // RANGE K (Lo:Hi:Step):(   1:   1:   1)
(PID.TID 0000.0001) // =======================================================
(PID.TID 0000.0001) // =======================================================
(PID.TID 0000.0001) // END OF FIELD                                          =
(PID.TID 0000.0001) // =======================================================
(PID.TID 0000.0001) 
(PID.TID 0000.0001) // =======================================================
(PID.TID 0000.0001) // Field hFacS at iteration          1
(PID.TID 0000.0001) // CMIN =          1.000000000000000E+32
(PID.TID 0000.0001) // CMAX =         -1.000000000000000E+32
(PID.TID 0000.0001) // CINT =          0.000000000000000E+00
(PID.TID 0000.0001) // SYMBOLS (CMIN->CMAX): -abcdefghijklmnopqrstuvwxyz+
(PID.TID 0000.0001) //                  0.0: .
(PID.TID 0000.0001) // RANGE I (Lo:Hi:Step):(  -2: 103:   1)
(PID.TID 0000.0001) // RANGE J (Lo:Hi:Step):(  53:  -2:  -1)
(PID.TID 0000.0001) // RANGE K (Lo:Hi:Step):(   1:   1:   1)
(PID.TID 0000.0001) // =======================================================
(PID.TID 0000.0001) // =======================================================
(PID.TID 0000.0001) // END OF FIELD                                          =
(PID.TID 0000.0001) // =======================================================
(PID.TID 0000.0001) 
(PID.TID 0000.0001) 
(PID.TID 0000.0001) // ===================================
(PID.TID 0000.0001) // GAD parameters :
(PID.TID 0000.0001) // ===================================
(PID.TID 0000.0001) tempAdvScheme =   /* Temp. Horiz.Advection scheme selector */
(PID.TID 0000.0001)                       2
(PID.TID 0000.0001)     ;
(PID.TID 0000.0001) tempVertAdvScheme =   /* Temp. Vert. Advection scheme selector */
(PID.TID 0000.0001)                       2
(PID.TID 0000.0001)     ;
(PID.TID 0000.0001) tempMultiDimAdvec =   /* use Muti-Dim Advec method for Temp */
(PID.TID 0000.0001)                   F
(PID.TID 0000.0001)     ;
(PID.TID 0000.0001) AdamsBashforthGt =   /* apply Adams-Bashforth extrapolation on Gt */
(PID.TID 0000.0001)                   T
(PID.TID 0000.0001)     ;
(PID.TID 0000.0001) AdamsBashforth_T =   /* apply Adams-Bashforth extrapolation on Temp */
(PID.TID 0000.0001)                   F
(PID.TID 0000.0001)     ;
(PID.TID 0000.0001) saltAdvScheme =   /* Salt. Horiz.advection scheme selector */
(PID.TID 0000.0001)                       2
(PID.TID 0000.0001)     ;
(PID.TID 0000.0001) saltVertAdvScheme =   /* Salt. Vert. Advection scheme selector */
(PID.TID 0000.0001)                       2
(PID.TID 0000.0001)     ;
(PID.TID 0000.0001) saltMultiDimAdvec =   /* use Muti-Dim Advec method for Salt */
(PID.TID 0000.0001)                   F
(PID.TID 0000.0001)     ;
(PID.TID 0000.0001) AdamsBashforthGs =   /* apply Adams-Bashforth extrapolation on Gs */
(PID.TID 0000.0001)                   T
(PID.TID 0000.0001)     ;
(PID.TID 0000.0001) AdamsBashforth_S =   /* apply Adams-Bashforth extrapolation on Salt */
(PID.TID 0000.0001)                   F
(PID.TID 0000.0001)     ;
(PID.TID 0000.0001) // ===================================
(PID.TID 0000.0001)  MDSREADFIELD: opening global file: phi0surf.exp1.jmd95z
(PID.TID 0000.0001) SHELFICE_CHECK: #define ALLOW_SHELFICE
(PID.TID 0000.0001) %MON fCori_max                    =  -1.4090589533125E-04
(PID.TID 0000.0001) %MON fCori_min                    =  -1.4360464034757E-04
(PID.TID 0000.0001) %MON fCori_mean                   =  -1.4234026353695E-04
(PID.TID 0000.0001) %MON fCori_sd                     =   7.9591601685730E-07
(PID.TID 0000.0001) %MON fCoriG_max                   =  -1.4093867468552E-04
(PID.TID 0000.0001) %MON fCoriG_min                   =  -1.4362679550910E-04
(PID.TID 0000.0001) %MON fCoriG_mean                  =  -1.4236774720617E-04
(PID.TID 0000.0001) %MON fCoriG_sd                    =   7.9279119301235E-07
(PID.TID 0000.0001) %MON fCoriCos_max                 =   3.7623859660001E-05
(PID.TID 0000.0001) %MON fCoriCos_min                 =   2.5450607565678E-05
(PID.TID 0000.0001) %MON fCoriCos_mean                =   3.1556076705329E-05
(PID.TID 0000.0001) %MON fCoriCos_sd                  =   3.5855364610352E-06
(PID.TID 0000.0001) INI_CG2D: CG2D normalisation factor =  4.5001794118170657E-09
(PID.TID 0000.0001) 
(PID.TID 0000.0001) CONFIG_CHECK: OK
(PID.TID 0000.0001) // =======================================================
(PID.TID 0000.0001) // Model configuration
(PID.TID 0000.0001) // =======================================================
(PID.TID 0000.0001) //
(PID.TID 0000.0001) // "Physical" paramters ( PARM01 in namelist )
(PID.TID 0000.0001) //
(PID.TID 0000.0001) buoyancyRelation = OCEANIC
(PID.TID 0000.0001) fluidIsAir  =  /* fluid major constituent is Air */
(PID.TID 0000.0001)                   F
(PID.TID 0000.0001)     ;
(PID.TID 0000.0001) fluidIsWater=  /* fuild major constituent is Water */
(PID.TID 0000.0001)                   T
(PID.TID 0000.0001)     ;
(PID.TID 0000.0001) usingPCoords =  /* use p (or p*) vertical coordinate */
(PID.TID 0000.0001)                   F
(PID.TID 0000.0001)     ;
(PID.TID 0000.0001) usingZCoords =  /* use z (or z*) vertical coordinate */
(PID.TID 0000.0001)                   T
(PID.TID 0000.0001)     ;
(PID.TID 0000.0001) tRef =   /* Reference temperature profile ( oC or K ) */
(PID.TID 0000.0001)    30 @ -1.900000000000000E+00              /* K =  1: 30 */
(PID.TID 0000.0001)     ;
(PID.TID 0000.0001) sRef =   /* Reference salinity profile ( psu ) */
(PID.TID 0000.0001)    30 @  3.440000000000000E+01              /* K =  1: 30 */
(PID.TID 0000.0001)     ;
(PID.TID 0000.0001) viscAh =   /* Lateral eddy viscosity ( m^2/s ) */
(PID.TID 0000.0001)                 6.000000000000000E+02
(PID.TID 0000.0001)     ;
(PID.TID 0000.0001) viscAhMax =   /* Maximum lateral eddy viscosity ( m^2/s ) */
(PID.TID 0000.0001)                 1.000000000000000E+21
(PID.TID 0000.0001)     ;
(PID.TID 0000.0001) viscAhGrid =   /* Grid dependent lateral eddy viscosity ( non-dim. ) */
(PID.TID 0000.0001)                 0.000000000000000E+00
(PID.TID 0000.0001)     ;
(PID.TID 0000.0001) useFullLeith =   /* Use Full Form of Leith Viscosity on/off flag*/
(PID.TID 0000.0001)                   F
(PID.TID 0000.0001)     ;
(PID.TID 0000.0001) useStrainTensionVisc =   /* Use StrainTension Form of Viscous Operator on/off flag*/
(PID.TID 0000.0001)                   F
(PID.TID 0000.0001)     ;
(PID.TID 0000.0001) useAreaViscLength =   /* Use area for visc length instead of geom. mean*/
(PID.TID 0000.0001)                   F
(PID.TID 0000.0001)     ;
(PID.TID 0000.0001) viscC2leith = /* Leith harmonic visc. factor (on grad(vort),non-dim.) */
(PID.TID 0000.0001)                 0.000000000000000E+00
(PID.TID 0000.0001)     ;
(PID.TID 0000.0001) viscC2leithD = /* Leith harmonic viscosity factor (on grad(div),non-dim.) */
(PID.TID 0000.0001)                 0.000000000000000E+00
(PID.TID 0000.0001)     ;
(PID.TID 0000.0001) viscC2smag =   /* Smagorinsky harmonic viscosity factor (non-dim.) */
(PID.TID 0000.0001)                 0.000000000000000E+00
(PID.TID 0000.0001)     ;
(PID.TID 0000.0001) viscA4 =   /* Lateral biharmonic viscosity ( m^4/s ) */
(PID.TID 0000.0001)                 0.000000000000000E+00
(PID.TID 0000.0001)     ;
(PID.TID 0000.0001) viscA4Max =   /* Maximum biharmonic viscosity ( m^2/s ) */
(PID.TID 0000.0001)                 1.000000000000000E+21
(PID.TID 0000.0001)     ;
(PID.TID 0000.0001) viscA4Grid =   /* Grid dependent biharmonic viscosity ( non-dim. ) */
(PID.TID 0000.0001)                 0.000000000000000E+00
(PID.TID 0000.0001)     ;
(PID.TID 0000.0001) viscC4leith = /* Leith biharm viscosity factor (on grad(vort), non-dim.) */
(PID.TID 0000.0001)                 0.000000000000000E+00
(PID.TID 0000.0001)     ;
(PID.TID 0000.0001) viscC4leithD = /* Leith biharm viscosity factor (on grad(div), non-dim.) */
(PID.TID 0000.0001)                 0.000000000000000E+00
(PID.TID 0000.0001)     ;
(PID.TID 0000.0001) viscC4Smag = /* Smagorinsky biharm viscosity factor (non-dim) */
(PID.TID 0000.0001)                 0.000000000000000E+00
(PID.TID 0000.0001)     ;
(PID.TID 0000.0001) no_slip_sides =  /* Viscous BCs: No-slip sides */
(PID.TID 0000.0001)                   F
(PID.TID 0000.0001)     ;
(PID.TID 0000.0001) sideDragFactor = /* side-drag scaling factor (non-dim) */
(PID.TID 0000.0001)                 2.000000000000000E+00
(PID.TID 0000.0001)     ;
(PID.TID 0000.0001) viscAr =   /* Vertical eddy viscosity ( units of r^2/s ) */
(PID.TID 0000.0001)                 1.000000000000000E-03
(PID.TID 0000.0001)     ;
(PID.TID 0000.0001) no_slip_bottom =  /* Viscous BCs: No-slip bottom */
(PID.TID 0000.0001)                   F
(PID.TID 0000.0001)     ;
(PID.TID 0000.0001) bottomDragLinear = /* linear bottom-drag coefficient ( 1/s ) */
(PID.TID 0000.0001)                 0.000000000000000E+00
(PID.TID 0000.0001)     ;
(PID.TID 0000.0001) bottomDragQuadratic = /* quadratic bottom-drag coeff. ( 1/m ) */
(PID.TID 0000.0001)                 2.500000000000000E-03
(PID.TID 0000.0001)     ;
(PID.TID 0000.0001) diffKhT =   /* Laplacian diffusion of heat laterally ( m^2/s ) */
(PID.TID 0000.0001)                 1.000000000000000E+02
(PID.TID 0000.0001)     ;
(PID.TID 0000.0001) diffK4T =   /* Bihaarmonic diffusion of heat laterally ( m^4/s ) */
(PID.TID 0000.0001)                 0.000000000000000E+00
(PID.TID 0000.0001)     ;
(PID.TID 0000.0001) diffKhS =   /* Laplacian diffusion of salt laterally ( m^2/s ) */
(PID.TID 0000.0001)                 1.000000000000000E+02
(PID.TID 0000.0001)     ;
(PID.TID 0000.0001) diffK4S =   /* Bihaarmonic diffusion of salt laterally ( m^4/s ) */
(PID.TID 0000.0001)                 0.000000000000000E+00
(PID.TID 0000.0001)     ;
(PID.TID 0000.0001) diffKrNrT = /* vertical profile of vertical diffusion of Temp ( m^2/s )*/
(PID.TID 0000.0001)    30 @  5.000000000000000E-05              /* K =  1: 30 */
(PID.TID 0000.0001)     ;
(PID.TID 0000.0001) diffKrNrS = /* vertical profile of vertical diffusion of Salt ( m^2/s )*/
(PID.TID 0000.0001)    30 @  5.000000000000000E-05              /* K =  1: 30 */
(PID.TID 0000.0001)     ;
(PID.TID 0000.0001) diffKrBL79surf =   /* Surface diffusion for Bryan and Lewis 1979 ( m^2/s ) */
(PID.TID 0000.0001)                 0.000000000000000E+00
(PID.TID 0000.0001)     ;
(PID.TID 0000.0001) diffKrBL79deep =   /* Deep diffusion for Bryan and Lewis 1979 ( m^2/s ) */
(PID.TID 0000.0001)                 0.000000000000000E+00
(PID.TID 0000.0001)     ;
(PID.TID 0000.0001) diffKrBL79scl =   /* Depth scale for Bryan and Lewis 1979 ( m ) */
(PID.TID 0000.0001)                 2.000000000000000E+02
(PID.TID 0000.0001)     ;
(PID.TID 0000.0001) diffKrBL79Ho =   /* Turning depth for Bryan and Lewis 1979 ( m ) */
(PID.TID 0000.0001)                -2.000000000000000E+03
(PID.TID 0000.0001)     ;
(PID.TID 0000.0001) Equation of State : eosType = JMD95Z ;
(PID.TID 0000.0001) tAlpha =   /* Linear EOS thermal expansion coefficient ( 1/oC ) */
(PID.TID 0000.0001)                 1.234567000000000E+05
(PID.TID 0000.0001)     ;
(PID.TID 0000.0001) sBeta =   /* Linear EOS haline contraction coefficient ( 1/psu ) */
(PID.TID 0000.0001)                 1.234567000000000E+05
(PID.TID 0000.0001)     ;
(PID.TID 0000.0001) rhonil =   /* Reference density ( kg/m^3 ) */
(PID.TID 0000.0001)                 1.030000000000000E+03
(PID.TID 0000.0001)     ;
(PID.TID 0000.0001) rhoConst =   /* Reference density ( kg/m^3 ) */
(PID.TID 0000.0001)                 1.030000000000000E+03
(PID.TID 0000.0001)     ;
(PID.TID 0000.0001) rhoConstFresh =   /* Reference density ( kg/m^3 ) */
(PID.TID 0000.0001)                 1.030000000000000E+03
(PID.TID 0000.0001)     ;
(PID.TID 0000.0001) gravity =   /* Gravitational acceleration ( m/s^2 ) */
(PID.TID 0000.0001)                 9.810000000000000E+00
(PID.TID 0000.0001)     ;
(PID.TID 0000.0001) gBaro =   /* Barotropic gravity ( m/s^2 ) */
(PID.TID 0000.0001)                 9.810000000000000E+00
(PID.TID 0000.0001)     ;
(PID.TID 0000.0001) rotationPeriod =   /* Rotation Period ( s ) */
(PID.TID 0000.0001)                 8.616400000000000E+04
(PID.TID 0000.0001)     ;
(PID.TID 0000.0001) omega =   /* Angular velocity ( rad/s ) */
(PID.TID 0000.0001)                 7.292123516990375E-05
(PID.TID 0000.0001)     ;
(PID.TID 0000.0001) f0 =   /* Reference coriolis parameter ( 1/s ) */
(PID.TID 0000.0001)                 1.000000000000000E-04
(PID.TID 0000.0001)     ;
(PID.TID 0000.0001) beta =   /* Beta ( 1/(m.s) ) */
(PID.TID 0000.0001)                 9.999999999999999E-12
(PID.TID 0000.0001)     ;
(PID.TID 0000.0001) freeSurfFac =   /* Implicit free surface factor */
(PID.TID 0000.0001)                 1.000000000000000E+00
(PID.TID 0000.0001)     ;
(PID.TID 0000.0001) implicitFreeSurface =   /* Implicit free surface on/off flag */
(PID.TID 0000.0001)                   T
(PID.TID 0000.0001)     ;
(PID.TID 0000.0001) rigidLid =   /* Rigid lid on/off flag */
(PID.TID 0000.0001)                   F
(PID.TID 0000.0001)     ;
(PID.TID 0000.0001) implicSurfPress =   /* Surface Pressure implicit factor (0-1)*/
(PID.TID 0000.0001)                 1.000000000000000E+00
(PID.TID 0000.0001)     ;
(PID.TID 0000.0001) implicDiv2Dflow =   /* Barot. Flow Div. implicit factor (0-1)*/
(PID.TID 0000.0001)                 1.000000000000000E+00
(PID.TID 0000.0001)     ;
(PID.TID 0000.0001) exactConserv =   /* Exact Volume Conservation on/off flag*/
(PID.TID 0000.0001)                   T
(PID.TID 0000.0001)     ;
(PID.TID 0000.0001) uniformLin_PhiSurf =   /* use uniform Bo_surf on/off flag*/
(PID.TID 0000.0001)                   T
(PID.TID 0000.0001)     ;
(PID.TID 0000.0001) nonlinFreeSurf =   /* Non-linear Free Surf. options (-1,0,1,2,3)*/
(PID.TID 0000.0001)                       0
(PID.TID 0000.0001)     ;
(PID.TID 0000.0001)      -1,0= Off ; 1,2,3= On, 2=+rescale gU,gV, 3=+update cg2d solv.
(PID.TID 0000.0001) hFacInf =   /* lower threshold for hFac (nonlinFreeSurf only)*/
(PID.TID 0000.0001)                 2.000000000000000E-01
(PID.TID 0000.0001)     ;
(PID.TID 0000.0001) hFacSup =   /* upper threshold for hFac (nonlinFreeSurf only)*/
(PID.TID 0000.0001)                 2.000000000000000E+00
(PID.TID 0000.0001)     ;
(PID.TID 0000.0001) select_rStar =   /* r* Coordinate options (not yet implemented)*/
(PID.TID 0000.0001)                       0
(PID.TID 0000.0001)     ;
(PID.TID 0000.0001) useRealFreshWaterFlux =   /* Real Fresh Water Flux on/off flag*/
(PID.TID 0000.0001)                   F
(PID.TID 0000.0001)     ;
(PID.TID 0000.0001) convertFW2Salt = /* convert F.W. Flux to Salt Flux (-1=use local S)(ppt)*/
(PID.TID 0000.0001)                 3.340000000000000E+01
(PID.TID 0000.0001)     ;
(PID.TID 0000.0001) use3Dsolver = /* use 3-D pressure solver on/off flag */
(PID.TID 0000.0001)                   F
(PID.TID 0000.0001)     ;
(PID.TID 0000.0001) nonHydrostatic =  /* Non-Hydrostatic on/off flag */
(PID.TID 0000.0001)                   F
(PID.TID 0000.0001)     ;
(PID.TID 0000.0001) nh_Am2 = /* Non-Hydrostatic terms scaling factor */
(PID.TID 0000.0001)                 1.000000000000000E+00
(PID.TID 0000.0001)     ;
(PID.TID 0000.0001) quasiHydrostatic = /* Quasi-Hydrostatic on/off flag */
(PID.TID 0000.0001)                   F
(PID.TID 0000.0001)     ;
(PID.TID 0000.0001) momStepping =  /* Momentum equation on/off flag */
(PID.TID 0000.0001)                   T
(PID.TID 0000.0001)     ;
(PID.TID 0000.0001) vectorInvariantMomentum= /* Vector-Invariant Momentum on/off */
(PID.TID 0000.0001)                   F
(PID.TID 0000.0001)     ;
(PID.TID 0000.0001) momAdvection =  /* Momentum advection on/off flag */
(PID.TID 0000.0001)                   T
(PID.TID 0000.0001)     ;
(PID.TID 0000.0001) momViscosity =  /* Momentum viscosity on/off flag */
(PID.TID 0000.0001)                   T
(PID.TID 0000.0001)     ;
(PID.TID 0000.0001) momImplVertAdv =/* Momentum implicit vert. advection on/off*/
(PID.TID 0000.0001)                   F
(PID.TID 0000.0001)     ;
(PID.TID 0000.0001) implicitViscosity = /* Implicit viscosity on/off flag */
(PID.TID 0000.0001)                   F
(PID.TID 0000.0001)     ;
(PID.TID 0000.0001) metricTerms =  /* metric-Terms on/off flag */
(PID.TID 0000.0001)                   T
(PID.TID 0000.0001)     ;
(PID.TID 0000.0001) useNHMTerms = /* Non-Hydrostatic Metric-Terms on/off */
(PID.TID 0000.0001)                   F
(PID.TID 0000.0001)     ;
(PID.TID 0000.0001) useConstantF =  /* use Constant f0 Coriolis flag */
(PID.TID 0000.0001)                   F
(PID.TID 0000.0001)     ;
(PID.TID 0000.0001) useBetaPlaneF = /* use Beta-Plane Coriolis flag */
(PID.TID 0000.0001)                   F
(PID.TID 0000.0001)     ;
(PID.TID 0000.0001) useSphereF  =   /* use Spherical Coriolis flag */
(PID.TID 0000.0001)                   T
(PID.TID 0000.0001)     ;
(PID.TID 0000.0001) use3dCoriolis = /* 3-D Coriolis on/off flag */
(PID.TID 0000.0001)                   F
(PID.TID 0000.0001)     ;
(PID.TID 0000.0001) useCoriolis =  /* Coriolis on/off flag */
(PID.TID 0000.0001)                   T
(PID.TID 0000.0001)     ;
(PID.TID 0000.0001) useCDscheme =  /* CD scheme on/off flag */
(PID.TID 0000.0001)                   T
(PID.TID 0000.0001)     ;
(PID.TID 0000.0001) useJamartWetPoints= /* Coriolis WetPoints method flag */
(PID.TID 0000.0001)                   F
(PID.TID 0000.0001)     ;
(PID.TID 0000.0001) useJamartMomAdv= /* V.I. Non-linear terms Jamart flag */
(PID.TID 0000.0001)                   F
(PID.TID 0000.0001)     ;
(PID.TID 0000.0001) SadournyCoriolis= /* Sadourny Coriolis discr. flag */
(PID.TID 0000.0001)                   F
(PID.TID 0000.0001)     ;
(PID.TID 0000.0001) upwindVorticity= /* Upwind bias vorticity flag */
(PID.TID 0000.0001)                   F
(PID.TID 0000.0001)     ;
(PID.TID 0000.0001) useAbsVorticity= /* Work with f+zeta in Coriolis */
(PID.TID 0000.0001)                   F
(PID.TID 0000.0001)     ;
(PID.TID 0000.0001) highOrderVorticity= /* High order interp. of vort. flag */
(PID.TID 0000.0001)                   F
(PID.TID 0000.0001)     ;
(PID.TID 0000.0001) upwindShear= /* Upwind vertical Shear advection flag */
(PID.TID 0000.0001)                   F
(PID.TID 0000.0001)     ;
(PID.TID 0000.0001) selectKEscheme= /* Kinetic Energy scheme selector */
(PID.TID 0000.0001)                       0
(PID.TID 0000.0001)     ;
(PID.TID 0000.0001) momForcing =  /* Momentum forcing on/off flag */
(PID.TID 0000.0001)                   T
(PID.TID 0000.0001)     ;
(PID.TID 0000.0001) momPressureForcing =  /* Momentum pressure term on/off flag */
(PID.TID 0000.0001)                   T
(PID.TID 0000.0001)     ;
(PID.TID 0000.0001) implicitIntGravWave= /* Implicit Internal Gravity Wave flag */
(PID.TID 0000.0001)                   F
(PID.TID 0000.0001)     ;
(PID.TID 0000.0001) staggerTimeStep =   /* Stagger time stepping on/off flag */
(PID.TID 0000.0001)                   F
(PID.TID 0000.0001)     ;
(PID.TID 0000.0001) multiDimAdvection =   /* enable/disable Multi-Dim Advection */
(PID.TID 0000.0001)                   T
(PID.TID 0000.0001)     ;
(PID.TID 0000.0001) useMultiDimAdvec =   /* Multi-Dim Advection is/is-not used */
(PID.TID 0000.0001)                   F
(PID.TID 0000.0001)     ;
(PID.TID 0000.0001) implicitDiffusion =/* Implicit Diffusion on/off flag */
(PID.TID 0000.0001)                   F
(PID.TID 0000.0001)     ;
(PID.TID 0000.0001) tempStepping =  /* Temperature equation on/off flag */
(PID.TID 0000.0001)                   T
(PID.TID 0000.0001)     ;
(PID.TID 0000.0001) tempAdvection=  /* Temperature advection on/off flag */
(PID.TID 0000.0001)                   T
(PID.TID 0000.0001)     ;
(PID.TID 0000.0001) tempImplVertAdv =/* Temp. implicit vert. advection on/off */
(PID.TID 0000.0001)                   F
(PID.TID 0000.0001)     ;
(PID.TID 0000.0001) tempForcing  =  /* Temperature forcing on/off flag */
(PID.TID 0000.0001)                   T
(PID.TID 0000.0001)     ;
(PID.TID 0000.0001) saltStepping =  /* Salinity equation on/off flag */
(PID.TID 0000.0001)                   T
(PID.TID 0000.0001)     ;
(PID.TID 0000.0001) saltAdvection=  /* Salinity advection on/off flag */
(PID.TID 0000.0001)                   T
(PID.TID 0000.0001)     ;
(PID.TID 0000.0001) saltImplVertAdv =/* Sali. implicit vert. advection on/off */
(PID.TID 0000.0001)                   F
(PID.TID 0000.0001)     ;
(PID.TID 0000.0001) saltForcing  =  /* Salinity forcing on/off flag */
(PID.TID 0000.0001)                   T
(PID.TID 0000.0001)     ;
(PID.TID 0000.0001)  readBinaryPrec = /* Precision used for reading binary files */
(PID.TID 0000.0001)                      64
(PID.TID 0000.0001)     ;
(PID.TID 0000.0001) writeBinaryPrec = /* Precision used for writing binary files */
(PID.TID 0000.0001)                      32
(PID.TID 0000.0001)     ;
(PID.TID 0000.0001)  globalFiles = /* write "global" (=not per tile) files */
(PID.TID 0000.0001)                   F
(PID.TID 0000.0001)     ;
(PID.TID 0000.0001)  useSingleCpuIO = /* only master MPI process does I/O */
(PID.TID 0000.0001)                   F
(PID.TID 0000.0001)     ;
(PID.TID 0000.0001)  debugMode  =  /* Debug Mode on/off flag */
(PID.TID 0000.0001)                   F
(PID.TID 0000.0001)     ;
(PID.TID 0000.0001)    debLevA  =  /* 1rst level of debugging */
(PID.TID 0000.0001)                       1
(PID.TID 0000.0001)     ;
(PID.TID 0000.0001)    debLevB  =  /* 2nd  level of debugging */
(PID.TID 0000.0001)                       2
(PID.TID 0000.0001)     ;
(PID.TID 0000.0001)  debugLevel =  /* select debugging level */
(PID.TID 0000.0001)                       1
(PID.TID 0000.0001)     ;
(PID.TID 0000.0001) //
(PID.TID 0000.0001) // Elliptic solver(s) paramters ( PARM02 in namelist )
(PID.TID 0000.0001) //
(PID.TID 0000.0001) cg2dMaxIters =   /* Upper limit on 2d con. grad iterations  */
(PID.TID 0000.0001)                    1000
(PID.TID 0000.0001)     ;
(PID.TID 0000.0001) cg2dChkResFreq =   /* 2d con. grad convergence test frequency */
(PID.TID 0000.0001)                       1
(PID.TID 0000.0001)     ;
(PID.TID 0000.0001) cg2dTargetResidual =   /* 2d con. grad target residual  */
(PID.TID 0000.0001)                 1.000000000000000E-13
(PID.TID 0000.0001)     ;
(PID.TID 0000.0001) cg2dTargetResWunit =   /* CG2d target residual [W units] */
(PID.TID 0000.0001)                -1.000000000000000E+00
(PID.TID 0000.0001)     ;
(PID.TID 0000.0001) cg2dPreCondFreq =   /* Freq. for updating cg2d preconditioner */
(PID.TID 0000.0001)                       1
(PID.TID 0000.0001)     ;
(PID.TID 0000.0001) //
(PID.TID 0000.0001) // Time stepping paramters ( PARM03 in namelist )
(PID.TID 0000.0001) //
(PID.TID 0000.0001) nIter0 =   /* Run starting timestep number  */
(PID.TID 0000.0001)                       0
(PID.TID 0000.0001)     ;
(PID.TID 0000.0001) nTimeSteps =   /* Number of timesteps */
(PID.TID 0000.0001)                      20
(PID.TID 0000.0001)     ;
(PID.TID 0000.0001) deltaTmom =   /* Momentum equation timestep ( s ) */
(PID.TID 0000.0001)                 1.800000000000000E+03
(PID.TID 0000.0001)     ;
(PID.TID 0000.0001) deltaTfreesurf =   /* FreeSurface equation timestep ( s ) */
(PID.TID 0000.0001)                 1.800000000000000E+03
(PID.TID 0000.0001)     ;
(PID.TID 0000.0001) dTtracerLev =   /* Tracer equation timestep ( s ) */
(PID.TID 0000.0001)    30 @  1.800000000000000E+03              /* K =  1: 30 */
(PID.TID 0000.0001)     ;
(PID.TID 0000.0001) deltaTClock  =   /* Model clock timestep ( s ) */
(PID.TID 0000.0001)                 1.800000000000000E+03
(PID.TID 0000.0001)     ;
(PID.TID 0000.0001) cAdjFreq =   /* Convective adjustment interval ( s ) */
(PID.TID 0000.0001)                 1.800000000000000E+03
(PID.TID 0000.0001)     ;
(PID.TID 0000.0001) momForcingOutAB = /* =1: take Momentum Forcing out of Adams-Bash. stepping */
(PID.TID 0000.0001)                       0
(PID.TID 0000.0001)     ;
(PID.TID 0000.0001) tracForcingOutAB = /* =1: take T,S,pTr Forcing out of Adams-Bash. stepping */
(PID.TID 0000.0001)                       0
(PID.TID 0000.0001)     ;
(PID.TID 0000.0001) momDissip_In_AB = /* put Dissipation Tendency in Adams-Bash. stepping */
(PID.TID 0000.0001)                   T
(PID.TID 0000.0001)     ;
(PID.TID 0000.0001) doAB_onGtGs = /* apply AB on Tendencies (rather than on T,S)*/
(PID.TID 0000.0001)                   T
(PID.TID 0000.0001)     ;
(PID.TID 0000.0001) abEps =   /* Adams-Bashforth-2 stabilizing weight */
(PID.TID 0000.0001)                 1.000000000000000E-01
(PID.TID 0000.0001)     ;
(PID.TID 0000.0001) tauCD =   /* CD coupling time-scale ( s ) */
(PID.TID 0000.0001)                 4.000000000000000E+05
(PID.TID 0000.0001)     ;
(PID.TID 0000.0001) rCD =   /* Normalised CD coupling parameter */
(PID.TID 0000.0001)                 9.955000000000001E-01
(PID.TID 0000.0001)     ;
(PID.TID 0000.0001) baseTime =   /* Model base time ( s ). */
(PID.TID 0000.0001)                 0.000000000000000E+00
(PID.TID 0000.0001)     ;
(PID.TID 0000.0001) startTime =   /* Run start time ( s ). */
(PID.TID 0000.0001)                 0.000000000000000E+00
(PID.TID 0000.0001)     ;
(PID.TID 0000.0001) endTime =   /* Integration ending time ( s ). */
(PID.TID 0000.0001)                 3.600000000000000E+04
(PID.TID 0000.0001)     ;
(PID.TID 0000.0001) pChkPtFreq =   /* Permanent restart/checkpoint file interval ( s ). */
(PID.TID 0000.0001)                 0.000000000000000E+00
(PID.TID 0000.0001)     ;
(PID.TID 0000.0001) chkPtFreq =   /* Rolling restart/checkpoint file interval ( s ). */
(PID.TID 0000.0001)                 0.000000000000000E+00
(PID.TID 0000.0001)     ;
(PID.TID 0000.0001) pickup_write_mdsio =   /* Model IO flag. */
(PID.TID 0000.0001)                   F
(PID.TID 0000.0001)     ;
(PID.TID 0000.0001) pickup_read_mdsio =   /* Model IO flag. */
(PID.TID 0000.0001)                   F
(PID.TID 0000.0001)     ;
(PID.TID 0000.0001) pickup_write_mnc =   /* Model IO flag. */
(PID.TID 0000.0001)                   T
(PID.TID 0000.0001)     ;
(PID.TID 0000.0001) pickup_read_mnc =   /* Model IO flag. */
(PID.TID 0000.0001)                   T
(PID.TID 0000.0001)     ;
(PID.TID 0000.0001) pickup_write_immed =   /* Model IO flag. */
(PID.TID 0000.0001)                   F
(PID.TID 0000.0001)     ;
(PID.TID 0000.0001) dumpFreq =   /* Model state write out interval ( s ). */
(PID.TID 0000.0001)                 0.000000000000000E+00
(PID.TID 0000.0001)     ;
(PID.TID 0000.0001) dumpInitAndLast= /* write out Initial & Last iter. model state */
(PID.TID 0000.0001)                   T
(PID.TID 0000.0001)     ;
(PID.TID 0000.0001) snapshot_mdsio =   /* Model IO flag. */
(PID.TID 0000.0001)                   F
(PID.TID 0000.0001)     ;
(PID.TID 0000.0001) snapshot_mnc =   /* Model IO flag. */
(PID.TID 0000.0001)                   T
(PID.TID 0000.0001)     ;
(PID.TID 0000.0001) monitorFreq =   /* Monitor output interval ( s ). */
(PID.TID 0000.0001)                 1.000000000000000E+00
(PID.TID 0000.0001)     ;
(PID.TID 0000.0001) monitor_stdio =   /* Model IO flag. */
(PID.TID 0000.0001)                   T
(PID.TID 0000.0001)     ;
(PID.TID 0000.0001) monitor_mnc =   /* Model IO flag. */
(PID.TID 0000.0001)                   F
(PID.TID 0000.0001)     ;
(PID.TID 0000.0001) externForcingPeriod =   /* forcing period (s) */
(PID.TID 0000.0001)                 0.000000000000000E+00
(PID.TID 0000.0001)     ;
(PID.TID 0000.0001) externForcingCycle =   /* period of the cyle (s). */
(PID.TID 0000.0001)                 0.000000000000000E+00
(PID.TID 0000.0001)     ;
(PID.TID 0000.0001) tauThetaClimRelax =   /* relaxation time scale (s) */
(PID.TID 0000.0001)                 0.000000000000000E+00
(PID.TID 0000.0001)     ;
(PID.TID 0000.0001) tauSaltClimRelax =   /* relaxation time scale (s) */
(PID.TID 0000.0001)                 0.000000000000000E+00
(PID.TID 0000.0001)     ;
(PID.TID 0000.0001) latBandClimRelax =   /* max. Lat. where relaxation */
(PID.TID 0000.0001)                 1.800000000000000E+02
(PID.TID 0000.0001)     ;
(PID.TID 0000.0001) //
(PID.TID 0000.0001) // Gridding paramters ( PARM04 in namelist )
(PID.TID 0000.0001) //
(PID.TID 0000.0001) usingCartesianGrid =   /* Cartesian coordinates flag ( True / False ) */
(PID.TID 0000.0001)                   F
(PID.TID 0000.0001)     ;
(PID.TID 0000.0001) usingSphericalPolarGrid =   /* Spherical coordinates flag ( True / False ) */
(PID.TID 0000.0001)                   T
(PID.TID 0000.0001)     ;
(PID.TID 0000.0001) usingCylindricalGrid =   /* Spherical coordinates flag ( True / False ) */
(PID.TID 0000.0001)                   F
(PID.TID 0000.0001)     ;
(PID.TID 0000.0001) Ro_SeaLevel =   /* r(1) ( units of r ) */
(PID.TID 0000.0001)                 0.000000000000000E+00
(PID.TID 0000.0001)     ;
(PID.TID 0000.0001) rkSign =   /* index orientation relative to vertical coordinate */
(PID.TID 0000.0001)                -1.000000000000000E+00
(PID.TID 0000.0001)     ;
(PID.TID 0000.0001) horiVertRatio =   /* Ratio on units : Horiz - Vertical */
(PID.TID 0000.0001)                 1.000000000000000E+00
(PID.TID 0000.0001)     ;
(PID.TID 0000.0001) drC =   /* C spacing ( units of r ) */
(PID.TID 0000.0001)                 1.500000000000000E+01,      /* K =  1 */
(PID.TID 0000.0001)    29 @  3.000000000000000E+01              /* K =  2: 30 */
(PID.TID 0000.0001)     ;
(PID.TID 0000.0001) drF =   /* W spacing ( units of r ) */
(PID.TID 0000.0001)    30 @  3.000000000000000E+01              /* K =  1: 30 */
(PID.TID 0000.0001)     ;
(PID.TID 0000.0001) delX =   /* U spacing ( m - cartesian, degrees - spherical ) */
(PID.TID 0000.0001)    50 @  3.000000000000000E-01,             /* I =  1: 50 */
(PID.TID 0000.0001)    50 @  1.234567000000000E+05              /* I = 51:100 */
(PID.TID 0000.0001)     ;
(PID.TID 0000.0001) delY =   /* V spacing ( m - cartesian, degrees - spherical ) */
(PID.TID 0000.0001)    50 @  1.000000000000000E-01              /* J =  1: 50 */
(PID.TID 0000.0001)     ;
(PID.TID 0000.0001) phiMin =    /* South edge (ignored - cartesian, degrees - spherical ) */
(PID.TID 0000.0001)                -8.000000000000000E+01
(PID.TID 0000.0001)     ;
(PID.TID 0000.0001) thetaMin =    /* West edge ( ignored - cartesian, degrees - spherical ) */
(PID.TID 0000.0001)                 0.000000000000000E+00
(PID.TID 0000.0001)     ;
(PID.TID 0000.0001) rSphere =    /* Radius ( ignored - cartesian, m - spherical ) */
(PID.TID 0000.0001)                 6.370000000000000E+06
(PID.TID 0000.0001)     ;
(PID.TID 0000.0001) xcoord =   /* P-point X coord ( m - cartesian, degrees - spherical ) */
(PID.TID 0000.0001)                 1.500000000291038E-01,      /* I =  1 */
(PID.TID 0000.0001)                 4.500000000291038E-01,      /* I =  2 */
(PID.TID 0000.0001)                 7.500000000291038E-01,      /* I =  3 */
(PID.TID 0000.0001)                 1.050000000029104E+00,      /* I =  4 */
(PID.TID 0000.0001)                 1.350000000029104E+00,      /* I =  5 */
(PID.TID 0000.0001)                 1.650000000029104E+00,      /* I =  6 */
(PID.TID 0000.0001)                 1.950000000029104E+00,      /* I =  7 */
(PID.TID 0000.0001)                 2.250000000029104E+00,      /* I =  8 */
(PID.TID 0000.0001)                 2.550000000029104E+00,      /* I =  9 */
(PID.TID 0000.0001)                 2.850000000029103E+00,      /* I = 10 */
(PID.TID 0000.0001)                 3.150000000029103E+00,      /* I = 11 */
(PID.TID 0000.0001)                 3.450000000029103E+00,      /* I = 12 */
(PID.TID 0000.0001)                 3.750000000029103E+00,      /* I = 13 */
(PID.TID 0000.0001)                 4.050000000029103E+00,      /* I = 14 */
(PID.TID 0000.0001)                 4.350000000029103E+00,      /* I = 15 */
(PID.TID 0000.0001)                 4.650000000029102E+00,      /* I = 16 */
(PID.TID 0000.0001)                 4.950000000029103E+00,      /* I = 17 */
(PID.TID 0000.0001)                 5.250000000029102E+00,      /* I = 18 */
(PID.TID 0000.0001)                 5.550000000029103E+00,      /* I = 19 */
(PID.TID 0000.0001)                 5.850000000029102E+00,      /* I = 20 */
(PID.TID 0000.0001)                 6.150000000029102E+00,      /* I = 21 */
(PID.TID 0000.0001)                 6.450000000029101E+00,      /* I = 22 */
(PID.TID 0000.0001)                 6.750000000029102E+00,      /* I = 23 */
(PID.TID 0000.0001)                 7.050000000029101E+00,      /* I = 24 */
(PID.TID 0000.0001)                 7.350000000029101E+00,      /* I = 25 */
(PID.TID 0000.0001)                 7.650000000029101E+00,      /* I = 26 */
(PID.TID 0000.0001)                 7.950000000029101E+00,      /* I = 27 */
(PID.TID 0000.0001)                 8.250000000029102E+00,      /* I = 28 */
(PID.TID 0000.0001)                 8.550000000029103E+00,      /* I = 29 */
(PID.TID 0000.0001)                 8.850000000029103E+00,      /* I = 30 */
(PID.TID 0000.0001)                 9.150000000029104E+00,      /* I = 31 */
(PID.TID 0000.0001)                 9.450000000029105E+00,      /* I = 32 */
(PID.TID 0000.0001)                 9.750000000029106E+00,      /* I = 33 */
(PID.TID 0000.0001)                 1.005000000002911E+01,      /* I = 34 */
(PID.TID 0000.0001)                 1.035000000002911E+01,      /* I = 35 */
(PID.TID 0000.0001)                 1.065000000002911E+01,      /* I = 36 */
(PID.TID 0000.0001)                 1.095000000002911E+01,      /* I = 37 */
(PID.TID 0000.0001)                 1.125000000002911E+01,      /* I = 38 */
(PID.TID 0000.0001)                 1.155000000002911E+01,      /* I = 39 */
(PID.TID 0000.0001)                 1.185000000002911E+01,      /* I = 40 */
(PID.TID 0000.0001)                 1.215000000002911E+01,      /* I = 41 */
(PID.TID 0000.0001)                 1.245000000002911E+01,      /* I = 42 */
(PID.TID 0000.0001)                 1.275000000002911E+01,      /* I = 43 */
(PID.TID 0000.0001)                 1.305000000002911E+01,      /* I = 44 */
(PID.TID 0000.0001)                 1.335000000002912E+01,      /* I = 45 */
(PID.TID 0000.0001)                 1.365000000002911E+01,      /* I = 46 */
(PID.TID 0000.0001)                 1.395000000002911E+01,      /* I = 47 */
(PID.TID 0000.0001)                 1.425000000002912E+01,      /* I = 48 */
(PID.TID 0000.0001)                 1.455000000002912E+01,      /* I = 49 */
(PID.TID 0000.0001)                 1.485000000002912E+01,      /* I = 50 */
(PID.TID 0000.0001)                 6.174335000000000E+04,      /* I = 51 */
(PID.TID 0000.0001)                 1.852000500000000E+05,      /* I = 52 */
(PID.TID 0000.0001)                 3.086567500000000E+05,      /* I = 53 */
(PID.TID 0000.0001)                 4.321134500000000E+05,      /* I = 54 */
(PID.TID 0000.0001)                 5.555701500000000E+05,      /* I = 55 */
(PID.TID 0000.0001)                 6.790268500000000E+05,      /* I = 56 */
(PID.TID 0000.0001)                 8.024835499999999E+05,      /* I = 57 */
(PID.TID 0000.0001)                 9.259402499999998E+05,      /* I = 58 */
(PID.TID 0000.0001)                 1.049396950000000E+06,      /* I = 59 */
(PID.TID 0000.0001)                 1.172853650000000E+06,      /* I = 60 */
(PID.TID 0000.0001)                 1.296310350000000E+06,      /* I = 61 */
(PID.TID 0000.0001)                 1.419767050000000E+06,      /* I = 62 */
(PID.TID 0000.0001)                 1.543223750000000E+06,      /* I = 63 */
(PID.TID 0000.0001)                 1.666680450000000E+06,      /* I = 64 */
(PID.TID 0000.0001)                 1.790137149999999E+06,      /* I = 65 */
(PID.TID 0000.0001)                 1.913593850000000E+06,      /* I = 66 */
(PID.TID 0000.0001)                 2.037050549999999E+06,      /* I = 67 */
(PID.TID 0000.0001)                 2.160507250000000E+06,      /* I = 68 */
(PID.TID 0000.0001)                 2.283963950000000E+06,      /* I = 69 */
(PID.TID 0000.0001)                 2.407420650000000E+06,      /* I = 70 */
(PID.TID 0000.0001)                 2.530877350000000E+06,      /* I = 71 */
(PID.TID 0000.0001)                 2.654334050000000E+06,      /* I = 72 */
(PID.TID 0000.0001)                 2.777790750000000E+06,      /* I = 73 */
(PID.TID 0000.0001)                 2.901247450000001E+06,      /* I = 74 */
(PID.TID 0000.0001)                 3.024704150000000E+06,      /* I = 75 */
(PID.TID 0000.0001)                 3.148160850000001E+06,      /* I = 76 */
(PID.TID 0000.0001)                 3.271617550000002E+06,      /* I = 77 */
(PID.TID 0000.0001)                 3.395074250000001E+06,      /* I = 78 */
(PID.TID 0000.0001)                 3.518530950000001E+06,      /* I = 79 */
(PID.TID 0000.0001)                 3.641987650000002E+06,      /* I = 80 */
(PID.TID 0000.0001)                 3.765444350000002E+06,      /* I = 81 */
(PID.TID 0000.0001)                 3.888901050000002E+06,      /* I = 82 */
(PID.TID 0000.0001)                 4.012357750000002E+06,      /* I = 83 */
(PID.TID 0000.0001)                 4.135814450000003E+06,      /* I = 84 */
(PID.TID 0000.0001)                 4.259271150000002E+06,      /* I = 85 */
(PID.TID 0000.0001)                 4.382727850000003E+06,      /* I = 86 */
(PID.TID 0000.0001)                 4.506184550000003E+06,      /* I = 87 */
(PID.TID 0000.0001)                 4.629641250000004E+06,      /* I = 88 */
(PID.TID 0000.0001)                 4.753097950000003E+06,      /* I = 89 */
(PID.TID 0000.0001)                 4.876554650000004E+06,      /* I = 90 */
(PID.TID 0000.0001)                 5.000011350000003E+06,      /* I = 91 */
(PID.TID 0000.0001)                 5.123468050000004E+06,      /* I = 92 */
(PID.TID 0000.0001)                 5.246924750000004E+06,      /* I = 93 */
(PID.TID 0000.0001)                 5.370381450000005E+06,      /* I = 94 */
(PID.TID 0000.0001)                 5.493838150000004E+06,      /* I = 95 */
(PID.TID 0000.0001)                 5.617294850000005E+06,      /* I = 96 */
(PID.TID 0000.0001)                 5.740751550000004E+06,      /* I = 97 */
(PID.TID 0000.0001)                 5.864208250000006E+06,      /* I = 98 */
(PID.TID 0000.0001)                 5.987664950000005E+06,      /* I = 99 */
(PID.TID 0000.0001)                 6.111121650000006E+06       /* I =100 */
(PID.TID 0000.0001)     ;
(PID.TID 0000.0001) ycoord =   /* P-point Y coord ( m - cartesian, degrees - spherical ) */
(PID.TID 0000.0001)                -7.995000000000000E+01,      /* J =  1 */
(PID.TID 0000.0001)                -7.985000000000001E+01,      /* J =  2 */
(PID.TID 0000.0001)                -7.975000000000001E+01,      /* J =  3 */
(PID.TID 0000.0001)                -7.965000000000002E+01,      /* J =  4 */
(PID.TID 0000.0001)                -7.955000000000003E+01,      /* J =  5 */
(PID.TID 0000.0001)                -7.945000000000003E+01,      /* J =  6 */
(PID.TID 0000.0001)                -7.935000000000004E+01,      /* J =  7 */
(PID.TID 0000.0001)                -7.925000000000004E+01,      /* J =  8 */
(PID.TID 0000.0001)                -7.915000000000005E+01,      /* J =  9 */
(PID.TID 0000.0001)                -7.905000000000005E+01,      /* J = 10 */
(PID.TID 0000.0001)                -7.895000000000006E+01,      /* J = 11 */
(PID.TID 0000.0001)                -7.885000000000007E+01,      /* J = 12 */
(PID.TID 0000.0001)                -7.875000000000007E+01,      /* J = 13 */
(PID.TID 0000.0001)                -7.865000000000008E+01,      /* J = 14 */
(PID.TID 0000.0001)                -7.855000000000008E+01,      /* J = 15 */
(PID.TID 0000.0001)                -7.845000000000009E+01,      /* J = 16 */
(PID.TID 0000.0001)                -7.835000000000009E+01,      /* J = 17 */
(PID.TID 0000.0001)                -7.825000000000010E+01,      /* J = 18 */
(PID.TID 0000.0001)                -7.815000000000011E+01,      /* J = 19 */
(PID.TID 0000.0001)                -7.805000000000011E+01,      /* J = 20 */
(PID.TID 0000.0001)                -7.795000000000012E+01,      /* J = 21 */
(PID.TID 0000.0001)                -7.785000000000012E+01,      /* J = 22 */
(PID.TID 0000.0001)                -7.775000000000013E+01,      /* J = 23 */
(PID.TID 0000.0001)                -7.765000000000013E+01,      /* J = 24 */
(PID.TID 0000.0001)                -7.755000000000014E+01,      /* J = 25 */
(PID.TID 0000.0001)                -7.745000000000014E+01,      /* J = 26 */
(PID.TID 0000.0001)                -7.735000000000015E+01,      /* J = 27 */
(PID.TID 0000.0001)                -7.725000000000016E+01,      /* J = 28 */
(PID.TID 0000.0001)                -7.715000000000016E+01,      /* J = 29 */
(PID.TID 0000.0001)                -7.705000000000017E+01,      /* J = 30 */
(PID.TID 0000.0001)                -7.695000000000017E+01,      /* J = 31 */
(PID.TID 0000.0001)                -7.685000000000018E+01,      /* J = 32 */
(PID.TID 0000.0001)                -7.675000000000018E+01,      /* J = 33 */
(PID.TID 0000.0001)                -7.665000000000019E+01,      /* J = 34 */
(PID.TID 0000.0001)                -7.655000000000020E+01,      /* J = 35 */
(PID.TID 0000.0001)                -7.645000000000020E+01,      /* J = 36 */
(PID.TID 0000.0001)                -7.635000000000021E+01,      /* J = 37 */
(PID.TID 0000.0001)                -7.625000000000021E+01,      /* J = 38 */
(PID.TID 0000.0001)                -7.615000000000022E+01,      /* J = 39 */
(PID.TID 0000.0001)                -7.605000000000022E+01,      /* J = 40 */
(PID.TID 0000.0001)                -7.595000000000023E+01,      /* J = 41 */
(PID.TID 0000.0001)                -7.585000000000024E+01,      /* J = 42 */
(PID.TID 0000.0001)                -7.575000000000024E+01,      /* J = 43 */
(PID.TID 0000.0001)                -7.565000000000025E+01,      /* J = 44 */
(PID.TID 0000.0001)                -7.555000000000025E+01,      /* J = 45 */
(PID.TID 0000.0001)                -7.545000000000026E+01,      /* J = 46 */
(PID.TID 0000.0001)                -7.535000000000026E+01,      /* J = 47 */
(PID.TID 0000.0001)                -7.525000000000027E+01,      /* J = 48 */
(PID.TID 0000.0001)                -7.515000000000028E+01,      /* J = 49 */
(PID.TID 0000.0001)                -7.505000000000028E+01       /* J = 50 */
(PID.TID 0000.0001)     ;
(PID.TID 0000.0001) rcoord =   /* P-point R coordinate (  units of r ) */
(PID.TID 0000.0001)                -1.500000000000000E+01,      /* K =  1 */
(PID.TID 0000.0001)                -4.500000000000000E+01,      /* K =  2 */
(PID.TID 0000.0001)                -7.500000000000000E+01,      /* K =  3 */
(PID.TID 0000.0001)                -1.050000000000000E+02,      /* K =  4 */
(PID.TID 0000.0001)                -1.350000000000000E+02,      /* K =  5 */
(PID.TID 0000.0001)                -1.650000000000000E+02,      /* K =  6 */
(PID.TID 0000.0001)                -1.950000000000000E+02,      /* K =  7 */
(PID.TID 0000.0001)                -2.250000000000000E+02,      /* K =  8 */
(PID.TID 0000.0001)                -2.550000000000000E+02,      /* K =  9 */
(PID.TID 0000.0001)                -2.850000000000000E+02,      /* K = 10 */
(PID.TID 0000.0001)                -3.150000000000000E+02,      /* K = 11 */
(PID.TID 0000.0001)                -3.450000000000000E+02,      /* K = 12 */
(PID.TID 0000.0001)                -3.750000000000000E+02,      /* K = 13 */
(PID.TID 0000.0001)                -4.050000000000000E+02,      /* K = 14 */
(PID.TID 0000.0001)                -4.350000000000000E+02,      /* K = 15 */
(PID.TID 0000.0001)                -4.650000000000000E+02,      /* K = 16 */
(PID.TID 0000.0001)                -4.950000000000000E+02,      /* K = 17 */
(PID.TID 0000.0001)                -5.250000000000000E+02,      /* K = 18 */
(PID.TID 0000.0001)                -5.550000000000000E+02,      /* K = 19 */
(PID.TID 0000.0001)                -5.850000000000000E+02,      /* K = 20 */
(PID.TID 0000.0001)                -6.150000000000000E+02,      /* K = 21 */
(PID.TID 0000.0001)                -6.450000000000000E+02,      /* K = 22 */
(PID.TID 0000.0001)                -6.750000000000000E+02,      /* K = 23 */
(PID.TID 0000.0001)                -7.050000000000000E+02,      /* K = 24 */
(PID.TID 0000.0001)                -7.350000000000000E+02,      /* K = 25 */
(PID.TID 0000.0001)                -7.650000000000000E+02,      /* K = 26 */
(PID.TID 0000.0001)                -7.950000000000000E+02,      /* K = 27 */
(PID.TID 0000.0001)                -8.250000000000000E+02,      /* K = 28 */
(PID.TID 0000.0001)                -8.550000000000000E+02,      /* K = 29 */
(PID.TID 0000.0001)                -8.850000000000000E+02       /* K = 30 */
(PID.TID 0000.0001)     ;
(PID.TID 0000.0001) rF =   /* W-Interf. R coordinate (  units of r ) */
(PID.TID 0000.0001)                 0.000000000000000E+00,      /* K =  1 */
(PID.TID 0000.0001)                -3.000000000000000E+01,      /* K =  2 */
(PID.TID 0000.0001)                -6.000000000000000E+01,      /* K =  3 */
(PID.TID 0000.0001)                -9.000000000000000E+01,      /* K =  4 */
(PID.TID 0000.0001)                -1.200000000000000E+02,      /* K =  5 */
(PID.TID 0000.0001)                -1.500000000000000E+02,      /* K =  6 */
(PID.TID 0000.0001)                -1.800000000000000E+02,      /* K =  7 */
(PID.TID 0000.0001)                -2.100000000000000E+02,      /* K =  8 */
(PID.TID 0000.0001)                -2.400000000000000E+02,      /* K =  9 */
(PID.TID 0000.0001)                -2.700000000000000E+02,      /* K = 10 */
(PID.TID 0000.0001)                -3.000000000000000E+02,      /* K = 11 */
(PID.TID 0000.0001)                -3.300000000000000E+02,      /* K = 12 */
(PID.TID 0000.0001)                -3.600000000000000E+02,      /* K = 13 */
(PID.TID 0000.0001)                -3.900000000000000E+02,      /* K = 14 */
(PID.TID 0000.0001)                -4.200000000000000E+02,      /* K = 15 */
(PID.TID 0000.0001)                -4.500000000000000E+02,      /* K = 16 */
(PID.TID 0000.0001)                -4.800000000000000E+02,      /* K = 17 */
(PID.TID 0000.0001)                -5.100000000000000E+02,      /* K = 18 */
(PID.TID 0000.0001)                -5.400000000000000E+02,      /* K = 19 */
(PID.TID 0000.0001)                -5.700000000000000E+02,      /* K = 20 */
(PID.TID 0000.0001)                -6.000000000000000E+02,      /* K = 21 */
(PID.TID 0000.0001)                -6.300000000000000E+02,      /* K = 22 */
(PID.TID 0000.0001)                -6.600000000000000E+02,      /* K = 23 */
(PID.TID 0000.0001)                -6.900000000000000E+02,      /* K = 24 */
(PID.TID 0000.0001)                -7.200000000000000E+02,      /* K = 25 */
(PID.TID 0000.0001)                -7.500000000000000E+02,      /* K = 26 */
(PID.TID 0000.0001)                -7.800000000000000E+02,      /* K = 27 */
(PID.TID 0000.0001)                -8.100000000000000E+02,      /* K = 28 */
(PID.TID 0000.0001)                -8.400000000000000E+02,      /* K = 29 */
(PID.TID 0000.0001)                -8.700000000000000E+02,      /* K = 30 */
(PID.TID 0000.0001)                -9.000000000000000E+02       /* K = 31 */
(PID.TID 0000.0001)     ;
(PID.TID 0000.0001) dBdrRef = /* Vertical gradient of reference boyancy [(m/s/r)^2)] */
(PID.TID 0000.0001)    30 @  0.000000000000000E+00              /* K =  1: 30 */
(PID.TID 0000.0001)     ;
(PID.TID 0000.0001) dxF =  /* dxF(:,1,:,1) ( units: m ) */
(PID.TID 0000.0001)    50 @  5.820391490558872E+03,             /* I =  1: 50 */
(PID.TID 0000.0001)    50 @  2.395221087108265E+09              /* I = 51:100 */
(PID.TID 0000.0001)     ;
(PID.TID 0000.0001) dxF =  /* dxF(1,:,1,:) ( units: m ) */
(PID.TID 0000.0001)                 5.820391490558872E+03,      /* J =  1 */
(PID.TID 0000.0001)                 5.877701765291692E+03,      /* J =  2 */
(PID.TID 0000.0001)                 5.934994135525598E+03,      /* J =  3 */
(PID.TID 0000.0001)                 5.992268426738092E+03,      /* J =  4 */
(PID.TID 0000.0001)                 6.049524464461751E+03,      /* J =  5 */
(PID.TID 0000.0001)                 6.106762074284755E+03,      /* J =  6 */
(PID.TID 0000.0001)                 6.163981081851418E+03,      /* J =  7 */
(PID.TID 0000.0001)                 6.221181312862721E+03,      /* J =  8 */
(PID.TID 0000.0001)                 6.278362593076839E+03,      /* J =  9 */
(PID.TID 0000.0001)                 6.335524748309675E+03,      /* J = 10 */
(PID.TID 0000.0001)                 6.392667604435392E+03,      /* J = 11 */
(PID.TID 0000.0001)                 6.449790987386939E+03,      /* J = 12 */
(PID.TID 0000.0001)                 6.506894723156589E+03,      /* J = 13 */
(PID.TID 0000.0001)                 6.563978637796454E+03,      /* J = 14 */
(PID.TID 0000.0001)                 6.621042557419033E+03,      /* J = 15 */
(PID.TID 0000.0001)                 6.678086308197730E+03,      /* J = 16 */
(PID.TID 0000.0001)                 6.735109716367390E+03,      /* J = 17 */
(PID.TID 0000.0001)                 6.792112608224819E+03,      /* J = 18 */
(PID.TID 0000.0001)                 6.849094810129332E+03,      /* J = 19 */
(PID.TID 0000.0001)                 6.906056148503244E+03,      /* J = 20 */
(PID.TID 0000.0001)                 6.962996449832446E+03,      /* J = 21 */
(PID.TID 0000.0001)                 7.019915540666910E+03,      /* J = 22 */
(PID.TID 0000.0001)                 7.076813247621209E+03,      /* J = 23 */
(PID.TID 0000.0001)                 7.133689397375063E+03,      /* J = 24 */
(PID.TID 0000.0001)                 7.190543816673855E+03,      /* J = 25 */
(PID.TID 0000.0001)                 7.247376332329164E+03,      /* J = 26 */
(PID.TID 0000.0001)                 7.304186771219292E+03,      /* J = 27 */
(PID.TID 0000.0001)                 7.360974960289787E+03,      /* J = 28 */
(PID.TID 0000.0001)                 7.417740726553981E+03,      /* J = 29 */
(PID.TID 0000.0001)                 7.474483897093503E+03,      /* J = 30 */
(PID.TID 0000.0001)                 7.531204299058815E+03,      /* J = 31 */
(PID.TID 0000.0001)                 7.587901759669735E+03,      /* J = 32 */
(PID.TID 0000.0001)                 7.644576106215967E+03,      /* J = 33 */
(PID.TID 0000.0001)                 7.701227166057623E+03,      /* J = 34 */
(PID.TID 0000.0001)                 7.757854766625747E+03,      /* J = 35 */
(PID.TID 0000.0001)                 7.814458735422849E+03,      /* J = 36 */
(PID.TID 0000.0001)                 7.871038900023425E+03,      /* J = 37 */
(PID.TID 0000.0001)                 7.927595088074479E+03,      /* J = 38 */
(PID.TID 0000.0001)                 7.984127127296055E+03,      /* J = 39 */
(PID.TID 0000.0001)                 8.040634845481757E+03,      /* J = 40 */
(PID.TID 0000.0001)                 8.097118070499275E+03,      /* J = 41 */
(PID.TID 0000.0001)                 8.153576630290919E+03,      /* J = 42 */
(PID.TID 0000.0001)                 8.210010352874109E+03,      /* J = 43 */
(PID.TID 0000.0001)                 8.266419066341947E+03,      /* J = 44 */
(PID.TID 0000.0001)                 8.322802598863705E+03,      /* J = 45 */
(PID.TID 0000.0001)                 8.379160778685373E+03,      /* J = 46 */
(PID.TID 0000.0001)                 8.435493434130152E+03,      /* J = 47 */
(PID.TID 0000.0001)                 8.491800393599013E+03,      /* J = 48 */
(PID.TID 0000.0001)                 8.548081485571185E+03,      /* J = 49 */
(PID.TID 0000.0001)                 8.604336538604706E+03       /* J = 50 */
(PID.TID 0000.0001)     ;
(PID.TID 0000.0001) dyF =  /* dyF(:,1,:,1) ( units: m ) */
(PID.TID 0000.0001)   100 @  1.111774733520388E+04              /* I =  1:100 */
(PID.TID 0000.0001)     ;
(PID.TID 0000.0001) dyF =  /* dyF(1,:,1,:) ( units: m ) */
(PID.TID 0000.0001)    50 @  1.111774733520388E+04              /* J =  1: 50 */
(PID.TID 0000.0001)     ;
(PID.TID 0000.0001) dxG =  /* dxG(:,1,:,1) ( units: m ) */
(PID.TID 0000.0001)    50 @  5.791729693558576E+03,             /* I =  1: 50 */
(PID.TID 0000.0001)    50 @  2.383426117529177E+09              /* I = 51:100 */
(PID.TID 0000.0001)     ;
(PID.TID 0000.0001) dxG =  /* dxG(1,:,1,:) ( units: m ) */
(PID.TID 0000.0001)                 5.791729693558576E+03,      /* J =  1 */
(PID.TID 0000.0001)                 5.849048855077854E+03,      /* J =  2 */
(PID.TID 0000.0001)                 5.906350199379949E+03,      /* J =  3 */
(PID.TID 0000.0001)                 5.963633551915032E+03,      /* J =  4 */
(PID.TID 0000.0001)                 6.020898738188074E+03,      /* J =  5 */
(PID.TID 0000.0001)                 6.078145583759388E+03,      /* J =  6 */
(PID.TID 0000.0001)                 6.135373914245153E+03,      /* J =  7 */
(PID.TID 0000.0001)                 6.192583555317951E+03,      /* J =  8 */
(PID.TID 0000.0001)                 6.249774332707294E+03,      /* J =  9 */
(PID.TID 0000.0001)                 6.306946072200154E+03,      /* J = 10 */
(PID.TID 0000.0001)                 6.364098599641497E+03,      /* J = 11 */
(PID.TID 0000.0001)                 6.421231740934816E+03,      /* J = 12 */
(PID.TID 0000.0001)                 6.478345322042654E+03,      /* J = 13 */
(PID.TID 0000.0001)                 6.535439168987135E+03,      /* J = 14 */
(PID.TID 0000.0001)                 6.592513107850500E+03,      /* J = 15 */
(PID.TID 0000.0001)                 6.649566964775637E+03,      /* J = 16 */
(PID.TID 0000.0001)                 6.706600565966598E+03,      /* J = 17 */
(PID.TID 0000.0001)                 6.763613737689147E+03,      /* J = 18 */
(PID.TID 0000.0001)                 6.820606306271281E+03,      /* J = 19 */
(PID.TID 0000.0001)                 6.877578098103740E+03,      /* J = 20 */
(PID.TID 0000.0001)                 6.934528939640570E+03,      /* J = 21 */
(PID.TID 0000.0001)                 6.991458657399629E+03,      /* J = 22 */
(PID.TID 0000.0001)                 7.048367077963129E+03,      /* J = 23 */
(PID.TID 0000.0001)                 7.105254027978149E+03,      /* J = 24 */
(PID.TID 0000.0001)                 7.162119334157175E+03,      /* J = 25 */
(PID.TID 0000.0001)                 7.218962823278620E+03,      /* J = 26 */
(PID.TID 0000.0001)                 7.275784322187360E+03,      /* J = 27 */
(PID.TID 0000.0001)                 7.332583657795253E+03,      /* J = 28 */
(PID.TID 0000.0001)                 7.389360657081677E+03,      /* J = 29 */
(PID.TID 0000.0001)                 7.446115147094042E+03,      /* J = 30 */
(PID.TID 0000.0001)                 7.502846954948329E+03,      /* J = 31 */
(PID.TID 0000.0001)                 7.559555907829611E+03,      /* J = 32 */
(PID.TID 0000.0001)                 7.616241832992587E+03,      /* J = 33 */
(PID.TID 0000.0001)                 7.672904557762095E+03,      /* J = 34 */
(PID.TID 0000.0001)                 7.729543909533650E+03,      /* J = 35 */
(PID.TID 0000.0001)                 7.786159715773963E+03,      /* J = 36 */
(PID.TID 0000.0001)                 7.842751804021470E+03,      /* J = 37 */
(PID.TID 0000.0001)                 7.899320001886857E+03,      /* J = 38 */
(PID.TID 0000.0001)                 7.955864137053582E+03,      /* J = 39 */
(PID.TID 0000.0001)                 8.012384037278402E+03,      /* J = 40 */
(PID.TID 0000.0001)                 8.068879530391900E+03,      /* J = 41 */
(PID.TID 0000.0001)                 8.125350444299005E+03,      /* J = 42 */
(PID.TID 0000.0001)                 8.181796606979530E+03,      /* J = 43 */
(PID.TID 0000.0001)                 8.238217846488658E+03,      /* J = 44 */
(PID.TID 0000.0001)                 8.294613990957514E+03,      /* J = 45 */
(PID.TID 0000.0001)                 8.350984868593665E+03,      /* J = 46 */
(PID.TID 0000.0001)                 8.407330307681643E+03,      /* J = 47 */
(PID.TID 0000.0001)                 8.463650136583461E+03,      /* J = 48 */
(PID.TID 0000.0001)                 8.519944183739159E+03,      /* J = 49 */
(PID.TID 0000.0001)                 8.576212277667308E+03       /* J = 50 */
(PID.TID 0000.0001)     ;
(PID.TID 0000.0001) dyG =  /* dyG(:,1,:,1) ( units: m ) */
(PID.TID 0000.0001)   100 @  1.111774733520388E+04              /* I =  1:100 */
(PID.TID 0000.0001)     ;
(PID.TID 0000.0001) dyG =  /* dyG(1,:,1,:) ( units: m ) */
(PID.TID 0000.0001)    50 @  1.111774733520388E+04              /* J =  1: 50 */
(PID.TID 0000.0001)     ;
(PID.TID 0000.0001) dxC =  /* dxC(:,1,:,1) ( units: m ) */
(PID.TID 0000.0001)                 1.197613453749878E+09,      /* I =  1 */
(PID.TID 0000.0001)    49 @  5.820391490558872E+03,             /* I =  2: 50 */
(PID.TID 0000.0001)                 1.197613453749878E+09,      /* I = 51 */
(PID.TID 0000.0001)    49 @  2.395221087108265E+09              /* I = 52:100 */
(PID.TID 0000.0001)     ;
(PID.TID 0000.0001) dxC =  /* dxC(1,:,1,:) ( units: m ) */
(PID.TID 0000.0001)                 1.197613453749878E+09,      /* J =  1 */
(PID.TID 0000.0001)                 1.209405711396027E+09,      /* J =  2 */
(PID.TID 0000.0001)                 1.221194284982640E+09,      /* J =  3 */
(PID.TID 0000.0001)                 1.232979138599674E+09,      /* J =  4 */
(PID.TID 0000.0001)                 1.244760236348424E+09,      /* J =  5 */
(PID.TID 0000.0001)                 1.256537542341622E+09,      /* J =  6 */
(PID.TID 0000.0001)                 1.268311020703551E+09,      /* J =  7 */
(PID.TID 0000.0001)                 1.280080635570155E+09,      /* J =  8 */
(PID.TID 0000.0001)                 1.291846351089146E+09,      /* J =  9 */
(PID.TID 0000.0001)                 1.303608131420113E+09,      /* J = 10 */
(PID.TID 0000.0001)                 1.315365940734634E+09,      /* J = 11 */
(PID.TID 0000.0001)                 1.327119743216383E+09,      /* J = 12 */
(PID.TID 0000.0001)                 1.338869503061238E+09,      /* J = 13 */
(PID.TID 0000.0001)                 1.350615184477395E+09,      /* J = 14 */
(PID.TID 0000.0001)                 1.362356751685469E+09,      /* J = 15 */
(PID.TID 0000.0001)                 1.374094168918612E+09,      /* J = 16 */
(PID.TID 0000.0001)                 1.385827400422615E+09,      /* J = 17 */
(PID.TID 0000.0001)                 1.397556410456019E+09,      /* J = 18 */
(PID.TID 0000.0001)                 1.409281163290228E+09,      /* J = 19 */
(PID.TID 0000.0001)                 1.421001623209609E+09,      /* J = 20 */
(PID.TID 0000.0001)                 1.432717754511607E+09,      /* J = 21 */
(PID.TID 0000.0001)                 1.444429521506858E+09,      /* J = 22 */
(PID.TID 0000.0001)                 1.456136888519286E+09,      /* J = 23 */
(PID.TID 0000.0001)                 1.467839819886222E+09,      /* J = 24 */
(PID.TID 0000.0001)                 1.479538279958507E+09,      /* J = 25 */
(PID.TID 0000.0001)                 1.491232233100603E+09,      /* J = 26 */
(PID.TID 0000.0001)                 1.502921643690700E+09,      /* J = 27 */
(PID.TID 0000.0001)                 1.514606476120827E+09,      /* J = 28 */
(PID.TID 0000.0001)                 1.526286694796958E+09,      /* J = 29 */
(PID.TID 0000.0001)                 1.537962264139121E+09,      /* J = 30 */
(PID.TID 0000.0001)                 1.549633148581507E+09,      /* J = 31 */
(PID.TID 0000.0001)                 1.561299312572577E+09,      /* J = 32 */
(PID.TID 0000.0001)                 1.572960720575174E+09,      /* J = 33 */
(PID.TID 0000.0001)                 1.584617337066627E+09,      /* J = 34 */
(PID.TID 0000.0001)                 1.596269126538858E+09,      /* J = 35 */
(PID.TID 0000.0001)                 1.607916053498498E+09,      /* J = 36 */
(PID.TID 0000.0001)                 1.619558082466986E+09,      /* J = 37 */
(PID.TID 0000.0001)                 1.631195177980685E+09,      /* J = 38 */
(PID.TID 0000.0001)                 1.642827304590982E+09,      /* J = 39 */
(PID.TID 0000.0001)                 1.654454426864402E+09,      /* J = 40 */
(PID.TID 0000.0001)                 1.666076509382715E+09,      /* J = 41 */
(PID.TID 0000.0001)                 1.677693516743043E+09,      /* J = 42 */
(PID.TID 0000.0001)                 1.689305413557965E+09,      /* J = 43 */
(PID.TID 0000.0001)                 1.700912164455629E+09,      /* J = 44 */
(PID.TID 0000.0001)                 1.712513734079861E+09,      /* J = 45 */
(PID.TID 0000.0001)                 1.724110087090267E+09,      /* J = 46 */
(PID.TID 0000.0001)                 1.735701188162344E+09,      /* J = 47 */
(PID.TID 0000.0001)                 1.747287001987589E+09,      /* J = 48 */
(PID.TID 0000.0001)                 1.758867493273603E+09,      /* J = 49 */
(PID.TID 0000.0001)                 1.770442626744202E+09       /* J = 50 */
(PID.TID 0000.0001)     ;
(PID.TID 0000.0001) dyC =  /* dyC(:,1,:,1) ( units: m ) */
(PID.TID 0000.0001)   100 @  1.111774733520388E+04              /* I =  1:100 */
(PID.TID 0000.0001)     ;
(PID.TID 0000.0001) dyC =  /* dyC(1,:,1,:) ( units: m ) */
(PID.TID 0000.0001)    50 @  1.111774733520388E+04              /* J =  1: 50 */
(PID.TID 0000.0001)     ;
(PID.TID 0000.0001) dxV =  /* dxV(:,1,:,1) ( units: m ) */
(PID.TID 0000.0001)                 1.191715954629435E+09,      /* I =  1 */
(PID.TID 0000.0001)    49 @  5.791729693558576E+03,             /* I =  2: 50 */
(PID.TID 0000.0001)                 1.191715954629435E+09,      /* I = 51 */
(PID.TID 0000.0001)    49 @  2.383426117529177E+09              /* I = 52:100 */
(PID.TID 0000.0001)     ;
(PID.TID 0000.0001) dxV =  /* dxV(1,:,1,:) ( units: m ) */
(PID.TID 0000.0001)                 1.191715954629435E+09,      /* J =  1 */
(PID.TID 0000.0001)                 1.203510040835578E+09,      /* J =  2 */
(PID.TID 0000.0001)                 1.215300460941417E+09,      /* J =  3 */
(PID.TID 0000.0001)                 1.227087179031290E+09,      /* J =  4 */
(PID.TID 0000.0001)                 1.238870159200808E+09,      /* J =  5 */
(PID.TID 0000.0001)                 1.250649365556971E+09,      /* J =  6 */
(PID.TID 0000.0001)                 1.262424762218273E+09,      /* J =  7 */
(PID.TID 0000.0001)                 1.274196313314814E+09,      /* J =  8 */
(PID.TID 0000.0001)                 1.285963982988407E+09,      /* J =  9 */
(PID.TID 0000.0001)                 1.297727735392690E+09,      /* J = 10 */
(PID.TID 0000.0001)                 1.309487534693234E+09,      /* J = 11 */
(PID.TID 0000.0001)                 1.321243345067649E+09,      /* J = 12 */
(PID.TID 0000.0001)                 1.332995130705700E+09,      /* J = 13 */
(PID.TID 0000.0001)                 1.344742855809408E+09,      /* J = 14 */
(PID.TID 0000.0001)                 1.356486484593165E+09,      /* J = 15 */
(PID.TID 0000.0001)                 1.368225981283843E+09,      /* J = 16 */
(PID.TID 0000.0001)                 1.379961310120897E+09,      /* J = 17 */
(PID.TID 0000.0001)                 1.391692435356482E+09,      /* J = 18 */
(PID.TID 0000.0001)                 1.403419321255556E+09,      /* J = 19 */
(PID.TID 0000.0001)                 1.415141932095989E+09,      /* J = 20 */
(PID.TID 0000.0001)                 1.426860232168676E+09,      /* J = 21 */
(PID.TID 0000.0001)                 1.438574185777643E+09,      /* J = 22 */
(PID.TID 0000.0001)                 1.450283757240157E+09,      /* J = 23 */
(PID.TID 0000.0001)                 1.461988910886831E+09,      /* J = 24 */
(PID.TID 0000.0001)                 1.473689611061737E+09,      /* J = 25 */
(PID.TID 0000.0001)                 1.485385822122514E+09,      /* J = 26 */
(PID.TID 0000.0001)                 1.497077508440475E+09,      /* J = 27 */
(PID.TID 0000.0001)                 1.508764634400714E+09,      /* J = 28 */
(PID.TID 0000.0001)                 1.520447164402221E+09,      /* J = 29 */
(PID.TID 0000.0001)                 1.532125062857982E+09,      /* J = 30 */
(PID.TID 0000.0001)                 1.543798294195093E+09,      /* J = 31 */
(PID.TID 0000.0001)                 1.555466822854867E+09,      /* J = 32 */
(PID.TID 0000.0001)                 1.567130613292943E+09,      /* J = 33 */
(PID.TID 0000.0001)                 1.578789629979392E+09,      /* J = 34 */
(PID.TID 0000.0001)                 1.590443837398826E+09,      /* J = 35 */
(PID.TID 0000.0001)                 1.602093200050510E+09,      /* J = 36 */
(PID.TID 0000.0001)                 1.613737682448464E+09,      /* J = 37 */
(PID.TID 0000.0001)                 1.625377249121576E+09,      /* J = 38 */
(PID.TID 0000.0001)                 1.637011864613707E+09,      /* J = 39 */
(PID.TID 0000.0001)                 1.648641493483800E+09,      /* J = 40 */
(PID.TID 0000.0001)                 1.660266100305988E+09,      /* J = 41 */
(PID.TID 0000.0001)                 1.671885649669704E+09,      /* J = 42 */
(PID.TID 0000.0001)                 1.683500106179786E+09,      /* J = 43 */
(PID.TID 0000.0001)                 1.695109434456584E+09,      /* J = 44 */
(PID.TID 0000.0001)                 1.706713599136070E+09,      /* J = 45 */
(PID.TID 0000.0001)                 1.718312564869947E+09,      /* J = 46 */
(PID.TID 0000.0001)                 1.729906296325754E+09,      /* J = 47 */
(PID.TID 0000.0001)                 1.741494758186974E+09,      /* J = 48 */
(PID.TID 0000.0001)                 1.753077915153142E+09,      /* J = 49 */
(PID.TID 0000.0001)                 1.764655731939955E+09       /* J = 50 */
(PID.TID 0000.0001)     ;
(PID.TID 0000.0001) dyU =  /* dyU(:,1,:,1) ( units: m ) */
(PID.TID 0000.0001)   100 @  1.111774733520388E+04              /* I =  1:100 */
(PID.TID 0000.0001)     ;
(PID.TID 0000.0001) dyU =  /* dyU(1,:,1,:) ( units: m ) */
(PID.TID 0000.0001)    50 @  1.111774733520388E+04              /* J =  1: 50 */
(PID.TID 0000.0001)     ;
(PID.TID 0000.0001) rA  =  /* rA (:,1,:,1) ( units: m^2 ) */
(PID.TID 0000.0001)    50 @  6.470963377080289E+07,             /* I =  1: 50 */
(PID.TID 0000.0001)    50 @  2.662945947850627E+13              /* I = 51:100 */
(PID.TID 0000.0001)     ;
(PID.TID 0000.0001) rA  =  /* rA (1,:,1,:) ( units: m^2 ) */
(PID.TID 0000.0001)                 6.470963377080289E+07,      /* J =  1 */
(PID.TID 0000.0001)                 6.534679484410104E+07,      /* J =  2 */
(PID.TID 0000.0001)                 6.598375685977945E+07,      /* J =  3 */
(PID.TID 0000.0001)                 6.662051787745729E+07,      /* J =  4 */
(PID.TID 0000.0001)                 6.725707595748492E+07,      /* J =  5 */
(PID.TID 0000.0001)                 6.789342916077879E+07,      /* J =  6 */
(PID.TID 0000.0001)                 6.852957554896304E+07,      /* J =  7 */
(PID.TID 0000.0001)                 6.916551318413351E+07,      /* J =  8 */
(PID.TID 0000.0001)                 6.980124012916450E+07,      /* J =  9 */
(PID.TID 0000.0001)                 7.043675444751994E+07,      /* J = 10 */
(PID.TID 0000.0001)                 7.107205420332426E+07,      /* J = 11 */
(PID.TID 0000.0001)                 7.170713746129155E+07,      /* J = 12 */
(PID.TID 0000.0001)                 7.234200228686719E+07,      /* J = 13 */
(PID.TID 0000.0001)                 7.297664674622770E+07,      /* J = 14 */
(PID.TID 0000.0001)                 7.361106890599781E+07,      /* J = 15 */
(PID.TID 0000.0001)                 7.424526683372219E+07,      /* J = 16 */
(PID.TID 0000.0001)                 7.487923859746441E+07,      /* J = 17 */
(PID.TID 0000.0001)                 7.551298226611364E+07,      /* J = 18 */
(PID.TID 0000.0001)                 7.614649590905435E+07,      /* J = 19 */
(PID.TID 0000.0001)                 7.677977759659100E+07,      /* J = 20 */
(PID.TID 0000.0001)                 7.741282539961770E+07,      /* J = 21 */
(PID.TID 0000.0001)                 7.804563738973619E+07,      /* J = 22 */
(PID.TID 0000.0001)                 7.867821163932665E+07,      /* J = 23 */
(PID.TID 0000.0001)                 7.931054622142966E+07,      /* J = 24 */
(PID.TID 0000.0001)                 7.994263920984067E+07,      /* J = 25 */
(PID.TID 0000.0001)                 8.057448867913349E+07,      /* J = 26 */
(PID.TID 0000.0001)                 8.120609270456599E+07,      /* J = 27 */
(PID.TID 0000.0001)                 8.183744936212724E+07,      /* J = 28 */
(PID.TID 0000.0001)                 8.246855672863193E+07,      /* J = 29 */
(PID.TID 0000.0001)                 8.309941288162594E+07,      /* J = 30 */
(PID.TID 0000.0001)                 8.373001589938636E+07,      /* J = 31 */
(PID.TID 0000.0001)                 8.436036386101587E+07,      /* J = 32 */
(PID.TID 0000.0001)                 8.499045484630123E+07,      /* J = 33 */
(PID.TID 0000.0001)                 8.562028693597265E+07,      /* J = 34 */
(PID.TID 0000.0001)                 8.624985821137366E+07,      /* J = 35 */
(PID.TID 0000.0001)                 8.687916675476770E+07,      /* J = 36 */
(PID.TID 0000.0001)                 8.750821064912586E+07,      /* J = 37 */
(PID.TID 0000.0001)                 8.813698797831558E+07,      /* J = 38 */
(PID.TID 0000.0001)                 8.876549682695904E+07,      /* J = 39 */
(PID.TID 0000.0001)                 8.939373528048050E+07,      /* J = 40 */
(PID.TID 0000.0001)                 9.002170142522410E+07,      /* J = 41 */
(PID.TID 0000.0001)                 9.064939334821798E+07,      /* J = 42 */
(PID.TID 0000.0001)                 9.127680913743389E+07,      /* J = 43 */
(PID.TID 0000.0001)                 9.190394688169266E+07,      /* J = 44 */
(PID.TID 0000.0001)                 9.253080467056999E+07,      /* J = 45 */
(PID.TID 0000.0001)                 9.315738059456144E+07,      /* J = 46 */
(PID.TID 0000.0001)                 9.378367274503537E+07,      /* J = 47 */
(PID.TID 0000.0001)                 9.440967921416211E+07,      /* J = 48 */
(PID.TID 0000.0001)                 9.503539809503193E+07,      /* J = 49 */
(PID.TID 0000.0001)                 9.566082748163140E+07       /* J = 50 */
(PID.TID 0000.0001)     ;
(PID.TID 0000.0001) rAw =  /* rAw(:,1,:,1) ( units: m^2 ) */
(PID.TID 0000.0001)                 1.331476209407002E+13,      /* I =  1 */
(PID.TID 0000.0001)    49 @  6.470963377080289E+07,             /* I =  2: 50 */
(PID.TID 0000.0001)                 1.331476209407002E+13,      /* I = 51 */
(PID.TID 0000.0001)    49 @  2.662945947850627E+13              /* I = 52:100 */
(PID.TID 0000.0001)     ;
(PID.TID 0000.0001) rAw =  /* rAw(1,:,1,:) ( units: m^2 ) */
(PID.TID 0000.0001)                 1.331476209407002E+13,      /* J =  1 */
(PID.TID 0000.0001)                 1.344586541844697E+13,      /* J =  2 */
(PID.TID 0000.0001)                 1.357692778439632E+13,      /* J =  3 */
(PID.TID 0000.0001)                 1.370794879266208E+13,      /* J =  4 */
(PID.TID 0000.0001)                 1.383892804413869E+13,      /* J =  5 */
(PID.TID 0000.0001)                 1.396986513983711E+13,      /* J =  6 */
(PID.TID 0000.0001)                 1.410075968091388E+13,      /* J =  7 */
(PID.TID 0000.0001)                 1.423161126862262E+13,      /* J =  8 */
(PID.TID 0000.0001)                 1.436241950437710E+13,      /* J =  9 */
(PID.TID 0000.0001)                 1.449318398971245E+13,      /* J = 10 */
(PID.TID 0000.0001)                 1.462390432629967E+13,      /* J = 11 */
(PID.TID 0000.0001)                 1.475458011593112E+13,      /* J = 12 */
(PID.TID 0000.0001)                 1.488521096054960E+13,      /* J = 13 */
(PID.TID 0000.0001)                 1.501579646224839E+13,      /* J = 14 */
(PID.TID 0000.0001)                 1.514633622321295E+13,      /* J = 15 */
(PID.TID 0000.0001)                 1.527682984581807E+13,      /* J = 16 */
(PID.TID 0000.0001)                 1.540727693254527E+13,      /* J = 17 */
(PID.TID 0000.0001)                 1.553767708604598E+13,      /* J = 18 */
(PID.TID 0000.0001)                 1.566802990907354E+13,      /* J = 19 */
(PID.TID 0000.0001)                 1.579833500457056E+13,      /* J = 20 */
(PID.TID 0000.0001)                 1.592859197560100E+13,      /* J = 21 */
(PID.TID 0000.0001)                 1.605880042537444E+13,      /* J = 22 */
(PID.TID 0000.0001)                 1.618895995726058E+13,      /* J = 23 */
(PID.TID 0000.0001)                 1.631907017476507E+13,      /* J = 24 */
(PID.TID 0000.0001)                 1.644913068154883E+13,      /* J = 25 */
(PID.TID 0000.0001)                 1.657914108143297E+13,      /* J = 26 */
(PID.TID 0000.0001)                 1.670910097837934E+13,      /* J = 27 */
(PID.TID 0000.0001)                 1.683900997650024E+13,      /* J = 28 */
(PID.TID 0000.0001)                 1.696886768007786E+13,      /* J = 29 */
(PID.TID 0000.0001)                 1.709867369354482E+13,      /* J = 30 */
(PID.TID 0000.0001)                 1.722842762148423E+13,      /* J = 31 */
(PID.TID 0000.0001)                 1.735812906864906E+13,      /* J = 32 */
(PID.TID 0000.0001)                 1.748777763993302E+13,      /* J = 33 */
(PID.TID 0000.0001)                 1.761737294042396E+13,      /* J = 34 */
(PID.TID 0000.0001)                 1.774691457533593E+13,      /* J = 35 */
(PID.TID 0000.0001)                 1.787640215007226E+13,      /* J = 36 */
(PID.TID 0000.0001)                 1.800583527018189E+13,      /* J = 37 */
(PID.TID 0000.0001)                 1.813521354139818E+13,      /* J = 38 */
(PID.TID 0000.0001)                 1.826453656960980E+13,      /* J = 39 */
(PID.TID 0000.0001)                 1.839380396087047E+13,      /* J = 40 */
(PID.TID 0000.0001)                 1.852301532142315E+13,      /* J = 41 */
(PID.TID 0000.0001)                 1.865217025765158E+13,      /* J = 42 */
(PID.TID 0000.0001)                 1.878126837613363E+13,      /* J = 43 */
(PID.TID 0000.0001)                 1.891030928362189E+13,      /* J = 44 */
(PID.TID 0000.0001)                 1.903929258702427E+13,      /* J = 45 */
(PID.TID 0000.0001)                 1.916821789343795E+13,      /* J = 46 */
(PID.TID 0000.0001)                 1.929708481013972E+13,      /* J = 47 */
(PID.TID 0000.0001)                 1.942589294457135E+13,      /* J = 48 */
(PID.TID 0000.0001)                 1.955464190436393E+13,      /* J = 49 */
(PID.TID 0000.0001)                 1.968333129733295E+13       /* J = 50 */
(PID.TID 0000.0001)     ;
(PID.TID 0000.0001) rAs =  /* rAs(:,1,:,1) ( units: m^2 ) */
(PID.TID 0000.0001)    50 @  6.439097919401864E+07,             /* I =  1: 50 */
(PID.TID 0000.0001)    50 @  2.649832600354067E+13              /* I = 51:100 */
(PID.TID 0000.0001)     ;
(PID.TID 0000.0001) rAs =  /* rAs(1,:,1,:) ( units: m^2 ) */
(PID.TID 0000.0001)                 6.439097919401864E+07,      /* J =  1 */
(PID.TID 0000.0001)                 6.502823906837179E+07,      /* J =  2 */
(PID.TID 0000.0001)                 6.566530085543716E+07,      /* J =  3 */
(PID.TID 0000.0001)                 6.630216261459803E+07,      /* J =  4 */
(PID.TID 0000.0001)                 6.693882240587452E+07,      /* J =  5 */
(PID.TID 0000.0001)                 6.757527828990008E+07,      /* J =  6 */
(PID.TID 0000.0001)                 6.821152832789779E+07,      /* J =  7 */
(PID.TID 0000.0001)                 6.884757058175126E+07,      /* J =  8 */
(PID.TID 0000.0001)                 6.948340311398090E+07,      /* J =  9 */
(PID.TID 0000.0001)                 7.011902398769690E+07,      /* J = 10 */
(PID.TID 0000.0001)                 7.075443126669341E+07,      /* J = 11 */
(PID.TID 0000.0001)                 7.138962301544867E+07,      /* J = 12 */
(PID.TID 0000.0001)                 7.202459729903063E+07,      /* J = 13 */
(PID.TID 0000.0001)                 7.265935218316765E+07,      /* J = 14 */
(PID.TID 0000.0001)                 7.329388573434296E+07,      /* J = 15 */
(PID.TID 0000.0001)                 7.392819601962943E+07,      /* J = 16 */
(PID.TID 0000.0001)                 7.456228110680762E+07,      /* J = 17 */
(PID.TID 0000.0001)                 7.519613906436566E+07,      /* J = 18 */
(PID.TID 0000.0001)                 7.582976796140501E+07,      /* J = 19 */
(PID.TID 0000.0001)                 7.646316586782910E+07,      /* J = 20 */
(PID.TID 0000.0001)                 7.709633085422541E+07,      /* J = 21 */
(PID.TID 0000.0001)                 7.772926099177113E+07,      /* J = 22 */
(PID.TID 0000.0001)                 7.836195435256335E+07,      /* J = 23 */
(PID.TID 0000.0001)                 7.899440900921808E+07,      /* J = 24 */
(PID.TID 0000.0001)                 7.962662303520055E+07,      /* J = 25 */
(PID.TID 0000.0001)                 8.025859450470714E+07,      /* J = 26 */
(PID.TID 0000.0001)                 8.089032149259475E+07,      /* J = 27 */
(PID.TID 0000.0001)                 8.152180207452223E+07,      /* J = 28 */
(PID.TID 0000.0001)                 8.215303432695043E+07,      /* J = 29 */
(PID.TID 0000.0001)                 8.278401632695346E+07,      /* J = 30 */
(PID.TID 0000.0001)                 8.341474615247822E+07,      /* J = 31 */
(PID.TID 0000.0001)                 8.404522188224998E+07,      /* J = 32 */
(PID.TID 0000.0001)                 8.467544159567805E+07,      /* J = 33 */
(PID.TID 0000.0001)                 8.530540337302092E+07,      /* J = 34 */
(PID.TID 0000.0001)                 8.593510529533908E+07,      /* J = 35 */
(PID.TID 0000.0001)                 8.656454544440059E+07,      /* J = 36 */
(PID.TID 0000.0001)                 8.719372190284635E+07,      /* J = 37 */
(PID.TID 0000.0001)                 8.782263275409557E+07,      /* J = 38 */
(PID.TID 0000.0001)                 8.845127608236952E+07,      /* J = 39 */
(PID.TID 0000.0001)                 8.907964997273858E+07,      /* J = 40 */
(PID.TID 0000.0001)                 8.970775251102796E+07,      /* J = 41 */
(PID.TID 0000.0001)                 9.033558178395921E+07,      /* J = 42 */
(PID.TID 0000.0001)                 9.096313587903227E+07,      /* J = 43 */
(PID.TID 0000.0001)                 9.159041288459623E+07,      /* J = 44 */
(PID.TID 0000.0001)                 9.221741088992015E+07,      /* J = 45 */
(PID.TID 0000.0001)                 9.284412798498066E+07,      /* J = 46 */
(PID.TID 0000.0001)                 9.347056226076873E+07,      /* J = 47 */
(PID.TID 0000.0001)                 9.409671180895932E+07,      /* J = 48 */
(PID.TID 0000.0001)                 9.472257472228888E+07,      /* J = 49 */
(PID.TID 0000.0001)                 9.534814909420149E+07       /* J = 50 */
(PID.TID 0000.0001)     ;
(PID.TID 0000.0001) globalArea = /* Integrated horizontal Area (m^2) */
(PID.TID 0000.0001)                 8.089362968494528E+16
(PID.TID 0000.0001)     ;
(PID.TID 0000.0001) // =======================================================
(PID.TID 0000.0001) // End of Model config. summary
(PID.TID 0000.0001) // =======================================================
(PID.TID 0000.0001) 
(PID.TID 0000.0001) // =======================================================
(PID.TID 0000.0001) // Field Initial Temperature at iteration          1
(PID.TID 0000.0001) // CMIN =          1.000000000000000E+32
(PID.TID 0000.0001) // CMAX =         -1.000000000000000E+32
(PID.TID 0000.0001) // CINT =          0.000000000000000E+00
(PID.TID 0000.0001) // SYMBOLS (CMIN->CMAX): -abcdefghijklmnopqrstuvwxyz+
(PID.TID 0000.0001) //                  0.0: .
(PID.TID 0000.0001) // RANGE I (Lo:Hi:Step):(   1: 100:   1)
(PID.TID 0000.0001) // RANGE J (Lo:Hi:Step):(  50:   1:  -1)
(PID.TID 0000.0001) // RANGE K (Lo:Hi:Step):(   1:   1:   1)
(PID.TID 0000.0001) // =======================================================
(PID.TID 0000.0001) // =======================================================
(PID.TID 0000.0001) // END OF FIELD                                          =
(PID.TID 0000.0001) // =======================================================
(PID.TID 0000.0001) 
(PID.TID 0000.0001) // =======================================================
(PID.TID 0000.0001) // Field Initial Salinity at iteration          1
(PID.TID 0000.0001) // CMIN =          1.000000000000000E+32
(PID.TID 0000.0001) // CMAX =         -1.000000000000000E+32
(PID.TID 0000.0001) // CINT =          0.000000000000000E+00
(PID.TID 0000.0001) // SYMBOLS (CMIN->CMAX): -abcdefghijklmnopqrstuvwxyz+
(PID.TID 0000.0001) //                  0.0: .
(PID.TID 0000.0001) // RANGE I (Lo:Hi:Step):(   1: 100:   1)
(PID.TID 0000.0001) // RANGE J (Lo:Hi:Step):(  50:   1:  -1)
(PID.TID 0000.0001) // RANGE K (Lo:Hi:Step):(   1:   1:   1)
(PID.TID 0000.0001) // =======================================================
(PID.TID 0000.0001) // =======================================================
(PID.TID 0000.0001) // END OF FIELD                                          =
(PID.TID 0000.0001) // =======================================================
(PID.TID 0000.0001) 
(PID.TID 0000.0001) Start initial hydrostatic pressure computation
(PID.TID 0000.0001) Pressure is predetermined for buoyancyRelation OCEANIC
(PID.TID 0000.0001) 
(PID.TID 0000.0001) // =======================================================
(PID.TID 0000.0001) // Model current state
(PID.TID 0000.0001) // =======================================================
(PID.TID 0000.0001) 
(PID.TID 0000.0001) // =======================================================
(PID.TID 0000.0001) // Begin MONITOR dynamic field statistics
(PID.TID 0000.0001) // =======================================================
(PID.TID 0000.0001) %MON time_tsnumber                =                     0
(PID.TID 0000.0001) %MON time_secondsf                =   0.0000000000000E+00
(PID.TID 0000.0001) %MON dynstat_eta_max              =   0.0000000000000E+00
(PID.TID 0000.0001) %MON dynstat_eta_min              =   0.0000000000000E+00
(PID.TID 0000.0001) %MON dynstat_eta_mean             =   0.0000000000000E+00
(PID.TID 0000.0001) %MON dynstat_eta_sd               =   0.0000000000000E+00
(PID.TID 0000.0001) %MON dynstat_eta_del2             =   0.0000000000000E+00
(PID.TID 0000.0001) %MON dynstat_uvel_max             =   0.0000000000000E+00
(PID.TID 0000.0001) %MON dynstat_uvel_min             =   0.0000000000000E+00
(PID.TID 0000.0001) %MON dynstat_uvel_mean            =   0.0000000000000E+00
(PID.TID 0000.0001) %MON dynstat_uvel_sd              =   0.0000000000000E+00
(PID.TID 0000.0001) %MON dynstat_uvel_del2            =   0.0000000000000E+00
(PID.TID 0000.0001) %MON dynstat_vvel_max             =   0.0000000000000E+00
(PID.TID 0000.0001) %MON dynstat_vvel_min             =   0.0000000000000E+00
(PID.TID 0000.0001) %MON dynstat_vvel_mean            =   0.0000000000000E+00
(PID.TID 0000.0001) %MON dynstat_vvel_sd              =   0.0000000000000E+00
(PID.TID 0000.0001) %MON dynstat_vvel_del2            =   0.0000000000000E+00
(PID.TID 0000.0001) %MON dynstat_wvel_max             =   0.0000000000000E+00
(PID.TID 0000.0001) %MON dynstat_wvel_min             =   0.0000000000000E+00
(PID.TID 0000.0001) %MON dynstat_wvel_mean            =   0.0000000000000E+00
(PID.TID 0000.0001) %MON dynstat_wvel_sd              =   0.0000000000000E+00
(PID.TID 0000.0001) %MON dynstat_wvel_del2            =   0.0000000000000E+00
(PID.TID 0000.0001) %MON dynstat_theta_max            =  -1.9000000000000E+00
(PID.TID 0000.0001) %MON dynstat_theta_min            =  -1.9000000000000E+00
(PID.TID 0000.0001) %MON dynstat_theta_mean           =  -1.8999999999995E+00
(PID.TID 0000.0001) %MON dynstat_theta_sd             =   5.0004445029109E-13
(PID.TID 0000.0001) %MON dynstat_theta_del2           =   0.0000000000000E+00
(PID.TID 0000.0001) %MON dynstat_salt_max             =   3.4400000000000E+01
(PID.TID 0000.0001) %MON dynstat_salt_min             =   3.4400000000000E+01
(PID.TID 0000.0001) %MON dynstat_salt_mean            =   3.4399999999992E+01
(PID.TID 0000.0001) %MON dynstat_salt_sd              =   7.5743855632025E-12
(PID.TID 0000.0001) %MON dynstat_salt_del2            =   0.0000000000000E+00
(PID.TID 0000.0001) %MON advcfl_uvel_max              =   0.0000000000000E+00
(PID.TID 0000.0001) %MON advcfl_vvel_max              =   0.0000000000000E+00
(PID.TID 0000.0001) %MON advcfl_wvel_max              =   0.0000000000000E+00
(PID.TID 0000.0001) %MON advcfl_W_hf_max              =   0.0000000000000E+00
(PID.TID 0000.0001) %MON pe_b_mean                    =   0.0000000000000E+00
(PID.TID 0000.0001) %MON ke_max                       =   0.0000000000000E+00
(PID.TID 0000.0001) %MON ke_mean                      =   0.0000000000000E+00
(PID.TID 0000.0001) %MON ke_vol                       =   4.9883516278638E+19
(PID.TID 0000.0001) %MON vort_r_min                   =   0.0000000000000E+00
(PID.TID 0000.0001) %MON vort_r_max                   =   0.0000000000000E+00
(PID.TID 0000.0001) %MON vort_a_mean                  =  -1.4215243381248E-04
(PID.TID 0000.0001) %MON vort_a_sd                    =   7.4397295396985E-07
(PID.TID 0000.0001) %MON vort_p_mean                  =  -1.5364965068326E-04
(PID.TID 0000.0001) %MON vort_p_sd                    =   8.6036724855396E-05
(PID.TID 0000.0001) %MON surfExpan_theta_mean         =   0.0000000000000E+00
(PID.TID 0000.0001) %MON surfExpan_salt_mean          =   0.0000000000000E+00
(PID.TID 0000.0001) // =======================================================
(PID.TID 0000.0001) // End MONITOR dynamic field statistics
(PID.TID 0000.0001) // =======================================================
 cg2d: Sum(rhs),rhsMax =   1.61246661491143E+01  3.26917884430380E-13
(PID.TID 0000.0001)                    cg2d_init_res =    8.79295287522168E+00
(PID.TID 0000.0001)                       cg2d_iters =   131
(PID.TID 0000.0001)                         cg2d_res =    8.22379262029045E-14
(PID.TID 0000.0001) // =======================================================
(PID.TID 0000.0001) // Begin MONITOR dynamic field statistics
(PID.TID 0000.0001) // =======================================================
(PID.TID 0000.0001) %MON time_tsnumber                =                     1
(PID.TID 0000.0001) %MON time_secondsf                =   1.8000000000000E+03
(PID.TID 0000.0001) %MON dynstat_eta_max              =   2.0087153412907E-12
(PID.TID 0000.0001) %MON dynstat_eta_min              =  -1.1868990776640E-13
(PID.TID 0000.0001) %MON dynstat_eta_mean             =   4.0113961547414E-15
(PID.TID 0000.0001) %MON dynstat_eta_sd               =   3.1481696667781E-13
(PID.TID 0000.0001) %MON dynstat_eta_del2             =   2.1263215762202E-14
(PID.TID 0000.0001) %MON dynstat_uvel_max             =   2.7302693698163E-15
(PID.TID 0000.0001) %MON dynstat_uvel_min             =  -2.1249087147027E-14
(PID.TID 0000.0001) %MON dynstat_uvel_mean            =   2.5604230692642E-16
(PID.TID 0000.0001) %MON dynstat_uvel_sd              =   2.8009712914319E-15
(PID.TID 0000.0001) %MON dynstat_uvel_del2            =   1.6152324650454E-16
(PID.TID 0000.0001) %MON dynstat_vvel_max             =   1.3256826198724E-14
(PID.TID 0000.0001) %MON dynstat_vvel_min             =  -1.4411699325804E-14
(PID.TID 0000.0001) %MON dynstat_vvel_mean            =   2.1822121589882E-15
(PID.TID 0000.0001) %MON dynstat_vvel_sd              =   5.9892115348629E-15
(PID.TID 0000.0001) %MON dynstat_vvel_del2            =   7.4642833870275E-17
(PID.TID 0000.0001) %MON dynstat_wvel_max             =   1.1159529673837E-15
(PID.TID 0000.0001) %MON dynstat_wvel_min             =  -6.5938837648002E-17
(PID.TID 0000.0001) %MON dynstat_wvel_mean            =   2.8126521794809E-18
(PID.TID 0000.0001) %MON dynstat_wvel_sd              =   1.2563860038144E-16
(PID.TID 0000.0001) %MON dynstat_wvel_del2            =   5.0947534041159E-18
(PID.TID 0000.0001) %MON dynstat_theta_max            =  -1.9000000000000E+00
(PID.TID 0000.0001) %MON dynstat_theta_min            =  -1.9030052660460E+00
(PID.TID 0000.0001) %MON dynstat_theta_mean           =  -1.9000587456603E+00
(PID.TID 0000.0001) %MON dynstat_theta_sd             =   2.6716594863943E-04
(PID.TID 0000.0001) %MON dynstat_theta_del2           =   1.2210013039359E-05
(PID.TID 0000.0001) %MON dynstat_salt_max             =   3.4400000000000E+01
(PID.TID 0000.0001) %MON dynstat_salt_min             =   3.4398805707273E+01
(PID.TID 0000.0001) %MON dynstat_salt_mean            =   3.4399976654467E+01
(PID.TID 0000.0001) %MON dynstat_salt_sd              =   1.0617174798957E-04
(PID.TID 0000.0001) %MON dynstat_salt_del2            =   4.8522591818440E-06
(PID.TID 0000.0001) %MON advcfl_uvel_max              =   5.6122249509646E-16
(PID.TID 0000.0001) %MON advcfl_vvel_max              =   2.3333017026126E-15
(PID.TID 0000.0001) %MON advcfl_wvel_max              =   6.6957178043025E-14
(PID.TID 0000.0001) %MON advcfl_W_hf_max              =   2.0087153412907E-13
(PID.TID 0000.0001) %MON pe_b_mean                    =  -1.2269152739382E-17
(PID.TID 0000.0001) %MON ke_max                       =   3.2145491894185E-28
(PID.TID 0000.0001) %MON ke_mean                      =   2.3977631089329E-29
(PID.TID 0000.0001) %MON ke_vol                       =   4.9883516278638E+19
(PID.TID 0000.0001) %MON vort_r_min                   =  -1.9394916208725E-18
(PID.TID 0000.0001) %MON vort_r_max                   =   1.9175442700049E-18
(PID.TID 0000.0001) %MON vort_a_mean                  =  -1.4215243381248E-04
(PID.TID 0000.0001) %MON vort_a_sd                    =   7.4397295396985E-07
(PID.TID 0000.0001) %MON vort_p_mean                  =  -1.5364965068326E-04
(PID.TID 0000.0001) %MON vort_p_sd                    =   8.6036724855396E-05
(PID.TID 0000.0001) %MON surfExpan_theta_mean         =  -4.2343630367910E-18
(PID.TID 0000.0001) %MON surfExpan_salt_mean          =   7.6662193297903E-17
(PID.TID 0000.0001) // =======================================================
(PID.TID 0000.0001) // End MONITOR dynamic field statistics
(PID.TID 0000.0001) // =======================================================
 cg2d: Sum(rhs),rhsMax =   1.61246691722485E+01  1.32431558969327E-04
(PID.TID 0000.0001)                    cg2d_init_res =    1.59659728586303E+01
(PID.TID 0000.0001)                       cg2d_iters =   135
(PID.TID 0000.0001)                         cg2d_res =    8.34703958787999E-14
(PID.TID 0000.0001) // =======================================================
(PID.TID 0000.0001) // Begin MONITOR dynamic field statistics
(PID.TID 0000.0001) // =======================================================
(PID.TID 0000.0001) %MON time_tsnumber                =                     2
(PID.TID 0000.0001) %MON time_secondsf                =   3.6000000000000E+03
(PID.TID 0000.0001) %MON dynstat_eta_max              =   7.9933371755589E-04
(PID.TID 0000.0001) %MON dynstat_eta_min              =  -4.9136713204984E-05
(PID.TID 0000.0001) %MON dynstat_eta_mean             =   1.3107023850520E-06
(PID.TID 0000.0001) %MON dynstat_eta_sd               =   1.2537909426501E-04
(PID.TID 0000.0001) %MON dynstat_eta_del2             =   9.2530505889456E-06
(PID.TID 0000.0001) %MON dynstat_uvel_max             =   3.6139393362473E-06
(PID.TID 0000.0001) %MON dynstat_uvel_min             =  -6.4570602331059E-06
(PID.TID 0000.0001) %MON dynstat_uvel_mean            =  -1.3906573278022E-08
(PID.TID 0000.0001) %MON dynstat_uvel_sd              =   1.0684940022691E-06
(PID.TID 0000.0001) %MON dynstat_uvel_del2            =   1.6668920286589E-07
(PID.TID 0000.0001) %MON dynstat_vvel_max             =   4.3859773244447E-05
(PID.TID 0000.0001) %MON dynstat_vvel_min             =  -7.2200293242410E-05
(PID.TID 0000.0001) %MON dynstat_vvel_mean            =   1.3335239227418E-06
(PID.TID 0000.0001) %MON dynstat_vvel_sd              =   3.6123319300424E-06
(PID.TID 0000.0001) %MON dynstat_vvel_del2            =   2.2746102658724E-07
(PID.TID 0000.0001) %MON dynstat_wvel_max             =   4.4407428641510E-07
(PID.TID 0000.0001) %MON dynstat_wvel_min             =  -3.5630309790674E-08
(PID.TID 0000.0001) %MON dynstat_wvel_mean            =   1.0997555363454E-09
(PID.TID 0000.0001) %MON dynstat_wvel_sd              =   4.9147535426651E-08
(PID.TID 0000.0001) %MON dynstat_wvel_del2            =   2.7312162640704E-09
(PID.TID 0000.0001) %MON dynstat_theta_max            =  -1.9000000000000E+00
(PID.TID 0000.0001) %MON dynstat_theta_min            =  -1.9059785612645E+00
(PID.TID 0000.0001) %MON dynstat_theta_mean           =  -1.9001170268346E+00
(PID.TID 0000.0001) %MON dynstat_theta_sd             =   5.3177573510462E-04
(PID.TID 0000.0001) %MON dynstat_theta_del2           =   2.4265976707714E-05
(PID.TID 0000.0001) %MON dynstat_salt_max             =   3.4400000000000E+01
(PID.TID 0000.0001) %MON dynstat_salt_min             =   3.4397624119753E+01
(PID.TID 0000.0001) %MON dynstat_salt_mean            =   3.4399953493528E+01
(PID.TID 0000.0001) %MON dynstat_salt_sd              =   2.1132767713090E-04
(PID.TID 0000.0001) %MON dynstat_salt_del2            =   9.6432991436469E-06
(PID.TID 0000.0001) %MON advcfl_uvel_max              =   1.7254637758839E-06
(PID.TID 0000.0001) %MON advcfl_vvel_max              =   1.1689465852927E-05
(PID.TID 0000.0001) %MON advcfl_wvel_max              =   2.6644457184906E-05
(PID.TID 0000.0001) %MON advcfl_W_hf_max              =   7.9933371554718E-05
(PID.TID 0000.0001) %MON pe_b_mean                    =  -1.2763981064549E-09
(PID.TID 0000.0001) %MON ke_max                       =   1.6775342089802E-09
(PID.TID 0000.0001) %MON ke_mean                      =   8.0280699277193E-12
(PID.TID 0000.0001) %MON ke_vol                       =   4.9883516278638E+19
(PID.TID 0000.0001) %MON vort_r_min                   =  -9.0459586316141E-10
(PID.TID 0000.0001) %MON vort_r_max                   =   7.2159803030212E-09
(PID.TID 0000.0001) %MON vort_a_mean                  =  -1.4215243256004E-04
(PID.TID 0000.0001) %MON vort_a_sd                    =   7.4398431118343E-07
(PID.TID 0000.0001) %MON vort_p_mean                  =  -1.5364964932953E-04
(PID.TID 0000.0001) %MON vort_p_sd                    =   8.6036698631261E-05
(PID.TID 0000.0001) %MON surfExpan_theta_mean         =  -1.3818850522962E-09
(PID.TID 0000.0001) %MON surfExpan_salt_mean          =   2.5049628240005E-08
(PID.TID 0000.0001) // =======================================================
(PID.TID 0000.0001) // End MONITOR dynamic field statistics
(PID.TID 0000.0001) // =======================================================
 cg2d: Sum(rhs),rhsMax =   1.66467635926451E+01  1.89883254889913E-04
(PID.TID 0000.0001)                    cg2d_init_res =    4.89653158123202E+02
(PID.TID 0000.0001)                       cg2d_iters =   139
(PID.TID 0000.0001)                         cg2d_res =    6.13105613320253E-14
(PID.TID 0000.0001) // =======================================================
(PID.TID 0000.0001) // Begin MONITOR dynamic field statistics
(PID.TID 0000.0001) // =======================================================
(PID.TID 0000.0001) %MON time_tsnumber                =                     3
(PID.TID 0000.0001) %MON time_secondsf                =   5.4000000000000E+03
(PID.TID 0000.0001) %MON dynstat_eta_max              =   1.1772736486967E-03
(PID.TID 0000.0001) %MON dynstat_eta_min              =  -4.4275931315823E-05
(PID.TID 0000.0001) %MON dynstat_eta_mean             =   9.4556088110115E-07
(PID.TID 0000.0001) %MON dynstat_eta_sd               =   1.8474373189118E-04
(PID.TID 0000.0001) %MON dynstat_eta_del2             =   1.3396708516867E-05
(PID.TID 0000.0001) %MON dynstat_uvel_max             =   2.7220539953598E-04
(PID.TID 0000.0001) %MON dynstat_uvel_min             =  -2.8551161239927E-04
(PID.TID 0000.0001) %MON dynstat_uvel_mean            =   1.0043780432414E-05
(PID.TID 0000.0001) %MON dynstat_uvel_sd              =   6.0551581428190E-05
(PID.TID 0000.0001) %MON dynstat_uvel_del2            =   2.9372799800053E-06
(PID.TID 0000.0001) %MON dynstat_vvel_max             =   1.1391876709406E-04
(PID.TID 0000.0001) %MON dynstat_vvel_min             =  -1.6491324624412E-04
(PID.TID 0000.0001) %MON dynstat_vvel_mean            =   1.9562074599982E-06
(PID.TID 0000.0001) %MON dynstat_vvel_sd              =   7.4843935624660E-06
(PID.TID 0000.0001) %MON dynstat_vvel_del2            =   5.6257943675110E-07
(PID.TID 0000.0001) %MON dynstat_wvel_max             =   4.4630849562051E-07
(PID.TID 0000.0001) %MON dynstat_wvel_min             =  -1.9597705362065E-07
(PID.TID 0000.0001) %MON dynstat_wvel_mean            =  -9.7946090977831E-10
(PID.TID 0000.0001) %MON dynstat_wvel_sd              =   3.3985959758836E-08
(PID.TID 0000.0001) %MON dynstat_wvel_del2            =   4.1232398028539E-09
(PID.TID 0000.0001) %MON dynstat_theta_max            =  -1.9000000000000E+00
(PID.TID 0000.0001) %MON dynstat_theta_min            =  -1.9089322821087E+00
(PID.TID 0000.0001) %MON dynstat_theta_mean           =  -1.9001750218726E+00
(PID.TID 0000.0001) %MON dynstat_theta_sd             =   7.9481428354222E-04
(PID.TID 0000.0001) %MON dynstat_theta_del2           =   3.6228077784977E-05
(PID.TID 0000.0001) %MON dynstat_salt_max             =   3.4400000000000E+01
(PID.TID 0000.0001) %MON dynstat_salt_min             =   3.4396450311090E+01
(PID.TID 0000.0001) %MON dynstat_salt_mean            =   3.4399930446300E+01
(PID.TID 0000.0001) %MON dynstat_salt_sd              =   3.1585919627991E-04
(PID.TID 0000.0001) %MON dynstat_salt_del2            =   1.4397038111758E-05
(PID.TID 0000.0001) %MON advcfl_uvel_max              =   5.6679517067957E-06
(PID.TID 0000.0001) %MON advcfl_vvel_max              =   2.6699999045623E-05
(PID.TID 0000.0001) %MON advcfl_wvel_max              =   2.6778509737231E-05
(PID.TID 0000.0001) %MON advcfl_W_hf_max              =   4.7407159794353E-05
(PID.TID 0000.0001) %MON pe_b_mean                    =   1.7046406219515E-10
(PID.TID 0000.0001) %MON ke_max                       =   4.8197560979874E-08
(PID.TID 0000.0001) %MON ke_mean                      =   1.8756808215713E-09
(PID.TID 0000.0001) %MON ke_vol                       =   4.9883516278638E+19
(PID.TID 0000.0001) %MON vort_r_min                   =  -2.6303910223717E-08
(PID.TID 0000.0001) %MON vort_r_max                   =   2.6271393069975E-08
(PID.TID 0000.0001) %MON vort_a_mean                  =  -1.4215257133457E-04
(PID.TID 0000.0001) %MON vort_a_sd                    =   7.4280596412874E-07
(PID.TID 0000.0001) %MON vort_p_mean                  =  -1.5364979932807E-04
(PID.TID 0000.0001) %MON vort_p_sd                    =   8.6034824473939E-05
(PID.TID 0000.0001) %MON surfExpan_theta_mean         =   3.8222312566731E-10
(PID.TID 0000.0001) %MON surfExpan_salt_mean          =  -6.9795331297927E-09
(PID.TID 0000.0001) // =======================================================
(PID.TID 0000.0001) // End MONITOR dynamic field statistics
(PID.TID 0000.0001) // =======================================================
 cg2d: Sum(rhs),rhsMax =   1.78881649091679E+01  2.62383439360152E-04
(PID.TID 0000.0001)                    cg2d_init_res =    5.09062368185521E+02
(PID.TID 0000.0001)                       cg2d_iters =   139
(PID.TID 0000.0001)                         cg2d_res =    9.42072238639251E-14
(PID.TID 0000.0001) // =======================================================
(PID.TID 0000.0001) // Begin MONITOR dynamic field statistics
(PID.TID 0000.0001) // =======================================================
(PID.TID 0000.0001) %MON time_tsnumber                =                     4
(PID.TID 0000.0001) %MON time_secondsf                =   7.2000000000000E+03
(PID.TID 0000.0001) %MON dynstat_eta_max              =   1.6945809983523E-03
(PID.TID 0000.0001) %MON dynstat_eta_min              =  -6.6388615207895E-05
(PID.TID 0000.0001) %MON dynstat_eta_mean             =   2.4805705954895E-07
(PID.TID 0000.0001) %MON dynstat_eta_sd               =   2.6601726816779E-04
(PID.TID 0000.0001) %MON dynstat_eta_del2             =   1.9267673823693E-05
(PID.TID 0000.0001) %MON dynstat_uvel_max             =   8.1516811241837E-04
(PID.TID 0000.0001) %MON dynstat_uvel_min             =  -8.3257253869533E-04
(PID.TID 0000.0001) %MON dynstat_uvel_mean            =   3.0490385188726E-05
(PID.TID 0000.0001) %MON dynstat_uvel_sd              =   1.8019174431459E-04
(PID.TID 0000.0001) %MON dynstat_uvel_del2            =   8.3029025067304E-06
(PID.TID 0000.0001) %MON dynstat_vvel_max             =   2.0084012982327E-04
(PID.TID 0000.0001) %MON dynstat_vvel_min             =  -2.8716630409685E-04
(PID.TID 0000.0001) %MON dynstat_vvel_mean            =   2.9787094227943E-06
(PID.TID 0000.0001) %MON dynstat_vvel_sd              =   1.2985161911806E-05
(PID.TID 0000.0001) %MON dynstat_vvel_del2            =   9.7878760125088E-07
(PID.TID 0000.0001) %MON dynstat_wvel_max             =   7.5971424124718E-07
(PID.TID 0000.0001) %MON dynstat_wvel_min             =  -3.6688578992359E-07
(PID.TID 0000.0001) %MON dynstat_wvel_mean            =  -8.5956191564135E-10
(PID.TID 0000.0001) %MON dynstat_wvel_sd              =   5.4386276125089E-08
(PID.TID 0000.0001) %MON dynstat_wvel_del2            =   7.1494180572835E-09
(PID.TID 0000.0001) %MON dynstat_theta_max            =  -1.9000000000000E+00
(PID.TID 0000.0001) %MON dynstat_theta_min            =  -1.9118665388707E+00
(PID.TID 0000.0001) %MON dynstat_theta_mean           =  -1.9002327317483E+00
(PID.TID 0000.0001) %MON dynstat_theta_sd             =   1.0562877704027E-03
(PID.TID 0000.0001) %MON dynstat_theta_del2           =   4.8096753609840E-05
(PID.TID 0000.0001) %MON dynstat_salt_max             =   3.4400000000000E+01
(PID.TID 0000.0001) %MON dynstat_salt_min             =   3.4395284237453E+01
(PID.TID 0000.0001) %MON dynstat_salt_mean            =   3.4399907512395E+01
(PID.TID 0000.0001) %MON dynstat_salt_sd              =   4.1976875995825E-04
(PID.TID 0000.0001) %MON dynstat_salt_del2            =   1.9113649884569E-05
(PID.TID 0000.0001) %MON advcfl_uvel_max              =   1.2975355293244E-05
(PID.TID 0000.0001) %MON advcfl_vvel_max              =   4.6493172743510E-05
(PID.TID 0000.0001) %MON advcfl_wvel_max              =   4.5582854474831E-05
(PID.TID 0000.0001) %MON advcfl_W_hf_max              =   7.7300284112771E-05
(PID.TID 0000.0001) %MON pe_b_mean                    =   7.3173542621355E-09
(PID.TID 0000.0001) %MON ke_max                       =   3.6075620988862E-07
(PID.TID 0000.0001) %MON ke_mean                      =   1.6448923205619E-08
(PID.TID 0000.0001) %MON ke_vol                       =   4.9883516278638E+19
(PID.TID 0000.0001) %MON vort_r_min                   =  -7.5206515858759E-08
(PID.TID 0000.0001) %MON vort_r_max                   =   7.7509459122575E-08
(PID.TID 0000.0001) %MON vort_a_mean                  =  -1.4215284888671E-04
(PID.TID 0000.0001) %MON vort_a_sd                    =   7.4058233247455E-07
(PID.TID 0000.0001) %MON vort_p_mean                  =  -1.5365009932848E-04
(PID.TID 0000.0001) %MON vort_p_sd                    =   8.6031063093035E-05
(PID.TID 0000.0001) %MON surfExpan_theta_mean         =   7.3902208187279E-10
(PID.TID 0000.0001) %MON surfExpan_salt_mean          =  -1.3328973011822E-08
(PID.TID 0000.0001) // =======================================================
(PID.TID 0000.0001) // End MONITOR dynamic field statistics
(PID.TID 0000.0001) // =======================================================
 cg2d: Sum(rhs),rhsMax =   1.83208435538193E+01  3.34536766215600E-04
(PID.TID 0000.0001)                    cg2d_init_res =    5.75682733150224E+02
(PID.TID 0000.0001)                       cg2d_iters =   139
(PID.TID 0000.0001)                         cg2d_res =    5.63713466303831E-14
(PID.TID 0000.0001) // =======================================================
(PID.TID 0000.0001) // Begin MONITOR dynamic field statistics
(PID.TID 0000.0001) // =======================================================
(PID.TID 0000.0001) %MON time_tsnumber                =                     5
(PID.TID 0000.0001) %MON time_secondsf                =   9.0000000000000E+03
(PID.TID 0000.0001) %MON dynstat_eta_max              =   2.1369107913647E-03
(PID.TID 0000.0001) %MON dynstat_eta_min              =  -8.4000986098617E-05
(PID.TID 0000.0001) %MON dynstat_eta_mean             =  -1.5746406919584E-06
(PID.TID 0000.0001) %MON dynstat_eta_sd               =   3.3572032068066E-04
(PID.TID 0000.0001) %MON dynstat_eta_del2             =   2.4319884687574E-05
(PID.TID 0000.0001) %MON dynstat_uvel_max             =   1.7215742195547E-03
(PID.TID 0000.0001) %MON dynstat_uvel_min             =  -1.7348413473764E-03
(PID.TID 0000.0001) %MON dynstat_uvel_mean            =   6.4718218115115E-05
(PID.TID 0000.0001) %MON dynstat_uvel_sd              =   3.7909008569713E-04
(PID.TID 0000.0001) %MON dynstat_uvel_del2            =   1.7145433480517E-05
(PID.TID 0000.0001) %MON dynstat_vvel_max             =   3.0026686498153E-04
(PID.TID 0000.0001) %MON dynstat_vvel_min             =  -4.2096480131848E-04
(PID.TID 0000.0001) %MON dynstat_vvel_mean            =   4.0703649915071E-06
(PID.TID 0000.0001) %MON dynstat_vvel_sd              =   1.9340481793766E-05
(PID.TID 0000.0001) %MON dynstat_vvel_del2            =   1.4558967601568E-06
(PID.TID 0000.0001) %MON dynstat_wvel_max             =   1.1292398267186E-06
(PID.TID 0000.0001) %MON dynstat_wvel_min             =  -6.3611521535411E-07
(PID.TID 0000.0001) %MON dynstat_wvel_mean            =  -1.7282549152138E-09
(PID.TID 0000.0001) %MON dynstat_wvel_sd              =   7.5633794661141E-08
(PID.TID 0000.0001) %MON dynstat_wvel_del2            =   1.0336728450712E-08
(PID.TID 0000.0001) %MON dynstat_theta_max            =  -1.9000000000000E+00
(PID.TID 0000.0001) %MON dynstat_theta_min            =  -1.9147815430954E+00
(PID.TID 0000.0001) %MON dynstat_theta_mean           =  -1.9002901581282E+00
(PID.TID 0000.0001) %MON dynstat_theta_sd             =   1.3162067773322E-03
(PID.TID 0000.0001) %MON dynstat_theta_del2           =   5.9872791222439E-05
(PID.TID 0000.0001) %MON dynstat_salt_max             =   3.4400000000000E+01
(PID.TID 0000.0001) %MON dynstat_salt_min             =   3.4394125814774E+01
(PID.TID 0000.0001) %MON dynstat_salt_mean            =   3.4399884691152E+01
(PID.TID 0000.0001) %MON dynstat_salt_sd              =   5.2306057331202E-04
(PID.TID 0000.0001) %MON dynstat_salt_del2            =   2.3793447231828E-05
(PID.TID 0000.0001) %MON advcfl_uvel_max              =   2.4515399658034E-05
(PID.TID 0000.0001) %MON advcfl_vvel_max              =   6.8155591193723E-05
(PID.TID 0000.0001) %MON advcfl_wvel_max              =   6.7754389603114E-05
(PID.TID 0000.0001) %MON advcfl_W_hf_max              =   1.1451416626410E-04
(PID.TID 0000.0001) %MON pe_b_mean                    =   2.0905570812946E-08
(PID.TID 0000.0001) %MON ke_max                       =   1.5102619933080E-06
(PID.TID 0000.0001) %MON ke_mean                      =   7.2638558406747E-08
(PID.TID 0000.0001) %MON ke_vol                       =   4.9883516278638E+19
(PID.TID 0000.0001) %MON vort_r_min                   =  -1.5548179855649E-07
(PID.TID 0000.0001) %MON vort_r_max                   =   1.6231715061545E-07
(PID.TID 0000.0001) %MON vort_a_mean                  =  -1.4215331275726E-04
(PID.TID 0000.0001) %MON vort_a_sd                    =   7.3724920078958E-07
(PID.TID 0000.0001) %MON vort_p_mean                  =  -1.5365060071665E-04
(PID.TID 0000.0001) %MON vort_p_sd                    =   8.6024805039198E-05
(PID.TID 0000.0001) %MON surfExpan_theta_mean         =   1.9306831700352E-09
(PID.TID 0000.0001) %MON surfExpan_salt_mean          =  -3.4831106961625E-08
(PID.TID 0000.0001) // =======================================================
(PID.TID 0000.0001) // End MONITOR dynamic field statistics
(PID.TID 0000.0001) // =======================================================
 cg2d: Sum(rhs),rhsMax =   1.91938627225986E+01  4.06304598991105E-04
(PID.TID 0000.0001)                    cg2d_init_res =    5.97643651283451E+02
(PID.TID 0000.0001)                       cg2d_iters =   139
(PID.TID 0000.0001)                         cg2d_res =    4.56059495110351E-14
(PID.TID 0000.0001) // =======================================================
(PID.TID 0000.0001) // Begin MONITOR dynamic field statistics
(PID.TID 0000.0001) // =======================================================
(PID.TID 0000.0001) %MON time_tsnumber                =                     6
(PID.TID 0000.0001) %MON time_secondsf                =   1.0800000000000E+04
(PID.TID 0000.0001) %MON dynstat_eta_max              =   2.6197379973648E-03
(PID.TID 0000.0001) %MON dynstat_eta_min              =  -1.0789710086985E-04
(PID.TID 0000.0001) %MON dynstat_eta_mean             =  -4.3426678523825E-06
(PID.TID 0000.0001) %MON dynstat_eta_sd               =   4.1185636288812E-04
(PID.TID 0000.0001) %MON dynstat_eta_del2             =   2.9849417906920E-05
(PID.TID 0000.0001) %MON dynstat_uvel_max             =   3.0141906934394E-03
(PID.TID 0000.0001) %MON dynstat_uvel_min             =  -3.0087251983851E-03
(PID.TID 0000.0001) %MON dynstat_uvel_mean            =   1.1363299083243E-04
(PID.TID 0000.0001) %MON dynstat_uvel_sd              =   6.6168431709672E-04
(PID.TID 0000.0001) %MON dynstat_uvel_del2            =   2.9613519619774E-05
(PID.TID 0000.0001) %MON dynstat_vvel_max             =   4.0460356713016E-04
(PID.TID 0000.0001) %MON dynstat_vvel_min             =  -5.5972695948003E-04
(PID.TID 0000.0001) %MON dynstat_vvel_mean            =   5.4062230826479E-06
(PID.TID 0000.0001) %MON dynstat_vvel_sd              =   2.6098144098904E-05
(PID.TID 0000.0001) %MON dynstat_vvel_del2            =   1.9593674641544E-06
(PID.TID 0000.0001) %MON dynstat_wvel_max             =   1.5109758845905E-06
(PID.TID 0000.0001) %MON dynstat_wvel_min             =  -1.0010009153103E-06
(PID.TID 0000.0001) %MON dynstat_wvel_mean            =  -2.4156091269844E-09
(PID.TID 0000.0001) %MON dynstat_wvel_sd              =   1.0219369341365E-07
(PID.TID 0000.0001) %MON dynstat_wvel_del2            =   1.4154426366111E-08
(PID.TID 0000.0001) %MON dynstat_theta_max            =  -1.9000000000000E+00
(PID.TID 0000.0001) %MON dynstat_theta_min            =  -1.9176774608869E+00
(PID.TID 0000.0001) %MON dynstat_theta_mean           =  -1.9003473025713E+00
(PID.TID 0000.0001) %MON dynstat_theta_sd             =   1.5745810977299E-03
(PID.TID 0000.0001) %MON dynstat_theta_del2           =   7.1556863594281E-05
(PID.TID 0000.0001) %MON dynstat_salt_max             =   3.4400000000000E+01
(PID.TID 0000.0001) %MON dynstat_salt_min             =   3.4392974977044E+01
(PID.TID 0000.0001) %MON dynstat_salt_mean            =   3.4399861981951E+01
(PID.TID 0000.0001) %MON dynstat_salt_sd              =   6.2573852823811E-04
(PID.TID 0000.0001) %MON dynstat_salt_del2            =   2.8436697592410E-05
(PID.TID 0000.0001) %MON advcfl_uvel_max              =   4.1996090765542E-05
(PID.TID 0000.0001) %MON advcfl_vvel_max              =   9.0621642738167E-05
(PID.TID 0000.0001) %MON advcfl_wvel_max              =   9.0658553075428E-05
(PID.TID 0000.0001) %MON advcfl_W_hf_max              =   1.5213410797662E-04
(PID.TID 0000.0001) %MON pe_b_mean                    =   4.0709471743485E-08
(PID.TID 0000.0001) %MON ke_max                       =   4.5426966994856E-06
(PID.TID 0000.0001) %MON ke_mean                      =   2.2113127563158E-07
(PID.TID 0000.0001) %MON ke_vol                       =   4.9883516278638E+19
(PID.TID 0000.0001) %MON vort_r_min                   =  -2.6826762682381E-07
(PID.TID 0000.0001) %MON vort_r_max                   =   2.8236132015703E-07
(PID.TID 0000.0001) %MON vort_a_mean                  =  -1.4215397449232E-04
(PID.TID 0000.0001) %MON vort_a_sd                    =   7.3331934020358E-07
(PID.TID 0000.0001) %MON vort_p_mean                  =  -1.5365131597251E-04
(PID.TID 0000.0001) %MON vort_p_sd                    =   8.6015897538367E-05
(PID.TID 0000.0001) %MON surfExpan_theta_mean         =   2.9348865910983E-09
(PID.TID 0000.0001) %MON surfExpan_salt_mean          =  -5.2894876572224E-08
(PID.TID 0000.0001) // =======================================================
(PID.TID 0000.0001) // End MONITOR dynamic field statistics
(PID.TID 0000.0001) // =======================================================
 cg2d: Sum(rhs),rhsMax =   2.00847460539325E+01  4.77801477335883E-04
(PID.TID 0000.0001)                    cg2d_init_res =    6.24014363139168E+02
(PID.TID 0000.0001)                       cg2d_iters =   139
(PID.TID 0000.0001)                         cg2d_res =    4.07918254608893E-14
(PID.TID 0000.0001) // =======================================================
(PID.TID 0000.0001) // Begin MONITOR dynamic field statistics
(PID.TID 0000.0001) // =======================================================
(PID.TID 0000.0001) %MON time_tsnumber                =                     7
(PID.TID 0000.0001) %MON time_secondsf                =   1.2600000000000E+04
(PID.TID 0000.0001) %MON dynstat_eta_max              =   3.1069448432875E-03
(PID.TID 0000.0001) %MON dynstat_eta_min              =  -1.3176966082190E-04
(PID.TID 0000.0001) %MON dynstat_eta_mean             =  -8.2028288350038E-06
(PID.TID 0000.0001) %MON dynstat_eta_sd               =   4.8882591114334E-04
(PID.TID 0000.0001) %MON dynstat_eta_del2             =   3.5406063345457E-05
(PID.TID 0000.0001) %MON dynstat_uvel_max             =   4.7156480927284E-03
(PID.TID 0000.0001) %MON dynstat_uvel_min             =  -4.6699014420172E-03
(PID.TID 0000.0001) %MON dynstat_uvel_mean            =   1.7806690542915E-04
(PID.TID 0000.0001) %MON dynstat_uvel_sd              =   1.0324339699787E-03
(PID.TID 0000.0001) %MON dynstat_uvel_del2            =   4.5930542462247E-05
(PID.TID 0000.0001) %MON dynstat_vvel_max             =   5.0868673197253E-04
(PID.TID 0000.0001) %MON dynstat_vvel_min             =  -6.9177885277856E-04
(PID.TID 0000.0001) %MON dynstat_vvel_mean            =   6.8462910897601E-06
(PID.TID 0000.0001) %MON dynstat_vvel_sd              =   3.2788961978858E-05
(PID.TID 0000.0001) %MON dynstat_vvel_del2            =   2.4635108295330E-06
(PID.TID 0000.0001) %MON dynstat_wvel_max             =   1.8857766207308E-06
(PID.TID 0000.0001) %MON dynstat_wvel_min             =  -1.4792230283977E-06
(PID.TID 0000.0001) %MON dynstat_wvel_mean            =  -3.3151743749335E-09
(PID.TID 0000.0001) %MON dynstat_wvel_sd              =   1.3192674516945E-07
(PID.TID 0000.0001) %MON dynstat_wvel_del2            =   1.8449439037824E-08
(PID.TID 0000.0001) %MON dynstat_theta_max            =  -1.9000000000000E+00
(PID.TID 0000.0001) %MON dynstat_theta_min            =  -1.9205544769366E+00
(PID.TID 0000.0001) %MON dynstat_theta_mean           =  -1.9004041666717E+00
(PID.TID 0000.0001) %MON dynstat_theta_sd             =   1.8314208110756E-03
(PID.TID 0000.0001) %MON dynstat_theta_del2           =   8.3149684930418E-05
(PID.TID 0000.0001) %MON dynstat_salt_max             =   3.4400000000000E+01
(PID.TID 0000.0001) %MON dynstat_salt_min             =   3.4391831650865E+01
(PID.TID 0000.0001) %MON dynstat_salt_mean            =   3.4399839384157E+01
(PID.TID 0000.0001) %MON dynstat_salt_sd              =   7.2780663032173E-04
(PID.TID 0000.0001) %MON dynstat_salt_del2            =   3.3043684791403E-05
(PID.TID 0000.0001) %MON advcfl_uvel_max              =   6.4581175619807E-05
(PID.TID 0000.0001) %MON advcfl_vvel_max              =   1.1200128024663E-04
(PID.TID 0000.0001) %MON advcfl_wvel_max              =   1.1314659724385E-04
(PID.TID 0000.0001) %MON advcfl_W_hf_max              =   1.8925103727935E-04
(PID.TID 0000.0001) %MON pe_b_mean                    =   6.6697980309540E-08
(PID.TID 0000.0001) %MON ke_max                       =   1.1118719073899E-05
(PID.TID 0000.0001) %MON ke_mean                      =   5.3818383429555E-07
(PID.TID 0000.0001) %MON ke_vol                       =   4.9883516278638E+19
(PID.TID 0000.0001) %MON vort_r_min                   =  -4.1511979085928E-07
(PID.TID 0000.0001) %MON vort_r_max                   =   4.3906345808824E-07
(PID.TID 0000.0001) %MON vort_a_mean                  =  -1.4215484564189E-04
(PID.TID 0000.0001) %MON vort_a_sd                    =   7.2962428796644E-07
(PID.TID 0000.0001) %MON vort_p_mean                  =  -1.5365225758022E-04
(PID.TID 0000.0001) %MON vort_p_sd                    =   8.6004212239623E-05
(PID.TID 0000.0001) %MON surfExpan_theta_mean         =   4.0933851803663E-09
(PID.TID 0000.0001) %MON surfExpan_salt_mean          =  -7.3764505925821E-08
(PID.TID 0000.0001) // =======================================================
(PID.TID 0000.0001) // End MONITOR dynamic field statistics
(PID.TID 0000.0001) // =======================================================
 cg2d: Sum(rhs),rhsMax =   2.11143036676364E+01  5.49056905246105E-04
(PID.TID 0000.0001)                    cg2d_init_res =    6.44369726389470E+02
(PID.TID 0000.0001)                       cg2d_iters =   139
(PID.TID 0000.0001)                         cg2d_res =    4.14292438244907E-14
(PID.TID 0000.0001) // =======================================================
(PID.TID 0000.0001) // Begin MONITOR dynamic field statistics
(PID.TID 0000.0001) // =======================================================
(PID.TID 0000.0001) %MON time_tsnumber                =                     8
(PID.TID 0000.0001) %MON time_secondsf                =   1.4400000000000E+04
(PID.TID 0000.0001) %MON dynstat_eta_max              =   3.6239630008751E-03
(PID.TID 0000.0001) %MON dynstat_eta_min              =  -1.5863125584607E-04
(PID.TID 0000.0001) %MON dynstat_eta_mean             =  -1.3089825966256E-05
(PID.TID 0000.0001) %MON dynstat_eta_sd               =   5.7055469573318E-04
(PID.TID 0000.0001) %MON dynstat_eta_del2             =   4.1278739075658E-05
(PID.TID 0000.0001) %MON dynstat_uvel_max             =   6.8175680040297E-03
(PID.TID 0000.0001) %MON dynstat_uvel_min             =  -6.7033564522035E-03
(PID.TID 0000.0001) %MON dynstat_uvel_mean            =   2.5773174149118E-04
(PID.TID 0000.0001) %MON dynstat_uvel_sd              =   1.4890383750962E-03
(PID.TID 0000.0001) %MON dynstat_uvel_del2            =   6.6012634507626E-05
(PID.TID 0000.0001) %MON dynstat_vvel_max             =   6.0719851334041E-04
(PID.TID 0000.0001) %MON dynstat_vvel_min             =  -8.0813567049408E-04
(PID.TID 0000.0001) %MON dynstat_vvel_mean            =   8.3635412029310E-06
(PID.TID 0000.0001) %MON dynstat_vvel_sd              =   3.9010307047049E-05
(PID.TID 0000.0001) %MON dynstat_vvel_del2            =   2.9431854598772E-06
(PID.TID 0000.0001) %MON dynstat_wvel_max             =   2.2250304711381E-06
(PID.TID 0000.0001) %MON dynstat_wvel_min             =  -2.0454772678072E-06
(PID.TID 0000.0001) %MON dynstat_wvel_mean            =  -4.0972730819155E-09
(PID.TID 0000.0001) %MON dynstat_wvel_sd              =   1.6576442620214E-07
(PID.TID 0000.0001) %MON dynstat_wvel_del2            =   2.3218954043755E-08
(PID.TID 0000.0001) %MON dynstat_theta_max            =  -1.9000000000000E+00
(PID.TID 0000.0001) %MON dynstat_theta_min            =  -1.9234127467958E+00
(PID.TID 0000.0001) %MON dynstat_theta_mean           =  -1.9004607519875E+00
(PID.TID 0000.0001) %MON dynstat_theta_sd             =   2.0867357449015E-03
(PID.TID 0000.0001) %MON dynstat_theta_del2           =   9.4651932610116E-05
(PID.TID 0000.0001) %MON dynstat_salt_max             =   3.4400000000000E+01
(PID.TID 0000.0001) %MON dynstat_salt_min             =   3.4390695774423E+01
(PID.TID 0000.0001) %MON dynstat_salt_mean            =   3.4399816897152E+01
(PID.TID 0000.0001) %MON dynstat_salt_sd              =   8.2926878502390E-04
(PID.TID 0000.0001) %MON dynstat_salt_del2            =   3.7614678019324E-05
(PID.TID 0000.0001) %MON advcfl_uvel_max              =   9.1980130976845E-05
(PID.TID 0000.0001) %MON advcfl_vvel_max              =   1.3083983319924E-04
(PID.TID 0000.0001) %MON advcfl_wvel_max              =   1.3350182826828E-04
(PID.TID 0000.0001) %MON advcfl_W_hf_max              =   2.2246367522250E-04
(PID.TID 0000.0001) %MON pe_b_mean                    =   9.9006707397046E-08
(PID.TID 0000.0001) %MON ke_max                       =   2.3239728304811E-05
(PID.TID 0000.0001) %MON ke_mean                      =   1.1193358968069E-06
(PID.TID 0000.0001) %MON ke_vol                       =   4.9883516278638E+19
(PID.TID 0000.0001) %MON vort_r_min                   =  -5.9744526245563E-07
(PID.TID 0000.0001) %MON vort_r_max                   =   6.3083005848819E-07
(PID.TID 0000.0001) %MON vort_a_mean                  =  -1.4215592181237E-04
(PID.TID 0000.0001) %MON vort_a_sd                    =   7.2737932404135E-07
(PID.TID 0000.0001) %MON vort_p_mean                  =  -1.5365342079082E-04
(PID.TID 0000.0001) %MON vort_p_sd                    =   8.5989834678349E-05
(PID.TID 0000.0001) %MON surfExpan_theta_mean         =   5.1848072849332E-09
(PID.TID 0000.0001) %MON surfExpan_salt_mean          =  -9.3385489456635E-08
(PID.TID 0000.0001) // =======================================================
(PID.TID 0000.0001) // End MONITOR dynamic field statistics
(PID.TID 0000.0001) // =======================================================
 cg2d: Sum(rhs),rhsMax =   2.22198014603900E+01  6.20057175891473E-04
(PID.TID 0000.0001)                    cg2d_init_res =    6.65769152735174E+02
(PID.TID 0000.0001)                       cg2d_iters =   139
(PID.TID 0000.0001)                         cg2d_res =    4.36182046647715E-14
(PID.TID 0000.0001) // =======================================================
(PID.TID 0000.0001) // Begin MONITOR dynamic field statistics
(PID.TID 0000.0001) // =======================================================
(PID.TID 0000.0001) %MON time_tsnumber                =                     9
(PID.TID 0000.0001) %MON time_secondsf                =   1.6200000000000E+04
(PID.TID 0000.0001) %MON dynstat_eta_max              =   4.1682558398689E-03
(PID.TID 0000.0001) %MON dynstat_eta_min              =  -1.8775715537904E-04
(PID.TID 0000.0001) %MON dynstat_eta_mean             =  -1.8997352333003E-05
(PID.TID 0000.0001) %MON dynstat_eta_sd               =   6.5662787302864E-04
(PID.TID 0000.0001) %MON dynstat_eta_del2             =   4.7434853245185E-05
(PID.TID 0000.0001) %MON dynstat_uvel_max             =   9.2955643082149E-03
(PID.TID 0000.0001) %MON dynstat_uvel_min             =  -9.0791221569658E-03
(PID.TID 0000.0001) %MON dynstat_uvel_mean            =   3.5173215761065E-04
(PID.TID 0000.0001) %MON dynstat_uvel_sd              =   2.0258186828230E-03
(PID.TID 0000.0001) %MON dynstat_uvel_del2            =   8.9495503593253E-05
(PID.TID 0000.0001) %MON dynstat_vvel_max             =   6.9612606336751E-04
(PID.TID 0000.0001) %MON dynstat_vvel_min             =  -8.9989485592091E-04
(PID.TID 0000.0001) %MON dynstat_vvel_mean            =   9.9070687686344E-06
(PID.TID 0000.0001) %MON dynstat_vvel_sd              =   4.4444965349901E-05
(PID.TID 0000.0001) %MON dynstat_vvel_del2            =   3.3785671556714E-06
(PID.TID 0000.0001) %MON dynstat_wvel_max             =   2.6041089950771E-06
(PID.TID 0000.0001) %MON dynstat_wvel_min             =  -2.6860837103617E-06
(PID.TID 0000.0001) %MON dynstat_wvel_mean            =  -4.8275717304870E-09
(PID.TID 0000.0001) %MON dynstat_wvel_sd              =   2.0696769886371E-07
(PID.TID 0000.0001) %MON dynstat_wvel_del2            =   2.8479927259494E-08
(PID.TID 0000.0001) %MON dynstat_theta_max            =  -1.9000000000000E+00
(PID.TID 0000.0001) %MON dynstat_theta_min            =  -1.9262524155607E+00
(PID.TID 0000.0001) %MON dynstat_theta_mean           =  -1.9005170600801E+00
(PID.TID 0000.0001) %MON dynstat_theta_sd             =   2.3405357943430E-03
(PID.TID 0000.0001) %MON dynstat_theta_del2           =   1.0606430181777E-04
(PID.TID 0000.0001) %MON dynstat_salt_max             =   3.4400000000000E+01
(PID.TID 0000.0001) %MON dynstat_salt_min             =   3.4389567290056E+01
(PID.TID 0000.0001) %MON dynstat_salt_mean            =   3.4399794520317E+01
(PID.TID 0000.0001) %MON dynstat_salt_sd              =   9.3012892467193E-04
(PID.TID 0000.0001) %MON dynstat_salt_del2            =   4.2149953542450E-05
(PID.TID 0000.0001) %MON advcfl_uvel_max              =   1.2359489075085E-04
(PID.TID 0000.0001) %MON advcfl_vvel_max              =   1.4569594827259E-04
(PID.TID 0000.0001) %MON advcfl_wvel_max              =   1.6116502262170E-04
(PID.TID 0000.0001) %MON advcfl_W_hf_max              =   2.5000011056545E-04
(PID.TID 0000.0001) %MON pe_b_mean                    =   1.3762335709738E-07
(PID.TID 0000.0001) %MON ke_max                       =   4.3203999739731E-05
(PID.TID 0000.0001) %MON ke_mean                      =   2.0717401741538E-06
(PID.TID 0000.0001) %MON ke_vol                       =   4.9883516278638E+19
(PID.TID 0000.0001) %MON vort_r_min                   =  -8.1131061363334E-07
(PID.TID 0000.0001) %MON vort_r_max                   =   8.5447169388903E-07
(PID.TID 0000.0001) %MON vort_a_mean                  =  -1.4215719039391E-04
(PID.TID 0000.0001) %MON vort_a_sd                    =   7.2800973150657E-07
(PID.TID 0000.0001) %MON vort_p_mean                  =  -1.5365479197459E-04
(PID.TID 0000.0001) %MON vort_p_sd                    =   8.5972968886590E-05
(PID.TID 0000.0001) %MON surfExpan_theta_mean         =   6.2706679828826E-09
(PID.TID 0000.0001) %MON surfExpan_salt_mean          =  -1.1288550536280E-07
(PID.TID 0000.0001) // =======================================================
(PID.TID 0000.0001) // End MONITOR dynamic field statistics
(PID.TID 0000.0001) // =======================================================
 cg2d: Sum(rhs),rhsMax =   2.34153303548026E+01  6.90775769427376E-04
(PID.TID 0000.0001)                    cg2d_init_res =    6.87429243949949E+02
(PID.TID 0000.0001)                       cg2d_iters =   139
(PID.TID 0000.0001)                         cg2d_res =    4.66911322350126E-14
(PID.TID 0000.0001) // =======================================================
(PID.TID 0000.0001) // Begin MONITOR dynamic field statistics
(PID.TID 0000.0001) // =======================================================
(PID.TID 0000.0001) %MON time_tsnumber                =                    10
(PID.TID 0000.0001) %MON time_secondsf                =   1.8000000000000E+04
(PID.TID 0000.0001) %MON dynstat_eta_max              =   4.7500676118464E-03
(PID.TID 0000.0001) %MON dynstat_eta_min              =  -2.2008855995011E-04
(PID.TID 0000.0001) %MON dynstat_eta_mean             =  -2.5874292511488E-05
(PID.TID 0000.0001) %MON dynstat_eta_sd               =   7.4862558366996E-04
(PID.TID 0000.0001) %MON dynstat_eta_del2             =   5.3989674848357E-05
(PID.TID 0000.0001) %MON dynstat_uvel_max             =   1.2106452582053E-02
(PID.TID 0000.0001) %MON dynstat_uvel_min             =  -1.1750173524679E-02
(PID.TID 0000.0001) %MON dynstat_uvel_mean            =   4.5847278295838E-04
(PID.TID 0000.0001) %MON dynstat_uvel_sd              =   2.6331426654966E-03
(PID.TID 0000.0001) %MON dynstat_uvel_del2            =   1.1591407807268E-04
(PID.TID 0000.0001) %MON dynstat_vvel_max             =   7.7234752853474E-04
(PID.TID 0000.0001) %MON dynstat_vvel_min             =  -9.6014641269715E-04
(PID.TID 0000.0001) %MON dynstat_vvel_mean            =   1.1472584650774E-05
(PID.TID 0000.0001) %MON dynstat_vvel_sd              =   4.8909462811202E-05
(PID.TID 0000.0001) %MON dynstat_vvel_del2            =   3.7558080627833E-06
(PID.TID 0000.0001) %MON dynstat_wvel_max             =   3.2219042142993E-06
(PID.TID 0000.0001) %MON dynstat_wvel_min             =  -3.3830752138938E-06
(PID.TID 0000.0001) %MON dynstat_wvel_mean            =  -5.4550582970604E-09
(PID.TID 0000.0001) %MON dynstat_wvel_sd              =   2.6000670536093E-07
(PID.TID 0000.0001) %MON dynstat_wvel_del2            =   3.4261168355134E-08
(PID.TID 0000.0001) %MON dynstat_theta_max            =  -1.9000000000000E+00
(PID.TID 0000.0001) %MON dynstat_theta_min            =  -1.9290736016681E+00
(PID.TID 0000.0001) %MON dynstat_theta_mean           =  -1.9005730924875E+00
(PID.TID 0000.0001) %MON dynstat_theta_sd             =   2.5928307269599E-03
(PID.TID 0000.0001) %MON dynstat_theta_del2           =   1.1738748371743E-04
(PID.TID 0000.0001) %MON dynstat_salt_max             =   3.4400000000000E+01
(PID.TID 0000.0001) %MON dynstat_salt_min             =   3.4388446150697E+01
(PID.TID 0000.0001) %MON dynstat_salt_mean            =   3.4399772253038E+01
(PID.TID 0000.0001) %MON dynstat_salt_sd              =   1.0303909308941E-03
(PID.TID 0000.0001) %MON dynstat_salt_del2            =   4.6649786029364E-05
(PID.TID 0000.0001) %MON advcfl_uvel_max              =   1.5856170977335E-04
(PID.TID 0000.0001) %MON advcfl_vvel_max              =   1.5545087424162E-04
(PID.TID 0000.0001) %MON advcfl_wvel_max              =   2.0298451283363E-04
(PID.TID 0000.0001) %MON advcfl_W_hf_max              =   2.7012754661428E-04
(PID.TID 0000.0001) %MON pe_b_mean                    =   1.8234424664569E-07
(PID.TID 0000.0001) %MON ke_max                       =   7.3283604225966E-05
(PID.TID 0000.0001) %MON ke_mean                      =   3.5002013303906E-06
(PID.TID 0000.0001) %MON ke_vol                       =   4.9883516278638E+19
(PID.TID 0000.0001) %MON vort_r_min                   =  -1.0528468221823E-06
(PID.TID 0000.0001) %MON vort_r_max                   =   1.1050408615374E-06
(PID.TID 0000.0001) %MON vort_a_mean                  =  -1.4215862911445E-04
(PID.TID 0000.0001) %MON vort_a_sd                    =   7.3294988300031E-07
(PID.TID 0000.0001) %MON vort_p_mean                  =  -1.5365634705812E-04
(PID.TID 0000.0001) %MON vort_p_sd                    =   8.5953949754621E-05
(PID.TID 0000.0001) %MON surfExpan_theta_mean         =   7.3037377587245E-09
(PID.TID 0000.0001) %MON surfExpan_salt_mean          =  -1.3140818605418E-07
(PID.TID 0000.0001) // =======================================================
(PID.TID 0000.0001) // End MONITOR dynamic field statistics
(PID.TID 0000.0001) // =======================================================
 cg2d: Sum(rhs),rhsMax =   2.46864299343186E+01  7.61203600451600E-04
(PID.TID 0000.0001)                    cg2d_init_res =    7.10904291907002E+02
(PID.TID 0000.0001)                       cg2d_iters =   139
(PID.TID 0000.0001)                         cg2d_res =    4.94800250940558E-14
(PID.TID 0000.0001) // =======================================================
(PID.TID 0000.0001) // Begin MONITOR dynamic field statistics
(PID.TID 0000.0001) // =======================================================
(PID.TID 0000.0001) %MON time_tsnumber                =                    11
(PID.TID 0000.0001) %MON time_secondsf                =   1.9800000000000E+04
(PID.TID 0000.0001) %MON dynstat_eta_max              =   5.3740806097156E-03
(PID.TID 0000.0001) %MON dynstat_eta_min              =  -2.5580391248526E-04
(PID.TID 0000.0001) %MON dynstat_eta_mean             =  -3.3675272818274E-05
(PID.TID 0000.0001) %MON dynstat_eta_sd               =   8.4726661890320E-04
(PID.TID 0000.0001) %MON dynstat_eta_del2             =   6.0990223878364E-05
(PID.TID 0000.0001) %MON dynstat_uvel_max             =   1.5195080244884E-02
(PID.TID 0000.0001) %MON dynstat_uvel_min             =  -1.4659741481633E-02
(PID.TID 0000.0001) %MON dynstat_uvel_mean            =   5.7590234662965E-04
(PID.TID 0000.0001) %MON dynstat_uvel_sd              =   3.2989621908498E-03
(PID.TID 0000.0001) %MON dynstat_uvel_del2            =   1.4475044457906E-04
(PID.TID 0000.0001) %MON dynstat_vvel_max             =   8.3400020341933E-04
(PID.TID 0000.0001) %MON dynstat_vvel_min             =  -9.8371847229471E-04
(PID.TID 0000.0001) %MON dynstat_vvel_mean            =   1.3060448483258E-05
(PID.TID 0000.0001) %MON dynstat_vvel_sd              =   5.2410316049795E-05
(PID.TID 0000.0001) %MON dynstat_vvel_del2            =   4.0670354621647E-06
(PID.TID 0000.0001) %MON dynstat_wvel_max             =   3.8571323199636E-06
(PID.TID 0000.0001) %MON dynstat_wvel_min             =  -4.1155276957609E-06
(PID.TID 0000.0001) %MON dynstat_wvel_mean            =  -5.9926597927578E-09
(PID.TID 0000.0001) %MON dynstat_wvel_sd              =   3.3022073375170E-07
(PID.TID 0000.0001) %MON dynstat_wvel_del2            =   4.0620880492192E-08
(PID.TID 0000.0001) %MON dynstat_theta_max            =  -1.9000000000000E+00
(PID.TID 0000.0001) %MON dynstat_theta_min            =  -1.9318764012913E+00
(PID.TID 0000.0001) %MON dynstat_theta_mean           =  -1.9006288507335E+00
(PID.TID 0000.0001) %MON dynstat_theta_sd             =   2.8436302620051E-03
(PID.TID 0000.0001) %MON dynstat_theta_del2           =   1.2862217984250E-04
(PID.TID 0000.0001) %MON dynstat_salt_max             =   3.4400000000000E+01
(PID.TID 0000.0001) %MON dynstat_salt_min             =   3.4387332318127E+01
(PID.TID 0000.0001) %MON dynstat_salt_mean            =   3.4399750094711E+01
(PID.TID 0000.0001) %MON dynstat_salt_sd              =   1.1300586661211E-03
(PID.TID 0000.0001) %MON dynstat_salt_del2            =   5.1114454269467E-05
(PID.TID 0000.0001) %MON advcfl_uvel_max              =   1.9581262670512E-04
(PID.TID 0000.0001) %MON advcfl_vvel_max              =   1.5926726851614E-04
(PID.TID 0000.0001) %MON advcfl_wvel_max              =   2.4693166174565E-04
(PID.TID 0000.0001) %MON advcfl_W_hf_max              =   2.8191047516464E-04
(PID.TID 0000.0001) %MON pe_b_mean                    =   2.3286912071238E-07
(PID.TID 0000.0001) %MON ke_max                       =   1.1544624500273E-04
(PID.TID 0000.0001) %MON ke_mean                      =   5.4944425797916E-06
(PID.TID 0000.0001) %MON ke_vol                       =   4.9883516278638E+19
(PID.TID 0000.0001) %MON vort_r_min                   =  -1.3173041635109E-06
(PID.TID 0000.0001) %MON vort_r_max                   =   1.3765731336103E-06
(PID.TID 0000.0001) %MON vort_a_mean                  =  -1.4216020956904E-04
(PID.TID 0000.0001) %MON vort_a_sd                    =   7.4339398372897E-07
(PID.TID 0000.0001) %MON vort_p_mean                  =  -1.5365805533908E-04
(PID.TID 0000.0001) %MON vort_p_sd                    =   8.5933194492699E-05
(PID.TID 0000.0001) %MON surfExpan_theta_mean         =   8.2894760918481E-09
(PID.TID 0000.0001) %MON surfExpan_salt_mean          =  -1.4906350150329E-07
(PID.TID 0000.0001) // =======================================================
(PID.TID 0000.0001) // End MONITOR dynamic field statistics
(PID.TID 0000.0001) // =======================================================
 cg2d: Sum(rhs),rhsMax =   2.49998201928716E+01  8.65532467577775E-04
(PID.TID 0000.0001)                    cg2d_init_res =    7.07264505123613E+02
(PID.TID 0000.0001)                       cg2d_iters =   137
(PID.TID 0000.0001)                         cg2d_res =    9.83495556719840E-14
(PID.TID 0000.0001) // =======================================================
(PID.TID 0000.0001) // Begin MONITOR dynamic field statistics
(PID.TID 0000.0001) // =======================================================
(PID.TID 0000.0001) %MON time_tsnumber                =                    12
(PID.TID 0000.0001) %MON time_secondsf                =   2.1600000000000E+04
(PID.TID 0000.0001) %MON dynstat_eta_max              =   6.0464294630941E-03
(PID.TID 0000.0001) %MON dynstat_eta_min              =  -2.9511659329238E-04
(PID.TID 0000.0001) %MON dynstat_eta_mean             =  -4.2346588212600E-05
(PID.TID 0000.0001) %MON dynstat_eta_sd               =   9.5349414152402E-04
(PID.TID 0000.0001) %MON dynstat_eta_del2             =   6.8500765885712E-05
(PID.TID 0000.0001) %MON dynstat_uvel_max             =   1.8498041279230E-02
(PID.TID 0000.0001) %MON dynstat_uvel_min             =  -1.7745326779476E-02
(PID.TID 0000.0001) %MON dynstat_uvel_mean            =   7.0165646973732E-04
(PID.TID 0000.0001) %MON dynstat_uvel_sd              =   4.0096384938847E-03
(PID.TID 0000.0001) %MON dynstat_uvel_del2            =   1.7539355800222E-04
(PID.TID 0000.0001) %MON dynstat_vvel_max             =   8.8041696018718E-04
(PID.TID 0000.0001) %MON dynstat_vvel_min             =  -9.6765711300633E-04
(PID.TID 0000.0001) %MON dynstat_vvel_mean            =   1.4682094443065E-05
(PID.TID 0000.0001) %MON dynstat_vvel_sd              =   5.5202313657863E-05
(PID.TID 0000.0001) %MON dynstat_vvel_del2            =   4.3129646620290E-06
(PID.TID 0000.0001) %MON dynstat_wvel_max             =   4.4895088587108E-06
(PID.TID 0000.0001) %MON dynstat_wvel_min             =  -4.8609937882252E-06
(PID.TID 0000.0001) %MON dynstat_wvel_mean            =  -6.4251403026468E-09
(PID.TID 0000.0001) %MON dynstat_wvel_sd              =   4.2197954821522E-07
(PID.TID 0000.0001) %MON dynstat_wvel_del2            =   4.7607580736550E-08
(PID.TID 0000.0001) %MON dynstat_theta_max            =  -1.9000000000000E+00
(PID.TID 0000.0001) %MON dynstat_theta_min            =  -1.9346608853107E+00
(PID.TID 0000.0001) %MON dynstat_theta_mean           =  -1.9006843363235E+00
(PID.TID 0000.0001) %MON dynstat_theta_sd             =   3.0929440317436E-03
(PID.TID 0000.0001) %MON dynstat_theta_del2           =   1.3976909512602E-04
(PID.TID 0000.0001) %MON dynstat_salt_max             =   3.4400000000000E+01
(PID.TID 0000.0001) %MON dynstat_salt_min             =   3.4386225764178E+01
(PID.TID 0000.0001) %MON dynstat_salt_mean            =   3.4399728044737E+01
(PID.TID 0000.0001) %MON dynstat_salt_sd              =   1.2291359582152E-03
(PID.TID 0000.0001) %MON dynstat_salt_del2            =   5.5544238403136E-05
(PID.TID 0000.0001) %MON advcfl_uvel_max              =   2.3415070908187E-04
(PID.TID 0000.0001) %MON advcfl_vvel_max              =   1.5666688141905E-04
(PID.TID 0000.0001) %MON advcfl_wvel_max              =   2.9165962729351E-04
(PID.TID 0000.0001) %MON advcfl_W_hf_max              =   2.9165962729351E-04
(PID.TID 0000.0001) %MON pe_b_mean                    =   2.8891861963332E-07
(PID.TID 0000.0001) %MON ke_max                       =   1.7109068394865E-04
(PID.TID 0000.0001) %MON ke_mean                      =   8.1173248064920E-06
(PID.TID 0000.0001) %MON ke_vol                       =   4.9883516278638E+19
(PID.TID 0000.0001) %MON vort_r_min                   =  -1.5993728307200E-06
(PID.TID 0000.0001) %MON vort_r_max                   =   1.6625570550080E-06
(PID.TID 0000.0001) %MON vort_a_mean                  =  -1.4216189914564E-04
(PID.TID 0000.0001) %MON vort_a_sd                    =   7.6008113675750E-07
(PID.TID 0000.0001) %MON vort_p_mean                  =  -1.5365988156778E-04
(PID.TID 0000.0001) %MON vort_p_sd                    =   8.5911172585858E-05
(PID.TID 0000.0001) %MON surfExpan_theta_mean         =   9.2190451120237E-09
(PID.TID 0000.0001) %MON surfExpan_salt_mean          =  -1.6569224756489E-07
(PID.TID 0000.0001) // =======================================================
(PID.TID 0000.0001) // End MONITOR dynamic field statistics
(PID.TID 0000.0001) // =======================================================
 cg2d: Sum(rhs),rhsMax =   2.47026425999224E+01  1.00072416401619E-03
(PID.TID 0000.0001)                    cg2d_init_res =    6.88090667593182E+02
(PID.TID 0000.0001)                       cg2d_iters =   136
(PID.TID 0000.0001)                         cg2d_res =    9.44030077539188E-14
(PID.TID 0000.0001) // =======================================================
(PID.TID 0000.0001) // Begin MONITOR dynamic field statistics
(PID.TID 0000.0001) // =======================================================
(PID.TID 0000.0001) %MON time_tsnumber                =                    13
(PID.TID 0000.0001) %MON time_secondsf                =   2.3400000000000E+04
(PID.TID 0000.0001) %MON dynstat_eta_max              =   6.7710968870625E-03
(PID.TID 0000.0001) %MON dynstat_eta_min              =  -3.3810910506447E-04
(PID.TID 0000.0001) %MON dynstat_eta_mean             =  -5.1844041605974E-05
(PID.TID 0000.0001) %MON dynstat_eta_sd               =   1.0679168661644E-03
(PID.TID 0000.0001) %MON dynstat_eta_del2             =   7.6561612698123E-05
(PID.TID 0000.0001) %MON dynstat_uvel_max             =   2.1949230384631E-02
(PID.TID 0000.0001) %MON dynstat_uvel_min             =  -2.0944323316129E-02
(PID.TID 0000.0001) %MON dynstat_uvel_mean            =   8.3326462984051E-04
(PID.TID 0000.0001) %MON dynstat_uvel_sd              =   4.7511527256607E-03
(PID.TID 0000.0001) %MON dynstat_uvel_del2            =   2.0722835906610E-04
(PID.TID 0000.0001) %MON dynstat_vvel_max             =   9.3020294821370E-04
(PID.TID 0000.0001) %MON dynstat_vvel_min             =  -9.1120291056114E-04
(PID.TID 0000.0001) %MON dynstat_vvel_mean            =   1.6351382786683E-05
(PID.TID 0000.0001) %MON dynstat_vvel_sd              =   5.7829957397204E-05
(PID.TID 0000.0001) %MON dynstat_vvel_del2            =   4.5016449044513E-06
(PID.TID 0000.0001) %MON dynstat_wvel_max             =   5.0998415260354E-06
(PID.TID 0000.0001) %MON dynstat_wvel_min             =  -5.5969628782025E-06
(PID.TID 0000.0001) %MON dynstat_wvel_mean            =  -6.7559929021380E-09
(PID.TID 0000.0001) %MON dynstat_wvel_sd              =   5.3801370485446E-07
(PID.TID 0000.0001) %MON dynstat_wvel_del2            =   5.5272583095858E-08
(PID.TID 0000.0001) %MON dynstat_theta_max            =  -1.9000000000000E+00
(PID.TID 0000.0001) %MON dynstat_theta_min            =  -1.9374271029030E+00
(PID.TID 0000.0001) %MON dynstat_theta_mean           =  -1.9007395507484E+00
(PID.TID 0000.0001) %MON dynstat_theta_sd             =   3.3407816099580E-03
(PID.TID 0000.0001) %MON dynstat_theta_del2           =   1.5082893904076E-04
(PID.TID 0000.0001) %MON dynstat_salt_max             =   3.4400000000000E+01
(PID.TID 0000.0001) %MON dynstat_salt_min             =   3.4385126469306E+01
(PID.TID 0000.0001) %MON dynstat_salt_mean            =   3.4399706102524E+01
(PID.TID 0000.0001) %MON dynstat_salt_sd              =   1.3276266117974E-03
(PID.TID 0000.0001) %MON dynstat_salt_del2            =   5.9939420374846E-05
(PID.TID 0000.0001) %MON advcfl_uvel_max              =   2.7233353118411E-04
(PID.TID 0000.0001) %MON advcfl_vvel_max              =   1.5060292848020E-04
(PID.TID 0000.0001) %MON advcfl_wvel_max              =   3.3581777269215E-04
(PID.TID 0000.0001) %MON advcfl_W_hf_max              =   3.3581777269215E-04
(PID.TID 0000.0001) %MON pe_b_mean                    =   3.5028542628888E-07
(PID.TID 0000.0001) %MON ke_max                       =   2.4088779568071E-04
(PID.TID 0000.0001) %MON ke_mean                      =   1.1398272004171E-05
(PID.TID 0000.0001) %MON ke_vol                       =   4.9883516278638E+19
(PID.TID 0000.0001) %MON vort_r_min                   =  -1.8936599254291E-06
(PID.TID 0000.0001) %MON vort_r_max                   =   1.9644802697008E-06
(PID.TID 0000.0001) %MON vort_a_mean                  =  -1.4216366390107E-04
(PID.TID 0000.0001) %MON vort_a_sd                    =   7.8318432133296E-07
(PID.TID 0000.0001) %MON vort_p_mean                  =  -1.5366178905573E-04
(PID.TID 0000.0001) %MON vort_p_sd                    =   8.5888364939690E-05
(PID.TID 0000.0001) %MON surfExpan_theta_mean         =   1.0102457442944E-08
(PID.TID 0000.0001) %MON surfExpan_salt_mean          =  -1.8147614112955E-07
(PID.TID 0000.0001) // =======================================================
(PID.TID 0000.0001) // End MONITOR dynamic field statistics
(PID.TID 0000.0001) // =======================================================
 cg2d: Sum(rhs),rhsMax =   2.43208502213666E+01  1.15308653025868E-03
(PID.TID 0000.0001)                    cg2d_init_res =    6.68517076821580E+02
(PID.TID 0000.0001)                       cg2d_iters =   136
(PID.TID 0000.0001)                         cg2d_res =    8.83465786617502E-14
(PID.TID 0000.0001) // =======================================================
(PID.TID 0000.0001) // Begin MONITOR dynamic field statistics
(PID.TID 0000.0001) // =======================================================
(PID.TID 0000.0001) %MON time_tsnumber                =                    14
(PID.TID 0000.0001) %MON time_secondsf                =   2.5200000000000E+04
(PID.TID 0000.0001) %MON dynstat_eta_max              =   7.5514357874413E-03
(PID.TID 0000.0001) %MON dynstat_eta_min              =  -3.8490737254583E-04
(PID.TID 0000.0001) %MON dynstat_eta_mean             =  -6.2135171665663E-05
(PID.TID 0000.0001) %MON dynstat_eta_sd               =   1.1910475926914E-03
(PID.TID 0000.0001) %MON dynstat_eta_del2             =   8.5208659300115E-05
(PID.TID 0000.0001) %MON dynstat_uvel_max             =   2.5484611750752E-02
(PID.TID 0000.0001) %MON dynstat_uvel_min             =  -2.4198619085108E-02
(PID.TID 0000.0001) %MON dynstat_uvel_mean            =   9.6832914714533E-04
(PID.TID 0000.0001) %MON dynstat_uvel_sd              =   5.5101212784589E-03
(PID.TID 0000.0001) %MON dynstat_uvel_del2            =   2.3969174337211E-04
(PID.TID 0000.0001) %MON dynstat_vvel_max             =   9.9405965295306E-04
(PID.TID 0000.0001) %MON dynstat_vvel_min             =  -8.1582264573338E-04
(PID.TID 0000.0001) %MON dynstat_vvel_mean            =   1.8085832619254E-05
(PID.TID 0000.0001) %MON dynstat_vvel_sd              =   6.1104506241227E-05
(PID.TID 0000.0001) %MON dynstat_vvel_del2            =   4.6556435579816E-06
(PID.TID 0000.0001) %MON dynstat_wvel_max             =   5.7032528493723E-06
(PID.TID 0000.0001) %MON dynstat_wvel_min             =  -6.3022704735597E-06
(PID.TID 0000.0001) %MON dynstat_wvel_mean            =  -6.9929811250591E-09
(PID.TID 0000.0001) %MON dynstat_wvel_sd              =   6.7899747723929E-07
(PID.TID 0000.0001) %MON dynstat_wvel_del2            =   6.3635184821586E-08
(PID.TID 0000.0001) %MON dynstat_theta_max            =  -1.9000000000000E+00
(PID.TID 0000.0001) %MON dynstat_theta_min            =  -1.9401750844082E+00
(PID.TID 0000.0001) %MON dynstat_theta_mean           =  -1.9007944954851E+00
(PID.TID 0000.0001) %MON dynstat_theta_sd             =   3.5871525038312E-03
(PID.TID 0000.0001) %MON dynstat_theta_del2           =   1.6180242140978E-04
(PID.TID 0000.0001) %MON dynstat_salt_max             =   3.4400000000000E+01
(PID.TID 0000.0001) %MON dynstat_salt_min             =   3.4384034421456E+01
(PID.TID 0000.0001) %MON dynstat_salt_mean            =   3.4399684267487E+01
(PID.TID 0000.0001) %MON dynstat_salt_sd              =   1.4255344050226E-03
(PID.TID 0000.0001) %MON dynstat_salt_del2            =   6.4300282268296E-05
(PID.TID 0000.0001) %MON advcfl_uvel_max              =   3.0915648233161E-04
(PID.TID 0000.0001) %MON advcfl_vvel_max              =   1.6094153980724E-04
(PID.TID 0000.0001) %MON advcfl_wvel_max              =   3.7813622841358E-04
(PID.TID 0000.0001) %MON advcfl_W_hf_max              =   3.7813622841358E-04
(PID.TID 0000.0001) %MON pe_b_mean                    =   4.1685075734255E-07
(PID.TID 0000.0001) %MON ke_max                       =   3.2473856084379E-04
(PID.TID 0000.0001) %MON ke_mean                      =   1.5332192000246E-05
(PID.TID 0000.0001) %MON ke_vol                       =   4.9883516278638E+19
(PID.TID 0000.0001) %MON vort_r_min                   =  -2.1950756052224E-06
(PID.TID 0000.0001) %MON vort_r_max                   =   2.2809007918744E-06
(PID.TID 0000.0001) %MON vort_a_mean                  =  -1.4216547102744E-04
(PID.TID 0000.0001) %MON vort_a_sd                    =   8.1233477358719E-07
(PID.TID 0000.0001) %MON vort_p_mean                  =  -1.5366374234157E-04
(PID.TID 0000.0001) %MON vort_p_sd                    =   8.5865229084672E-05
(PID.TID 0000.0001) %MON surfExpan_theta_mean         =   1.0952212044963E-08
(PID.TID 0000.0001) %MON surfExpan_salt_mean          =  -1.9663942133123E-07
(PID.TID 0000.0001) // =======================================================
(PID.TID 0000.0001) // End MONITOR dynamic field statistics
(PID.TID 0000.0001) // =======================================================
 cg2d: Sum(rhs),rhsMax =   2.38846132018042E+01  1.32356285045358E-03
(PID.TID 0000.0001)                    cg2d_init_res =    6.49263821481737E+02
(PID.TID 0000.0001)                       cg2d_iters =   136
(PID.TID 0000.0001)                         cg2d_res =    8.76913603834449E-14
(PID.TID 0000.0001) // =======================================================
(PID.TID 0000.0001) // Begin MONITOR dynamic field statistics
(PID.TID 0000.0001) // =======================================================
(PID.TID 0000.0001) %MON time_tsnumber                =                    15
(PID.TID 0000.0001) %MON time_secondsf                =   2.7000000000000E+04
(PID.TID 0000.0001) %MON dynstat_eta_max              =   8.3896277531486E-03
(PID.TID 0000.0001) %MON dynstat_eta_min              =  -4.3560717102635E-04
(PID.TID 0000.0001) %MON dynstat_eta_mean             =  -7.3202961988848E-05
(PID.TID 0000.0001) %MON dynstat_eta_sd               =   1.3232198570137E-03
(PID.TID 0000.0001) %MON dynstat_eta_del2             =   9.4467724189400E-05
(PID.TID 0000.0001) %MON dynstat_uvel_max             =   2.9046941929037E-02
(PID.TID 0000.0001) %MON dynstat_uvel_min             =  -2.7458916315478E-02
(PID.TID 0000.0001) %MON dynstat_uvel_mean            =   1.1047007916807E-03
(PID.TID 0000.0001) %MON dynstat_uvel_sd              =   6.2747822936674E-03
(PID.TID 0000.0001) %MON dynstat_uvel_del2            =   2.7232497020602E-04
(PID.TID 0000.0001) %MON dynstat_vvel_max             =   1.0669239209355E-03
(PID.TID 0000.0001) %MON dynstat_vvel_min             =  -6.8504789415633E-04
(PID.TID 0000.0001) %MON dynstat_vvel_mean            =   1.9903122408507E-05
(PID.TID 0000.0001) %MON dynstat_vvel_sd              =   6.5954116621704E-05
(PID.TID 0000.0001) %MON dynstat_vvel_del2            =   4.7753213152235E-06
(PID.TID 0000.0001) %MON dynstat_wvel_max             =   6.3661775195235E-06
(PID.TID 0000.0001) %MON dynstat_wvel_min             =  -7.2388015536036E-06
(PID.TID 0000.0001) %MON dynstat_wvel_mean            =  -7.1534900563655E-09
(PID.TID 0000.0001) %MON dynstat_wvel_sd              =   8.4373797268720E-07
(PID.TID 0000.0001) %MON dynstat_wvel_del2            =   7.2712942137149E-08
(PID.TID 0000.0001) %MON dynstat_theta_max            =  -1.9000000000000E+00
(PID.TID 0000.0001) %MON dynstat_theta_min            =  -1.9429048467261E+00
(PID.TID 0000.0001) %MON dynstat_theta_mean           =  -1.9008491719982E+00
(PID.TID 0000.0001) %MON dynstat_theta_sd             =   3.8320661584505E-03
(PID.TID 0000.0001) %MON dynstat_theta_del2           =   1.7269024990965E-04
(PID.TID 0000.0001) %MON dynstat_salt_max             =   3.4400000000000E+01
(PID.TID 0000.0001) %MON dynstat_salt_min             =   3.4382949613911E+01
(PID.TID 0000.0001) %MON dynstat_salt_mean            =   3.4399662539040E+01
(PID.TID 0000.0001) %MON dynstat_salt_sd              =   1.5228630913682E-03
(PID.TID 0000.0001) %MON dynstat_salt_del2            =   6.8627105314138E-05
(PID.TID 0000.0001) %MON advcfl_uvel_max              =   3.4353129547308E-04
(PID.TID 0000.0001) %MON advcfl_vvel_max              =   1.7273850536276E-04
(PID.TID 0000.0001) %MON advcfl_wvel_max              =   4.3432809321621E-04
(PID.TID 0000.0001) %MON advcfl_W_hf_max              =   4.3432809321621E-04
(PID.TID 0000.0001) %MON pe_b_mean                    =   4.8858218724326E-07
(PID.TID 0000.0001) %MON ke_max                       =   4.2187185381041E-04
(PID.TID 0000.0001) %MON ke_mean                      =   1.9884762991066E-05
(PID.TID 0000.0001) %MON ke_vol                       =   4.9883516278638E+19
(PID.TID 0000.0001) %MON vort_r_min                   =  -2.4992041440936E-06
(PID.TID 0000.0001) %MON vort_r_max                   =   2.5997332623878E-06
(PID.TID 0000.0001) %MON vort_a_mean                  =  -1.4216729128673E-04
(PID.TID 0000.0001) %MON vort_a_sd                    =   8.4676759299631E-07
(PID.TID 0000.0001) %MON vort_p_mean                  =  -1.5366570982251E-04
(PID.TID 0000.0001) %MON vort_p_sd                    =   8.5842166441835E-05
(PID.TID 0000.0001) %MON surfExpan_theta_mean         =   1.1784695631444E-08
(PID.TID 0000.0001) %MON surfExpan_salt_mean          =  -2.1147722466663E-07
(PID.TID 0000.0001) // =======================================================
(PID.TID 0000.0001) // End MONITOR dynamic field statistics
(PID.TID 0000.0001) // =======================================================
 cg2d: Sum(rhs),rhsMax =   2.34193846653626E+01  1.51285957004222E-03
(PID.TID 0000.0001)                    cg2d_init_res =    6.30782448092362E+02
(PID.TID 0000.0001)                       cg2d_iters =   136
(PID.TID 0000.0001)                         cg2d_res =    9.25624096622728E-14
(PID.TID 0000.0001) // =======================================================
(PID.TID 0000.0001) // Begin MONITOR dynamic field statistics
(PID.TID 0000.0001) // =======================================================
(PID.TID 0000.0001) %MON time_tsnumber                =                    16
(PID.TID 0000.0001) %MON time_secondsf                =   2.8800000000000E+04
(PID.TID 0000.0001) %MON dynstat_eta_max              =   9.2870783532017E-03
(PID.TID 0000.0001) %MON dynstat_eta_min              =  -4.9027819756579E-04
(PID.TID 0000.0001) %MON dynstat_eta_mean             =  -8.5043280230779E-05
(PID.TID 0000.0001) %MON dynstat_eta_sd               =   1.4646483792548E-03
(PID.TID 0000.0001) %MON dynstat_eta_del2             =   1.0435324087674E-04
(PID.TID 0000.0001) %MON dynstat_uvel_max             =   3.2589719210092E-02
(PID.TID 0000.0001) %MON dynstat_uvel_min             =  -3.0688075299839E-02
(PID.TID 0000.0001) %MON dynstat_uvel_mean            =   1.2406258777060E-03
(PID.TID 0000.0001) %MON dynstat_uvel_sd              =   7.0357963045085E-03
(PID.TID 0000.0001) %MON dynstat_uvel_del2            =   3.0475341747436E-04
(PID.TID 0000.0001) %MON dynstat_vvel_max             =   1.1547066710240E-03
(PID.TID 0000.0001) %MON dynstat_vvel_min             =  -5.2422605195157E-04
(PID.TID 0000.0001) %MON dynstat_vvel_mean            =   2.1818393481018E-05
(PID.TID 0000.0001) %MON dynstat_vvel_sd              =   7.3148372348505E-05
(PID.TID 0000.0001) %MON dynstat_vvel_del2            =   4.8782177463981E-06
(PID.TID 0000.0001) %MON dynstat_wvel_max             =   6.9734010191097E-06
(PID.TID 0000.0001) %MON dynstat_wvel_min             =  -8.7296972348684E-06
(PID.TID 0000.0001) %MON dynstat_wvel_mean            =  -7.2574348821511E-09
(PID.TID 0000.0001) %MON dynstat_wvel_sd              =   1.0293913043616E-06
(PID.TID 0000.0001) %MON dynstat_wvel_del2            =   8.2478067709307E-08
(PID.TID 0000.0001) %MON dynstat_theta_max            =  -1.9000000000000E+00
(PID.TID 0000.0001) %MON dynstat_theta_min            =  -1.9456163993004E+00
(PID.TID 0000.0001) %MON dynstat_theta_mean           =  -1.9009035817419E+00
(PID.TID 0000.0001) %MON dynstat_theta_sd             =   4.0755319537300E-03
(PID.TID 0000.0001) %MON dynstat_theta_del2           =   1.8349312618364E-04
(PID.TID 0000.0001) %MON dynstat_salt_max             =   3.4400000000000E+01
(PID.TID 0000.0001) %MON dynstat_salt_min             =   3.4381872042918E+01
(PID.TID 0000.0001) %MON dynstat_salt_mean            =   3.4399640916607E+01
(PID.TID 0000.0001) %MON dynstat_salt_sd              =   1.6196163984127E-03
(PID.TID 0000.0001) %MON dynstat_salt_del2            =   7.2920168345443E-05
(PID.TID 0000.0001) %MON advcfl_uvel_max              =   3.7455440526911E-04
(PID.TID 0000.0001) %MON advcfl_vvel_max              =   1.8695082242622E-04
(PID.TID 0000.0001) %MON advcfl_wvel_max              =   5.2378183409211E-04
(PID.TID 0000.0001) %MON advcfl_W_hf_max              =   5.2378183409211E-04
(PID.TID 0000.0001) %MON pe_b_mean                    =   5.6552433440522E-07
(PID.TID 0000.0001) %MON ke_max                       =   5.3105942519962E-04
(PID.TID 0000.0001) %MON ke_mean                      =   2.5002836052075E-05
(PID.TID 0000.0001) %MON ke_vol                       =   4.9883516278638E+19
(PID.TID 0000.0001) %MON vort_r_min                   =  -2.8025964093084E-06
(PID.TID 0000.0001) %MON vort_r_max                   =   2.9168157270855E-06
(PID.TID 0000.0001) %MON vort_a_mean                  =  -1.4216910103309E-04
(PID.TID 0000.0001) %MON vort_a_sd                    =   8.8552884752194E-07
(PID.TID 0000.0001) %MON vort_p_mean                  =  -1.5366766594024E-04
(PID.TID 0000.0001) %MON vort_p_sd                    =   8.5819496271879E-05
(PID.TID 0000.0001) %MON surfExpan_theta_mean         =   1.2613612737363E-08
(PID.TID 0000.0001) %MON surfExpan_salt_mean          =  -2.2623573819496E-07
(PID.TID 0000.0001) // =======================================================
(PID.TID 0000.0001) // End MONITOR dynamic field statistics
(PID.TID 0000.0001) // =======================================================
 cg2d: Sum(rhs),rhsMax =   2.29454107659303E+01  1.72142645298913E-03
(PID.TID 0000.0001)                    cg2d_init_res =    6.13358525552613E+02
(PID.TID 0000.0001)                       cg2d_iters =   136
(PID.TID 0000.0001)                         cg2d_res =    9.72293605111334E-14
(PID.TID 0000.0001) // =======================================================
(PID.TID 0000.0001) // Begin MONITOR dynamic field statistics
(PID.TID 0000.0001) // =======================================================
(PID.TID 0000.0001) %MON time_tsnumber                =                    17
(PID.TID 0000.0001) %MON time_secondsf                =   3.0600000000000E+04
(PID.TID 0000.0001) %MON dynstat_eta_max              =   1.0244454413624E-02
(PID.TID 0000.0001) %MON dynstat_eta_min              =  -5.4895011213809E-04
(PID.TID 0000.0001) %MON dynstat_eta_mean             =  -9.7660883042240E-05
(PID.TID 0000.0001) %MON dynstat_eta_sd               =   1.6154333678841E-03
(PID.TID 0000.0001) %MON dynstat_eta_del2             =   1.1487224291463E-04
(PID.TID 0000.0001) %MON dynstat_uvel_max             =   3.6080319493660E-02
(PID.TID 0000.0001) %MON dynstat_uvel_min             =  -3.3863490885190E-02
(PID.TID 0000.0001) %MON dynstat_uvel_mean            =   1.3748631341879E-03
(PID.TID 0000.0001) %MON dynstat_uvel_sd              =   7.7868578002916E-03
(PID.TID 0000.0001) %MON dynstat_uvel_del2            =   3.3674817096854E-04
(PID.TID 0000.0001) %MON dynstat_vvel_max             =   1.2627849891649E-03
(PID.TID 0000.0001) %MON dynstat_vvel_min             =  -6.5012932745108E-04
(PID.TID 0000.0001) %MON dynstat_vvel_mean            =   2.3841048773346E-05
(PID.TID 0000.0001) %MON dynstat_vvel_sd              =   8.3047034532462E-05
(PID.TID 0000.0001) %MON dynstat_vvel_del2            =   5.0054024574559E-06
(PID.TID 0000.0001) %MON dynstat_wvel_max             =   7.5123982267583E-06
(PID.TID 0000.0001) %MON dynstat_wvel_min             =  -1.0425282508197E-05
(PID.TID 0000.0001) %MON dynstat_wvel_mean            =  -7.3257941353884E-09
(PID.TID 0000.0001) %MON dynstat_wvel_sd              =   1.2317593402360E-06
(PID.TID 0000.0001) %MON dynstat_wvel_del2            =   9.2931215547818E-08
(PID.TID 0000.0001) %MON dynstat_theta_max            =  -1.9000000000000E+00
(PID.TID 0000.0001) %MON dynstat_theta_min            =  -1.9483097510841E+00
(PID.TID 0000.0001) %MON dynstat_theta_mean           =  -1.9009577261621E+00
(PID.TID 0000.0001) %MON dynstat_theta_sd             =   4.3175592056967E-03
(PID.TID 0000.0001) %MON dynstat_theta_del2           =   1.9421173645331E-04
(PID.TID 0000.0001) %MON dynstat_salt_max             =   3.4400000000000E+01
(PID.TID 0000.0001) %MON dynstat_salt_min             =   3.4380801704919E+01
(PID.TID 0000.0001) %MON dynstat_salt_mean            =   3.4399619399615E+01
(PID.TID 0000.0001) %MON dynstat_salt_sd              =   1.7157980283445E-03
(PID.TID 0000.0001) %MON dynstat_salt_del2            =   7.7179744066599E-05
(PID.TID 0000.0001) %MON advcfl_uvel_max              =   4.0156363357938E-04
(PID.TID 0000.0001) %MON advcfl_vvel_max              =   2.0444905896534E-04
(PID.TID 0000.0001) %MON advcfl_wvel_max              =   6.2551695049184E-04
(PID.TID 0000.0001) %MON advcfl_W_hf_max              =   6.2551695049184E-04
(PID.TID 0000.0001) %MON pe_b_mean                    =   6.4777741813202E-07
(PID.TID 0000.0001) %MON ke_max                       =   6.5091610703547E-04
(PID.TID 0000.0001) %MON ke_mean                      =   3.0628368445054E-05
(PID.TID 0000.0001) %MON ke_vol                       =   4.9883516278638E+19
(PID.TID 0000.0001) %MON vort_r_min                   =  -3.1029865903742E-06
(PID.TID 0000.0001) %MON vort_r_max                   =   3.2292282930989E-06
(PID.TID 0000.0001) %MON vort_a_mean                  =  -1.4217088380239E-04
(PID.TID 0000.0001) %MON vort_a_sd                    =   9.2768180170627E-07
(PID.TID 0000.0001) %MON vort_p_mean                  =  -1.5366959289902E-04
(PID.TID 0000.0001) %MON vort_p_sd                    =   8.5797436496770E-05
(PID.TID 0000.0001) %MON surfExpan_theta_mean         =   1.3448437568415E-08
(PID.TID 0000.0001) %MON surfExpan_salt_mean          =  -2.4108480418424E-07
(PID.TID 0000.0001) // =======================================================
(PID.TID 0000.0001) // End MONITOR dynamic field statistics
(PID.TID 0000.0001) // =======================================================
 cg2d: Sum(rhs),rhsMax =   2.24770227442602E+01  1.94954991042089E-03
(PID.TID 0000.0001)                    cg2d_init_res =    5.97122284373381E+02
(PID.TID 0000.0001)                       cg2d_iters =   136
(PID.TID 0000.0001)                         cg2d_res =    9.60403257253317E-14
(PID.TID 0000.0001) // =======================================================
(PID.TID 0000.0001) // Begin MONITOR dynamic field statistics
(PID.TID 0000.0001) // =======================================================
(PID.TID 0000.0001) %MON time_tsnumber                =                    18
(PID.TID 0000.0001) %MON time_secondsf                =   3.2400000000000E+04
(PID.TID 0000.0001) %MON dynstat_eta_max              =   1.1261974184689E-02
(PID.TID 0000.0001) %MON dynstat_eta_min              =  -6.1162757106010E-04
(PID.TID 0000.0001) %MON dynstat_eta_mean             =  -1.1106336440981E-04
(PID.TID 0000.0001) %MON dynstat_eta_sd               =   1.7756041594452E-03
(PID.TID 0000.0001) %MON dynstat_eta_del2             =   1.2602705108241E-04
(PID.TID 0000.0001) %MON dynstat_uvel_max             =   3.9502075213700E-02
(PID.TID 0000.0001) %MON dynstat_uvel_min             =  -3.6978320671129E-02
(PID.TID 0000.0001) %MON dynstat_uvel_mean            =   1.5067616239365E-03
(PID.TID 0000.0001) %MON dynstat_uvel_sd              =   8.5250704339099E-03
(PID.TID 0000.0001) %MON dynstat_uvel_del2            =   3.6823093898630E-04
(PID.TID 0000.0001) %MON dynstat_vvel_max             =   1.3955337406837E-03
(PID.TID 0000.0001) %MON dynstat_vvel_min             =  -9.2390922907422E-04
(PID.TID 0000.0001) %MON dynstat_vvel_mean            =   2.5972913352197E-05
(PID.TID 0000.0001) %MON dynstat_vvel_sd              =   9.5549249609100E-05
(PID.TID 0000.0001) %MON dynstat_vvel_del2            =   5.2147460300882E-06
(PID.TID 0000.0001) %MON dynstat_wvel_max             =   8.4338570293843E-06
(PID.TID 0000.0001) %MON dynstat_wvel_min             =  -1.2318249298639E-05
(PID.TID 0000.0001) %MON dynstat_wvel_mean            =  -7.3780522763055E-09
(PID.TID 0000.0001) %MON dynstat_wvel_sd              =   1.4456009791385E-06
(PID.TID 0000.0001) %MON dynstat_wvel_del2            =   1.0404607800696E-07
(PID.TID 0000.0001) %MON dynstat_theta_max            =  -1.9000000000000E+00
(PID.TID 0000.0001) %MON dynstat_theta_min            =  -1.9509849175625E+00
(PID.TID 0000.0001) %MON dynstat_theta_mean           =  -1.9010116066982E+00
(PID.TID 0000.0001) %MON dynstat_theta_sd             =   4.5581571663208E-03
(PID.TID 0000.0001) %MON dynstat_theta_del2           =   2.0484674328389E-04
(PID.TID 0000.0001) %MON dynstat_salt_max             =   3.4400000000000E+01
(PID.TID 0000.0001) %MON dynstat_salt_min             =   3.4379738593761E+01
(PID.TID 0000.0001) %MON dynstat_salt_mean            =   3.4399597987490E+01
(PID.TID 0000.0001) %MON dynstat_salt_sd              =   1.8114116578959E-03
(PID.TID 0000.0001) %MON dynstat_salt_del2            =   8.1406095781062E-05
(PID.TID 0000.0001) %MON advcfl_uvel_max              =   4.2416850948889E-04
(PID.TID 0000.0001) %MON advcfl_vvel_max              =   2.2594152012042E-04
(PID.TID 0000.0001) %MON advcfl_wvel_max              =   7.3909495791832E-04
(PID.TID 0000.0001) %MON advcfl_W_hf_max              =   7.3909495791832E-04
(PID.TID 0000.0001) %MON pe_b_mean                    =   7.3546421621243E-07
(PID.TID 0000.0001) %MON ke_max                       =   7.8023714723623E-04
(PID.TID 0000.0001) %MON ke_mean                      =   3.6713646619796E-05
(PID.TID 0000.0001) %MON ke_vol                       =   4.9883516278638E+19
(PID.TID 0000.0001) %MON vort_r_min                   =  -3.3994164111659E-06
(PID.TID 0000.0001) %MON vort_r_max                   =   3.5354791949283E-06
(PID.TID 0000.0001) %MON vort_a_mean                  =  -1.4217263134325E-04
(PID.TID 0000.0001) %MON vort_a_sd                    =   9.7246901889247E-07
(PID.TID 0000.0001) %MON vort_p_mean                  =  -1.5367148178010E-04
(PID.TID 0000.0001) %MON vort_p_sd                    =   8.5776092607287E-05
(PID.TID 0000.0001) %MON surfExpan_theta_mean         =   1.4292222787010E-08
(PID.TID 0000.0001) %MON surfExpan_salt_mean          =  -2.5607862434540E-07
(PID.TID 0000.0001) // =======================================================
(PID.TID 0000.0001) // End MONITOR dynamic field statistics
(PID.TID 0000.0001) // =======================================================
 cg2d: Sum(rhs),rhsMax =   2.20233096711038E+01  2.19742158428684E-03
(PID.TID 0000.0001)                    cg2d_init_res =    5.82099646633659E+02
(PID.TID 0000.0001)                       cg2d_iters =   136
(PID.TID 0000.0001)                         cg2d_res =    8.94155467434959E-14
(PID.TID 0000.0001) // =======================================================
(PID.TID 0000.0001) // Begin MONITOR dynamic field statistics
(PID.TID 0000.0001) // =======================================================
(PID.TID 0000.0001) %MON time_tsnumber                =                    19
(PID.TID 0000.0001) %MON time_secondsf                =   3.4200000000000E+04
(PID.TID 0000.0001) %MON dynstat_eta_max              =   1.2339677839257E-02
(PID.TID 0000.0001) %MON dynstat_eta_min              =  -6.7830104589603E-04
(PID.TID 0000.0001) %MON dynstat_eta_mean             =  -1.2525449520807E-04
(PID.TID 0000.0001) %MON dynstat_eta_sd               =   1.9451600391744E-03
(PID.TID 0000.0001) %MON dynstat_eta_del2             =   1.3781763427929E-04
(PID.TID 0000.0001) %MON dynstat_uvel_max             =   4.2855263886890E-02
(PID.TID 0000.0001) %MON dynstat_uvel_min             =  -4.0041600233426E-02
(PID.TID 0000.0001) %MON dynstat_uvel_mean            =   1.6362983366423E-03
(PID.TID 0000.0001) %MON dynstat_uvel_sd              =   9.2510854859283E-03
(PID.TID 0000.0001) %MON dynstat_uvel_del2            =   3.9927353095207E-04
(PID.TID 0000.0001) %MON dynstat_vvel_max             =   1.5560227375640E-03
(PID.TID 0000.0001) %MON dynstat_vvel_min             =  -1.2567902503002E-03
(PID.TID 0000.0001) %MON dynstat_vvel_mean            =   2.8207592521432E-05
(PID.TID 0000.0001) %MON dynstat_vvel_sd              =   1.1023184880621E-04
(PID.TID 0000.0001) %MON dynstat_vvel_del2            =   5.5232598752177E-06
(PID.TID 0000.0001) %MON dynstat_wvel_max             =   9.8489006651502E-06
(PID.TID 0000.0001) %MON dynstat_wvel_min             =  -1.4252661020147E-05
(PID.TID 0000.0001) %MON dynstat_wvel_mean            =  -7.4310390590183E-09
(PID.TID 0000.0001) %MON dynstat_wvel_sd              =   1.6650040089262E-06
(PID.TID 0000.0001) %MON dynstat_wvel_del2            =   1.1550198487300E-07
(PID.TID 0000.0001) %MON dynstat_theta_max            =  -1.9000000000000E+00
(PID.TID 0000.0001) %MON dynstat_theta_min            =  -1.9536419274084E+00
(PID.TID 0000.0001) %MON dynstat_theta_mean           =  -1.9010652247849E+00
(PID.TID 0000.0001) %MON dynstat_theta_sd             =   4.7973350237462E-03
(PID.TID 0000.0001) %MON dynstat_theta_del2           =   2.1539879139688E-04
(PID.TID 0000.0001) %MON dynstat_salt_max             =   3.4400000000000E+01
(PID.TID 0000.0001) %MON dynstat_salt_min             =   3.4378682698048E+01
(PID.TID 0000.0001) %MON dynstat_salt_mean            =   3.4399576679662E+01
(PID.TID 0000.0001) %MON dynstat_salt_sd              =   1.9064609384369E-03
(PID.TID 0000.0001) %MON dynstat_salt_del2            =   8.5599479701157E-05
(PID.TID 0000.0001) %MON advcfl_uvel_max              =   4.4227213330463E-04
(PID.TID 0000.0001) %MON advcfl_vvel_max              =   2.5192521858691E-04
(PID.TID 0000.0001) %MON advcfl_wvel_max              =   8.5515966120883E-04
(PID.TID 0000.0001) %MON advcfl_W_hf_max              =   8.5515966120883E-04
(PID.TID 0000.0001) %MON pe_b_mean                    =   8.2868947766243E-07
(PID.TID 0000.0001) %MON ke_max                       =   9.1832777662003E-04
(PID.TID 0000.0001) %MON ke_mean                      =   4.3235806434639E-05
(PID.TID 0000.0001) %MON ke_vol                       =   4.9883516278638E+19
(PID.TID 0000.0001) %MON vort_r_min                   =  -3.6922694088334E-06
(PID.TID 0000.0001) %MON vort_r_max                   =   3.8355932706218E-06
(PID.TID 0000.0001) %MON vort_a_mean                  =  -1.4217434407779E-04
(PID.TID 0000.0001) %MON vort_a_sd                    =   1.0194147244140E-06
(PID.TID 0000.0001) %MON vort_p_mean                  =  -1.5367333303974E-04
(PID.TID 0000.0001) %MON vort_p_sd                    =   8.5755454478022E-05
(PID.TID 0000.0001) %MON surfExpan_theta_mean         =   1.5140912081122E-08
(PID.TID 0000.0001) %MON surfExpan_salt_mean          =  -2.7114414302822E-07
(PID.TID 0000.0001) // =======================================================
(PID.TID 0000.0001) // End MONITOR dynamic field statistics
(PID.TID 0000.0001) // =======================================================
 cg2d: Sum(rhs),rhsMax =   2.15889374057804E+01  2.46523373351025E-03
(PID.TID 0000.0001)                    cg2d_init_res =    5.68244315268524E+02
(PID.TID 0000.0001)                       cg2d_iters =   135
(PID.TID 0000.0001)                         cg2d_res =    9.97092397694571E-14
(PID.TID 0000.0001) // =======================================================
(PID.TID 0000.0001) // Begin MONITOR dynamic field statistics
(PID.TID 0000.0001) // =======================================================
(PID.TID 0000.0001) %MON time_tsnumber                =                    20
(PID.TID 0000.0001) %MON time_secondsf                =   3.6000000000000E+04
(PID.TID 0000.0001) %MON dynstat_eta_max              =   1.3477754413578E-02
(PID.TID 0000.0001) %MON dynstat_eta_min              =  -7.4895861166811E-04
(PID.TID 0000.0001) %MON dynstat_eta_mean             =  -1.4022745992954E-04
(PID.TID 0000.0001) %MON dynstat_eta_sd               =   2.1241199685976E-03
(PID.TID 0000.0001) %MON dynstat_eta_del2             =   1.5024506172496E-04
(PID.TID 0000.0001) %MON dynstat_uvel_max             =   4.6156998479527E-02
(PID.TID 0000.0001) %MON dynstat_uvel_min             =  -4.3077308452800E-02
(PID.TID 0000.0001) %MON dynstat_uvel_mean            =   1.7640752320133E-03
(PID.TID 0000.0001) %MON dynstat_uvel_sd              =   9.9690086337802E-03
(PID.TID 0000.0001) %MON dynstat_uvel_del2            =   4.3012912790841E-04
(PID.TID 0000.0001) %MON dynstat_vvel_max             =   1.7459095617024E-03
(PID.TID 0000.0001) %MON dynstat_vvel_min             =  -1.6482762094985E-03
(PID.TID 0000.0001) %MON dynstat_vvel_mean            =   3.0531194688198E-05
(PID.TID 0000.0001) %MON dynstat_vvel_sd              =   1.2653126695295E-04
(PID.TID 0000.0001) %MON dynstat_vvel_del2            =   5.9946963602313E-06
(PID.TID 0000.0001) %MON dynstat_wvel_max             =   1.1273420724564E-05
(PID.TID 0000.0001) %MON dynstat_wvel_min             =  -1.6175805003176E-05
(PID.TID 0000.0001) %MON dynstat_wvel_mean            =  -7.4976288165227E-09
(PID.TID 0000.0001) %MON dynstat_wvel_sd              =   1.8838042801061E-06
(PID.TID 0000.0001) %MON dynstat_wvel_del2            =   1.2697176266491E-07
(PID.TID 0000.0001) %MON dynstat_theta_max            =  -1.8999999937990E+00
(PID.TID 0000.0001) %MON dynstat_theta_min            =  -1.9562808280650E+00
(PID.TID 0000.0001) %MON dynstat_theta_mean           =  -1.9011185818539E+00
(PID.TID 0000.0001) %MON dynstat_theta_sd             =   5.0351019017110E-03
(PID.TID 0000.0001) %MON dynstat_theta_del2           =   2.2586850163227E-04
(PID.TID 0000.0001) %MON dynstat_salt_max             =   3.4400000002464E+01
(PID.TID 0000.0001) %MON dynstat_salt_min             =   3.4377633998927E+01
(PID.TID 0000.0001) %MON dynstat_salt_mean            =   3.4399555475564E+01
(PID.TID 0000.0001) %MON dynstat_salt_sd              =   2.0009494957404E-03
(PID.TID 0000.0001) %MON dynstat_salt_del2            =   8.9760142548710E-05
(PID.TID 0000.0001) %MON advcfl_uvel_max              =   4.5607293531124E-04
(PID.TID 0000.0001) %MON advcfl_vvel_max              =   2.8266852234654E-04
(PID.TID 0000.0001) %MON advcfl_wvel_max              =   9.7054830019058E-04
(PID.TID 0000.0001) %MON advcfl_W_hf_max              =   9.7054830019058E-04
(PID.TID 0000.0001) %MON pe_b_mean                    =   9.2749940235982E-07
(PID.TID 0000.0001) %MON ke_max                       =   1.0652878642063E-03
(PID.TID 0000.0001) %MON ke_mean                      =   5.0209075671490E-05
(PID.TID 0000.0001) %MON ke_vol                       =   4.9883516278638E+19
(PID.TID 0000.0001) %MON vort_r_min                   =  -3.9832192265839E-06
(PID.TID 0000.0001) %MON vort_r_max                   =   4.1311021494918E-06
(PID.TID 0000.0001) %MON vort_a_mean                  =  -1.4217603099385E-04
(PID.TID 0000.0001) %MON vort_a_sd                    =   1.0683706532184E-06
(PID.TID 0000.0001) %MON vort_p_mean                  =  -1.5367515639272E-04
(PID.TID 0000.0001) %MON vort_p_sd                    =   8.5735400721632E-05
(PID.TID 0000.0001) %MON surfExpan_theta_mean         =   1.5983205844855E-08
(PID.TID 0000.0001) %MON surfExpan_salt_mean          =  -2.8607909242013E-07
(PID.TID 0000.0001) // =======================================================
(PID.TID 0000.0001) // End MONITOR dynamic field statistics
(PID.TID 0000.0001) // =======================================================
(PID.TID 0000.0001) %CHECKPOINT        20 ckptA
(PID.TID 0000.0001)   Seconds in section "ALL                    [THE_MODEL_MAIN]":
(PID.TID 0000.0001)           User time:  47.032851
(PID.TID 0000.0001)         System time:  0.603908989
(PID.TID 0000.0001)     Wall clock time:  47.6644311
(PID.TID 0000.0001)          No. starts: 1
(PID.TID 0000.0001)           No. stops: 1
(PID.TID 0000.0001)   Seconds in section "INITIALISE_FIXED       [THE_MODEL_MAIN]":
(PID.TID 0000.0001)           User time:  1.77373003
(PID.TID 0000.0001)         System time:  0.164975006
(PID.TID 0000.0001)     Wall clock time:  1.9385469
(PID.TID 0000.0001)          No. starts: 1
(PID.TID 0000.0001)           No. stops: 1
(PID.TID 0000.0001)   Seconds in section "THE_MAIN_LOOP          [THE_MODEL_MAIN]":
(PID.TID 0000.0001)           User time:  44.4652405
(PID.TID 0000.0001)         System time:  0.13997899
(PID.TID 0000.0001)     Wall clock time:  44.6198881
(PID.TID 0000.0001)          No. starts: 1
(PID.TID 0000.0001)           No. stops: 1
(PID.TID 0000.0001)   Seconds in section "INITIALISE_VARIA    [THE_MAIN_LOOP]":
(PID.TID 0000.0001)           User time:  0.445931911
(PID.TID 0000.0001)         System time:  0.0529920012
(PID.TID 0000.0001)     Wall clock time:  0.498687029
(PID.TID 0000.0001)          No. starts: 1
(PID.TID 0000.0001)           No. stops: 1
(PID.TID 0000.0001)   Seconds in section "MAIN LOOP           [THE_MAIN_LOOP]":
(PID.TID 0000.0001)           User time:  43.4763906
(PID.TID 0000.0001)         System time:  0.0399940014
(PID.TID 0000.0001)     Wall clock time:  43.5308421
(PID.TID 0000.0001)          No. starts: 1
(PID.TID 0000.0001)           No. stops: 1
(PID.TID 0000.0001)   Seconds in section "FORWARD_STEP        [THE_MAIN_LOOP]":
(PID.TID 0000.0001)           User time:  43.4763906
(PID.TID 0000.0001)         System time:  0.0399940014
(PID.TID 0000.0001)     Wall clock time:  43.5301237
(PID.TID 0000.0001)          No. starts: 20
(PID.TID 0000.0001)           No. stops: 20
(PID.TID 0000.0001)   Seconds in section "LOAD_FIELDS_DRIVER  [FORWARD_STEP]":
(PID.TID 0000.0001)           User time:  0.00300168991
(PID.TID 0000.0001)         System time:  0.
(PID.TID 0000.0001)     Wall clock time:  0.00209021568
(PID.TID 0000.0001)          No. starts: 20
(PID.TID 0000.0001)           No. stops: 20
(PID.TID 0000.0001)   Seconds in section "EXTERNAL_FLDS_LOAD [LOAD_FLDS_DRIVER]":
(PID.TID 0000.0001)           User time:  0.
(PID.TID 0000.0001)         System time:  0.
(PID.TID 0000.0001)     Wall clock time:  0.000679731369
(PID.TID 0000.0001)          No. starts: 20
(PID.TID 0000.0001)           No. stops: 20
(PID.TID 0000.0001)   Seconds in section "DO_ATMOSPHERIC_PHYS [FORWARD_STEP]":
(PID.TID 0000.0001)           User time:  0.
(PID.TID 0000.0001)         System time:  0.
(PID.TID 0000.0001)     Wall clock time:  0.000672578812
(PID.TID 0000.0001)          No. starts: 20
(PID.TID 0000.0001)           No. stops: 20
(PID.TID 0000.0001)   Seconds in section "DO_OCEANIC_PHYS     [FORWARD_STEP]":
(PID.TID 0000.0001)           User time:  0.259958506
(PID.TID 0000.0001)         System time:  0.00299999118
(PID.TID 0000.0001)     Wall clock time:  0.264240742
(PID.TID 0000.0001)          No. starts: 20
(PID.TID 0000.0001)           No. stops: 20
(PID.TID 0000.0001)   Seconds in section "SHELFICE_THERMODYNAMICS [DO_OCEANIC_PHYS]":
(PID.TID 0000.0001)           User time:  0.049990654
(PID.TID 0000.0001)         System time:  0.
(PID.TID 0000.0001)     Wall clock time:  0.0505480766
(PID.TID 0000.0001)          No. starts: 20
(PID.TID 0000.0001)           No. stops: 20
(PID.TID 0000.0001)   Seconds in section "THERMODYNAMICS      [FORWARD_STEP]":
(PID.TID 0000.0001)           User time:  6.69097996
(PID.TID 0000.0001)         System time:  0.00299802423
(PID.TID 0000.0001)     Wall clock time:  6.69815254
(PID.TID 0000.0001)          No. starts: 20
(PID.TID 0000.0001)           No. stops: 20
(PID.TID 0000.0001)   Seconds in section "DYNAMICS            [FORWARD_STEP]":
(PID.TID 0000.0001)           User time:  17.8972843
(PID.TID 0000.0001)         System time:  0.00499999523
(PID.TID 0000.0001)     Wall clock time:  17.9087546
(PID.TID 0000.0001)          No. starts: 20
(PID.TID 0000.0001)           No. stops: 20
(PID.TID 0000.0001)   Seconds in section "SOLVE_FOR_PRESSURE  [FORWARD_STEP]":
(PID.TID 0000.0001)           User time:  6.70597982
(PID.TID 0000.0001)         System time:  0.00299999118
(PID.TID 0000.0001)     Wall clock time:  6.7119329
(PID.TID 0000.0001)          No. starts: 20
(PID.TID 0000.0001)           No. stops: 20
(PID.TID 0000.0001)   Seconds in section "MOM_CORRECTION_STEP [FORWARD_STEP]":
(PID.TID 0000.0001)           User time:  1.34079647
(PID.TID 0000.0001)         System time:  0.
(PID.TID 0000.0001)     Wall clock time:  1.34203434
(PID.TID 0000.0001)          No. starts: 20
(PID.TID 0000.0001)           No. stops: 20
(PID.TID 0000.0001)   Seconds in section "UPDATE_ETAH         [FORWARD_STEP]":
(PID.TID 0000.0001)           User time:  0.0030002594
(PID.TID 0000.0001)         System time:  0.
(PID.TID 0000.0001)     Wall clock time:  0.00557017326
(PID.TID 0000.0001)          No. starts: 20
(PID.TID 0000.0001)           No. stops: 20
(PID.TID 0000.0001)   Seconds in section "TRC_CORRECTION_STEP [FORWARD_STEP]":
(PID.TID 0000.0001)           User time:  4.09537268
(PID.TID 0000.0001)         System time:  0.00499901175
(PID.TID 0000.0001)     Wall clock time:  4.10022378
(PID.TID 0000.0001)          No. starts: 20
(PID.TID 0000.0001)           No. stops: 20
(PID.TID 0000.0001)   Seconds in section "BLOCKING_EXCHANGES  [FORWARD_STEP]":
(PID.TID 0000.0001)           User time:  0.502928257
(PID.TID 0000.0001)         System time:  0.
(PID.TID 0000.0001)     Wall clock time:  0.504042864
(PID.TID 0000.0001)          No. starts: 20
(PID.TID 0000.0001)           No. stops: 20
(PID.TID 0000.0001)   Seconds in section "DO_STATEVARS_TAVE   [FORWARD_STEP]":
(PID.TID 0000.0001)           User time:  0.000999450684
(PID.TID 0000.0001)         System time:  0.
(PID.TID 0000.0001)     Wall clock time:  0.000702857971
(PID.TID 0000.0001)          No. starts: 20
(PID.TID 0000.0001)           No. stops: 20
(PID.TID 0000.0001)   Seconds in section "MONITOR             [FORWARD_STEP]":
(PID.TID 0000.0001)           User time:  5.62814283
(PID.TID 0000.0001)         System time:  0.00200000405
(PID.TID 0000.0001)     Wall clock time:  5.63075161
(PID.TID 0000.0001)          No. starts: 20
(PID.TID 0000.0001)           No. stops: 20
(PID.TID 0000.0001)   Seconds in section "DO_THE_MODEL_IO     [FORWARD_STEP]":
(PID.TID 0000.0001)           User time:  0.330947876
(PID.TID 0000.0001)         System time:  0.0179969966
(PID.TID 0000.0001)     Wall clock time:  0.349585056
(PID.TID 0000.0001)          No. starts: 20
(PID.TID 0000.0001)           No. stops: 20
(PID.TID 0000.0001)   Seconds in section "DO_WRITE_PICKUP     [FORWARD_STEP]":
(PID.TID 0000.0001)           User time:  0.
(PID.TID 0000.0001)         System time:  0.
(PID.TID 0000.0001)     Wall clock time:  0.000690460205
(PID.TID 0000.0001)          No. starts: 20
(PID.TID 0000.0001)           No. stops: 20
(PID.TID 0000.0001)   Seconds in section "DO_WRITE_PICKUP        [THE_MODEL_MAIN]":
(PID.TID 0000.0001)           User time:  0.793880463
(PID.TID 0000.0001)         System time:  0.298954993
(PID.TID 0000.0001)     Wall clock time:  1.10583997
(PID.TID 0000.0001)          No. starts: 1
(PID.TID 0000.0001)           No. stops: 1
(PID.TID 0000.0001) // ======================================================
(PID.TID 0000.0001) // Tile <-> Tile communication statistics
(PID.TID 0000.0001) // ======================================================
(PID.TID 0000.0001) // o Tile number: 000001
(PID.TID 0000.0001) //         No. X exchanges =              0
(PID.TID 0000.0001) //            Max. X spins =              0
(PID.TID 0000.0001) //            Min. X spins =     1000000000
(PID.TID 0000.0001) //          Total. X spins =              0
(PID.TID 0000.0001) //            Avg. X spins =       0.00E+00
(PID.TID 0000.0001) //         No. Y exchanges =              0
(PID.TID 0000.0001) //            Max. Y spins =              0
(PID.TID 0000.0001) //            Min. Y spins =     1000000000
(PID.TID 0000.0001) //          Total. Y spins =              0
(PID.TID 0000.0001) //            Avg. Y spins =       0.00E+00
(PID.TID 0000.0001) // o Tile number: 000002
(PID.TID 0000.0001) //         No. X exchanges =              0
(PID.TID 0000.0001) //            Max. X spins =              0
(PID.TID 0000.0001) //            Min. X spins =     1000000000
(PID.TID 0000.0001) //          Total. X spins =              0
(PID.TID 0000.0001) //            Avg. X spins =       0.00E+00
(PID.TID 0000.0001) //         No. Y exchanges =              0
(PID.TID 0000.0001) //            Max. Y spins =              0
(PID.TID 0000.0001) //            Min. Y spins =     1000000000
(PID.TID 0000.0001) //          Total. Y spins =              0
(PID.TID 0000.0001) //            Avg. Y spins =       0.00E+00
(PID.TID 0000.0001) // o Thread number: 000001
(PID.TID 0000.0001) //            No. barriers =          39726
(PID.TID 0000.0001) //      Max. barrier spins =              1
(PID.TID 0000.0001) //      Min. barrier spins =              1
(PID.TID 0000.0001) //     Total barrier spins =          39726
(PID.TID 0000.0001) //      Avg. barrier spins =       1.00E+00
