(PID.TID 0000.0001) 
(PID.TID 0000.0001) // ======================================================
(PID.TID 0000.0001) //                      MITgcm UV
(PID.TID 0000.0001) //                      =========
(PID.TID 0000.0001) // ======================================================
(PID.TID 0000.0001) // execution environment starting up...
(PID.TID 0000.0001) 
(PID.TID 0000.0001) // MITgcmUV version:  checkpoint66f
(PID.TID 0000.0001) // Build user:        jmc
(PID.TID 0000.0001) // Build host:        baudelaire
(PID.TID 0000.0001) // Build date:        Tue Apr 11 13:31:43 EDT 2017
(PID.TID 0000.0001) 
(PID.TID 0000.0001) // =======================================================
(PID.TID 0000.0001) // Execution Environment parameter file "eedata"
(PID.TID 0000.0001) // =======================================================
(PID.TID 0000.0001) ># Example "eedata" file
(PID.TID 0000.0001) ># Lines beginning "#" are comments
(PID.TID 0000.0001) ># nTx - No. threads per process in X
(PID.TID 0000.0001) ># nTy - No. threads per process in Y
(PID.TID 0000.0001) > &EEPARMS
(PID.TID 0000.0001) > /
(PID.TID 0000.0001) ># Note: Some systems use & as the
(PID.TID 0000.0001) ># namelist terminator. Other systems
(PID.TID 0000.0001) ># use a / character (as shown here).
(PID.TID 0000.0001) 
(PID.TID 0000.0001) // =======================================================
(PID.TID 0000.0001) // Computational Grid Specification ( see files "SIZE.h" )
(PID.TID 0000.0001) //                                  ( and "eedata"       )
(PID.TID 0000.0001) // =======================================================
(PID.TID 0000.0001)      nPx =    1 ; /* No. processes in X */
(PID.TID 0000.0001)      nPy =    1 ; /* No. processes in Y */
(PID.TID 0000.0001)      nSx =    2 ; /* No. tiles in X per process */
(PID.TID 0000.0001)      nSy =    4 ; /* No. tiles in Y per process */
(PID.TID 0000.0001)      sNx =   25 ; /* Tile size in X */
(PID.TID 0000.0001)      sNy =   25 ; /* Tile size in Y */
(PID.TID 0000.0001)      OLx =    3 ; /* Tile overlap distance in X */
(PID.TID 0000.0001)      OLy =    3 ; /* Tile overlap distance in Y */
(PID.TID 0000.0001)      nTx =    1 ; /* No. threads in X per process */
(PID.TID 0000.0001)      nTy =    1 ; /* No. threads in Y per process */
(PID.TID 0000.0001)       Nr =   30 ; /* No. levels in the vertical   */
(PID.TID 0000.0001)       Nx =   50 ; /* Total domain size in X ( = nPx*nSx*sNx ) */
(PID.TID 0000.0001)       Ny =  100 ; /* Total domain size in Y ( = nPy*nSy*sNy ) */
(PID.TID 0000.0001)   nTiles =    8 ; /* Total no. tiles per process ( = nSx*nSy ) */
(PID.TID 0000.0001)   nProcs =    1 ; /* Total no. processes ( = nPx*nPy ) */
(PID.TID 0000.0001) nThreads =    1 ; /* Total no. threads per process ( = nTx*nTy ) */
(PID.TID 0000.0001) usingMPI =    F ; /* Flag used to control whether MPI is in use */
(PID.TID 0000.0001)                   /*  note: To execute a program with MPI calls */
(PID.TID 0000.0001)                   /*  it must be launched appropriately e.g     */
(PID.TID 0000.0001)                   /*  "mpirun -np 64 ......"                    */
(PID.TID 0000.0001) useCoupler=    F ;/* Flag used to control communications with   */
(PID.TID 0000.0001)                   /*  other model components, through a coupler */
(PID.TID 0000.0001) debugMode =    F ; /* print debug msg. (sequence of S/R calls)  */
(PID.TID 0000.0001) printMapIncludesZeros=    F ; /* print zeros in Std.Output maps */
(PID.TID 0000.0001) maxLengthPrt1D=   65 /* maxLength of 1D array printed to StdOut */
(PID.TID 0000.0001) 
(PID.TID 0000.0001) // ======================================================
(PID.TID 0000.0001) // Mapping of tiles to threads
(PID.TID 0000.0001) // ======================================================
(PID.TID 0000.0001) // -o- Thread   1, tiles (   1:   2,   1:   4)
(PID.TID 0000.0001) 
(PID.TID 0000.0001) // ======================================================
(PID.TID 0000.0001) // Tile <-> Tile connectvity table
(PID.TID 0000.0001) // ======================================================
(PID.TID 0000.0001) // Tile number: 000001 (process no. = 000000)
(PID.TID 0000.0001) //        WEST: Tile = 000002, Process = 000000, Comm = put
(PID.TID 0000.0001) //                bi = 000002, bj = 000001
(PID.TID 0000.0001) //        EAST: Tile = 000002, Process = 000000, Comm = put
(PID.TID 0000.0001) //                bi = 000002, bj = 000001
(PID.TID 0000.0001) //       SOUTH: Tile = 000007, Process = 000000, Comm = put
(PID.TID 0000.0001) //                bi = 000001, bj = 000004
(PID.TID 0000.0001) //       NORTH: Tile = 000003, Process = 000000, Comm = put
(PID.TID 0000.0001) //                bi = 000001, bj = 000002
(PID.TID 0000.0001) // Tile number: 000002 (process no. = 000000)
(PID.TID 0000.0001) //        WEST: Tile = 000001, Process = 000000, Comm = put
(PID.TID 0000.0001) //                bi = 000001, bj = 000001
(PID.TID 0000.0001) //        EAST: Tile = 000001, Process = 000000, Comm = put
(PID.TID 0000.0001) //                bi = 000001, bj = 000001
(PID.TID 0000.0001) //       SOUTH: Tile = 000008, Process = 000000, Comm = put
(PID.TID 0000.0001) //                bi = 000002, bj = 000004
(PID.TID 0000.0001) //       NORTH: Tile = 000004, Process = 000000, Comm = put
(PID.TID 0000.0001) //                bi = 000002, bj = 000002
(PID.TID 0000.0001) // Tile number: 000003 (process no. = 000000)
(PID.TID 0000.0001) //        WEST: Tile = 000004, Process = 000000, Comm = put
(PID.TID 0000.0001) //                bi = 000002, bj = 000002
(PID.TID 0000.0001) //        EAST: Tile = 000004, Process = 000000, Comm = put
(PID.TID 0000.0001) //                bi = 000002, bj = 000002
(PID.TID 0000.0001) //       SOUTH: Tile = 000001, Process = 000000, Comm = put
(PID.TID 0000.0001) //                bi = 000001, bj = 000001
(PID.TID 0000.0001) //       NORTH: Tile = 000005, Process = 000000, Comm = put
(PID.TID 0000.0001) //                bi = 000001, bj = 000003
(PID.TID 0000.0001) // Tile number: 000004 (process no. = 000000)
(PID.TID 0000.0001) //        WEST: Tile = 000003, Process = 000000, Comm = put
(PID.TID 0000.0001) //                bi = 000001, bj = 000002
(PID.TID 0000.0001) //        EAST: Tile = 000003, Process = 000000, Comm = put
(PID.TID 0000.0001) //                bi = 000001, bj = 000002
(PID.TID 0000.0001) //       SOUTH: Tile = 000002, Process = 000000, Comm = put
(PID.TID 0000.0001) //                bi = 000002, bj = 000001
(PID.TID 0000.0001) //       NORTH: Tile = 000006, Process = 000000, Comm = put
(PID.TID 0000.0001) //                bi = 000002, bj = 000003
(PID.TID 0000.0001) // Tile number: 000005 (process no. = 000000)
(PID.TID 0000.0001) //        WEST: Tile = 000006, Process = 000000, Comm = put
(PID.TID 0000.0001) //                bi = 000002, bj = 000003
(PID.TID 0000.0001) //        EAST: Tile = 000006, Process = 000000, Comm = put
(PID.TID 0000.0001) //                bi = 000002, bj = 000003
(PID.TID 0000.0001) //       SOUTH: Tile = 000003, Process = 000000, Comm = put
(PID.TID 0000.0001) //                bi = 000001, bj = 000002
(PID.TID 0000.0001) //       NORTH: Tile = 000007, Process = 000000, Comm = put
(PID.TID 0000.0001) //                bi = 000001, bj = 000004
(PID.TID 0000.0001) // Tile number: 000006 (process no. = 000000)
(PID.TID 0000.0001) //        WEST: Tile = 000005, Process = 000000, Comm = put
(PID.TID 0000.0001) //                bi = 000001, bj = 000003
(PID.TID 0000.0001) //        EAST: Tile = 000005, Process = 000000, Comm = put
(PID.TID 0000.0001) //                bi = 000001, bj = 000003
(PID.TID 0000.0001) //       SOUTH: Tile = 000004, Process = 000000, Comm = put
(PID.TID 0000.0001) //                bi = 000002, bj = 000002
(PID.TID 0000.0001) //       NORTH: Tile = 000008, Process = 000000, Comm = put
(PID.TID 0000.0001) //                bi = 000002, bj = 000004
(PID.TID 0000.0001) // Tile number: 000007 (process no. = 000000)
(PID.TID 0000.0001) //        WEST: Tile = 000008, Process = 000000, Comm = put
(PID.TID 0000.0001) //                bi = 000002, bj = 000004
(PID.TID 0000.0001) //        EAST: Tile = 000008, Process = 000000, Comm = put
(PID.TID 0000.0001) //                bi = 000002, bj = 000004
(PID.TID 0000.0001) //       SOUTH: Tile = 000005, Process = 000000, Comm = put
(PID.TID 0000.0001) //                bi = 000001, bj = 000003
(PID.TID 0000.0001) //       NORTH: Tile = 000001, Process = 000000, Comm = put
(PID.TID 0000.0001) //                bi = 000001, bj = 000001
(PID.TID 0000.0001) // Tile number: 000008 (process no. = 000000)
(PID.TID 0000.0001) //        WEST: Tile = 000007, Process = 000000, Comm = put
(PID.TID 0000.0001) //                bi = 000001, bj = 000004
(PID.TID 0000.0001) //        EAST: Tile = 000007, Process = 000000, Comm = put
(PID.TID 0000.0001) //                bi = 000001, bj = 000004
(PID.TID 0000.0001) //       SOUTH: Tile = 000006, Process = 000000, Comm = put
(PID.TID 0000.0001) //                bi = 000002, bj = 000003
(PID.TID 0000.0001) //       NORTH: Tile = 000002, Process = 000000, Comm = put
(PID.TID 0000.0001) //                bi = 000002, bj = 000001
(PID.TID 0000.0001) 
(PID.TID 0000.0001)  INI_PARMS: opening model parameter file "data"
(PID.TID 0000.0001)  OPEN_COPY_DATA_FILE: opening file data
(PID.TID 0000.0001) // =======================================================
(PID.TID 0000.0001) // Parameter file "data"
(PID.TID 0000.0001) // =======================================================
(PID.TID 0000.0001) ># ====================
(PID.TID 0000.0001) ># | Model parameters |
(PID.TID 0000.0001) ># ====================
(PID.TID 0000.0001) >#
(PID.TID 0000.0001) ># Continuous equation parameters
(PID.TID 0000.0001) > &PARM01
(PID.TID 0000.0001) > Tref = 30*-1.9,
(PID.TID 0000.0001) > Sref = 30*34.4,
(PID.TID 0000.0001) > viscAz=1.E-3,
(PID.TID 0000.0001) > viscAh=600.0,
(PID.TID 0000.0001) > no_slip_sides=.FALSE.,
(PID.TID 0000.0001) > diffKhT=100.0,
(PID.TID 0000.0001) > diffKzT=5.E-5,
(PID.TID 0000.0001) > diffKhS=100.0,
(PID.TID 0000.0001) > diffKzS=5.E-5,
(PID.TID 0000.0001) > bottomDragQuadratic=2.5E-3,
(PID.TID 0000.0001) > eosType='JMD95Z',
(PID.TID 0000.0001) > HeatCapacity_cp = 3974.0,
(PID.TID 0000.0001) > rhoConst=1030.,
(PID.TID 0000.0001) > rhoNil=1030.,
(PID.TID 0000.0001) > gravity=9.81,
(PID.TID 0000.0001) > convertFW2Salt = 33.4,
(PID.TID 0000.0001) > rigidLid=.FALSE.,
(PID.TID 0000.0001) > implicitFreeSurface=.TRUE.,
(PID.TID 0000.0001) > exactConserv=.TRUE.,
(PID.TID 0000.0001) > nonlinFreeSurf=4,
(PID.TID 0000.0001) > hFacInf=0.02,
(PID.TID 0000.0001) > hFacMin=0.05,
(PID.TID 0000.0001) > nonHydrostatic=.FALSE.,
(PID.TID 0000.0001) > useCDScheme = .TRUE.,
(PID.TID 0000.0001) > readBinaryPrec=64,
(PID.TID 0000.0001) > /
(PID.TID 0000.0001) >
(PID.TID 0000.0001) ># Elliptic solver parameters
(PID.TID 0000.0001) > &PARM02
(PID.TID 0000.0001) > cg2dMaxIters=1000,
(PID.TID 0000.0001) > cg2dTargetResidual=1.E-13,
(PID.TID 0000.0001) > cg3dMaxIters=400,
(PID.TID 0000.0001) > cg3dTargetResidual=1.E-13,
(PID.TID 0000.0001) > /
(PID.TID 0000.0001) >
(PID.TID 0000.0001) ># Time stepping parameters
(PID.TID 0000.0001) > &PARM03
(PID.TID 0000.0001) > nIter0=8640,
(PID.TID 0000.0001) > nTimeSteps=20,
(PID.TID 0000.0001) > deltaT=1800.0,
(PID.TID 0000.0001) > abEps=0.1,
(PID.TID 0000.0001) > cAdjFreq = -1.,
(PID.TID 0000.0001) > tauCD = 400000.,
(PID.TID 0000.0001) > pChkptFreq=0.0,
(PID.TID 0000.0001) > chkptFreq=0.0,
(PID.TID 0000.0001) > dumpFreq=0.0,
(PID.TID 0000.0001) > taveFreq=0.0,
(PID.TID 0000.0001) > monitorFreq=1.,
(PID.TID 0000.0001) > monitorSelect=2,
(PID.TID 0000.0001) > /
(PID.TID 0000.0001) >
(PID.TID 0000.0001) ># Gridding parameters
(PID.TID 0000.0001) > &PARM04
(PID.TID 0000.0001) > usingSphericalPolarGrid=.TRUE.,
(PID.TID 0000.0001) > ygOrigin = -80.0,
(PID.TID 0000.0001) > delX=50*0.3,
(PID.TID 0000.0001) > delY=100*0.1,
(PID.TID 0000.0001) > delZ=30*30.0,
(PID.TID 0000.0001) > /
(PID.TID 0000.0001) >
(PID.TID 0000.0001) ># Input datasets
(PID.TID 0000.0001) > &PARM05
(PID.TID 0000.0001) > bathyFile='bathy.box',
(PID.TID 0000.0001) > /
(PID.TID 0000.0001) 
(PID.TID 0000.0001)  INI_PARMS ; starts to read PARM01
(PID.TID 0000.0001)  INI_PARMS ; read PARM01 : OK
(PID.TID 0000.0001)  INI_PARMS ; starts to read PARM02
(PID.TID 0000.0001)  INI_PARMS ; read PARM02 : OK
(PID.TID 0000.0001)  INI_PARMS ; starts to read PARM03
(PID.TID 0000.0001)  INI_PARMS ; read PARM03 : OK
(PID.TID 0000.0001)  INI_PARMS ; starts to read PARM04
(PID.TID 0000.0001)  INI_PARMS ; read PARM04 : OK
(PID.TID 0000.0001)  INI_PARMS ; starts to read PARM05
(PID.TID 0000.0001)  INI_PARMS ; read PARM05 : OK
(PID.TID 0000.0001)  INI_PARMS: finished reading file "data"
(PID.TID 0000.0001)  PACKAGES_BOOT: opening data.pkg
(PID.TID 0000.0001)  OPEN_COPY_DATA_FILE: opening file data.pkg
(PID.TID 0000.0001) // =======================================================
(PID.TID 0000.0001) // Parameter file "data.pkg"
(PID.TID 0000.0001) // =======================================================
(PID.TID 0000.0001) ># Packages
(PID.TID 0000.0001) > &PACKAGES
(PID.TID 0000.0001) > useShelfIce=.TRUE.,
(PID.TID 0000.0001) >#useDiagnostics=.TRUE.,
(PID.TID 0000.0001) > useMNC=.TRUE.,
(PID.TID 0000.0001) > /
(PID.TID 0000.0001) 
(PID.TID 0000.0001)  PACKAGES_BOOT: finished reading data.pkg
(PID.TID 0000.0001)  PACKAGES_BOOT: On/Off package Summary
 --------  pkgs with a standard "usePKG" On/Off switch in "data.pkg":  --------
 pkg/kpp                  compiled but not used ( useKPP                   = F )
 pkg/shelfice             compiled   and   used ( useShelfIce              = T )
 pkg/icefront             compiled but not used ( useICEFRONT              = F )
 pkg/diagnostics          compiled but not used ( useDiagnostics           = F )
 pkg/mnc                  compiled   and   used ( useMNC                   = T )
 -------- pkgs without standard "usePKG" On/Off switch in "data.pkg":  --------
 pkg/generic_advdiff      compiled   and   used ( useGAD                   = T )
 pkg/mom_common           compiled   and   used ( momStepping              = T )
 pkg/mom_vecinv           compiled but not used ( +vectorInvariantMomentum = F )
 pkg/mom_fluxform         compiled   and   used ( & not vectorInvariantMom = T )
 pkg/cd_code              compiled   and   used ( useCDscheme              = T )
 pkg/monitor              compiled   and   used ( monitorFreq > 0.         = T )
 pkg/timeave              compiled but not used ( taveFreq > 0.            = F )
 pkg/debug                compiled but not used ( debugMode                = F )
 pkg/rw                   compiled   and   used
 pkg/mdsio                compiled   and   used
(PID.TID 0000.0001)  PACKAGES_BOOT: End of package Summary
(PID.TID 0000.0001) 
(PID.TID 0000.0001)  MNC_READPARMS: opening file 'data.mnc'
(PID.TID 0000.0001)  OPEN_COPY_DATA_FILE: opening file data.mnc
(PID.TID 0000.0001) // =======================================================
(PID.TID 0000.0001) // Parameter file "data.mnc"
(PID.TID 0000.0001) // =======================================================
(PID.TID 0000.0001) ># Example "data.mnc" file
(PID.TID 0000.0001) ># Lines beginning "#" are comments
(PID.TID 0000.0001) > &MNC_01
(PID.TID 0000.0001) ># mnc_echo_gvtypes=.FALSE.,
(PID.TID 0000.0001) ># mnc_use_indir=.FALSE.,
(PID.TID 0000.0001) > mnc_use_outdir=.TRUE.,
(PID.TID 0000.0001) > mnc_outdir_str='mnc_test_',
(PID.TID 0000.0001) >#mnc_outdir_date=.TRUE.,
(PID.TID 0000.0001) > monitor_mnc=.FALSE.,
(PID.TID 0000.0001) >#snapshot_mnc=.FALSE.,
(PID.TID 0000.0001) >#timeave_mnc=.FALSE.,
(PID.TID 0000.0001) > pickup_read_mnc=.FALSE.,
(PID.TID 0000.0001) > pickup_write_mnc=.FALSE.,
(PID.TID 0000.0001) > /
(PID.TID 0000.0001) ># Note: Some systems use & as the
(PID.TID 0000.0001) ># namelist terminator. Other systems
(PID.TID 0000.0001) ># use a / character (as shown here).
(PID.TID 0000.0001) 
(PID.TID 0000.0001)  MNC_READPARMS: finished reading data.mnc
(PID.TID 0000.0001)  SHELFICE_READPARMS: opening data.shelfice
(PID.TID 0000.0001)  OPEN_COPY_DATA_FILE: opening file data.shelfice
(PID.TID 0000.0001) // =======================================================
(PID.TID 0000.0001) // Parameter file "data.shelfice"
(PID.TID 0000.0001) // =======================================================
(PID.TID 0000.0001) ># ===================================
(PID.TID 0000.0001) ># | Parameters for SHELFICE package |
(PID.TID 0000.0001) ># ===================================
(PID.TID 0000.0001) > &SHELFICE_PARM01
(PID.TID 0000.0001) > SHELFICEconserve = .TRUE.,
(PID.TID 0000.0001) > SHELFICEboundaryLayer = .TRUE.,
(PID.TID 0000.0001) > SHELFICEtopoFile='icetopo.exp1',
(PID.TID 0000.0001) >#SHELFICEloadAnomalyFile = 'phi0surf.exp1.jmd95z',
(PID.TID 0000.0001) > SHELFICEmassFile='iceShelf_Mass.bin',
(PID.TID 0000.0001) > SHELFICEadvDiffHeatFlux = .TRUE.,
(PID.TID 0000.0001) > no_slip_shelfice = .FALSE.,
(PID.TID 0000.0001) > SHELFICEuseGammaFrict = .TRUE.,
(PID.TID 0000.0001) > SHELFICEwriteState = .TRUE.,
(PID.TID 0000.0001) > /
(PID.TID 0000.0001) 
(PID.TID 0000.0001)  SHELFICE_READPARMS: finished reading data.shelfice
(PID.TID 0000.0001) SET_PARMS: done
(PID.TID 0000.0001) Enter INI_VERTICAL_GRID: setInterFDr=    T ; setCenterDr=    F
(PID.TID 0000.0001) %MON XC_max                       =   1.4850000000000E+01
(PID.TID 0000.0001) %MON XC_min                       =   1.5000000000000E-01
(PID.TID 0000.0001) %MON XC_mean                      =   7.5000000000000E+00
(PID.TID 0000.0001) %MON XC_sd                        =   4.3292609068985E+00
(PID.TID 0000.0001) %MON XG_max                       =   1.4700000000000E+01
(PID.TID 0000.0001) %MON XG_min                       =   1.1102230246252E-16
(PID.TID 0000.0001) %MON XG_mean                      =   7.3500000000000E+00
(PID.TID 0000.0001) %MON XG_sd                        =   4.3292609068985E+00
(PID.TID 0000.0001) %MON DXC_max                      =   1.1380125394806E+04
(PID.TID 0000.0001) %MON DXC_min                      =   5.8203914905589E+03
(PID.TID 0000.0001) %MON DXC_mean                     =   8.6215028627207E+03
(PID.TID 0000.0001) %MON DXC_sd                       =   1.6219001271572E+03
(PID.TID 0000.0001) %MON DXF_max                      =   1.1380125394806E+04
(PID.TID 0000.0001) %MON DXF_min                      =   5.8203914905589E+03
(PID.TID 0000.0001) %MON DXF_mean                     =   8.6215028627207E+03
(PID.TID 0000.0001) %MON DXF_sd                       =   1.6219001271572E+03
(PID.TID 0000.0001) %MON DXG_max                      =   1.1352761512017E+04
(PID.TID 0000.0001) %MON DXG_min                      =   5.7917296935586E+03
(PID.TID 0000.0001) %MON DXG_mean                     =   8.5934208253080E+03
(PID.TID 0000.0001) %MON DXG_sd                       =   1.6222785520817E+03
(PID.TID 0000.0001) %MON DXV_max                      =   1.1352761512017E+04
(PID.TID 0000.0001) %MON DXV_min                      =   5.7917296935586E+03
(PID.TID 0000.0001) %MON DXV_mean                     =   8.5934208253080E+03
(PID.TID 0000.0001) %MON DXV_sd                       =   1.6222785520817E+03
(PID.TID 0000.0001) %MON YC_max                       =  -7.0050000000001E+01
(PID.TID 0000.0001) %MON YC_min                       =  -7.9950000000000E+01
(PID.TID 0000.0001) %MON YC_mean                      =  -7.5000000000000E+01
(PID.TID 0000.0001) %MON YC_sd                        =   2.8866070047720E+00
(PID.TID 0000.0001) %MON YG_max                       =  -7.0100000000001E+01
(PID.TID 0000.0001) %MON YG_min                       =  -8.0000000000000E+01
(PID.TID 0000.0001) %MON YG_mean                      =  -7.5050000000000E+01
(PID.TID 0000.0001) %MON YG_sd                        =   2.8866070047721E+00
(PID.TID 0000.0001) %MON DYC_max                      =   1.1117747335204E+04
(PID.TID 0000.0001) %MON DYC_min                      =   1.1117747335204E+04
(PID.TID 0000.0001) %MON DYC_mean                     =   1.1117747335204E+04
(PID.TID 0000.0001) %MON DYC_sd                       =   4.1836756281555E-11
(PID.TID 0000.0001) %MON DYF_max                      =   1.1117747335204E+04
(PID.TID 0000.0001) %MON DYF_min                      =   1.1117747335204E+04
(PID.TID 0000.0001) %MON DYF_mean                     =   1.1117747335204E+04
(PID.TID 0000.0001) %MON DYF_sd                       =   4.1836756281555E-11
(PID.TID 0000.0001) %MON DYG_max                      =   1.1117747335204E+04
(PID.TID 0000.0001) %MON DYG_min                      =   1.1117747335204E+04
(PID.TID 0000.0001) %MON DYG_mean                     =   1.1117747335204E+04
(PID.TID 0000.0001) %MON DYG_sd                       =   4.1836756281555E-11
(PID.TID 0000.0001) %MON DYU_max                      =   1.1117747335204E+04
(PID.TID 0000.0001) %MON DYU_min                      =   1.1117747335204E+04
(PID.TID 0000.0001) %MON DYU_mean                     =   1.1117747335204E+04
(PID.TID 0000.0001) %MON DYU_sd                       =   4.1836756281555E-11
(PID.TID 0000.0001) %MON RA_max                       =   1.2652134272379E+08
(PID.TID 0000.0001) %MON RA_min                       =   6.4709633770803E+07
(PID.TID 0000.0001) %MON RA_mean                      =   9.5851678311587E+07
(PID.TID 0000.0001) %MON RA_sd                        =   1.8031873527992E+07
(PID.TID 0000.0001) %MON RAW_max                      =   1.2652134272379E+08
(PID.TID 0000.0001) %MON RAW_min                      =   6.4709633770803E+07
(PID.TID 0000.0001) %MON RAW_mean                     =   9.5851678311587E+07
(PID.TID 0000.0001) %MON RAW_sd                       =   1.8031873527992E+07
(PID.TID 0000.0001) %MON RAS_max                      =   1.2621711802744E+08
(PID.TID 0000.0001) %MON RAS_min                      =   6.4390979194019E+07
(PID.TID 0000.0001) %MON RAS_mean                     =   9.5539469354603E+07
(PID.TID 0000.0001) %MON RAS_sd                       =   1.8036080760153E+07
(PID.TID 0000.0001) %MON RAZ_max                      =   1.2621711802744E+08
(PID.TID 0000.0001) %MON RAZ_min                      =   6.4390979194019E+07
(PID.TID 0000.0001) %MON RAZ_mean                     =   9.5539469354603E+07
(PID.TID 0000.0001) %MON RAZ_sd                       =   1.8036080760153E+07
(PID.TID 0000.0001) %MON AngleCS_max                  =   1.0000000000000E+00
(PID.TID 0000.0001) %MON AngleCS_min                  =   1.0000000000000E+00
(PID.TID 0000.0001) %MON AngleCS_mean                 =   1.0000000000000E+00
(PID.TID 0000.0001) %MON AngleCS_sd                   =   0.0000000000000E+00
(PID.TID 0000.0001) %MON AngleSN_max                  =   0.0000000000000E+00
(PID.TID 0000.0001) %MON AngleSN_min                  =   0.0000000000000E+00
(PID.TID 0000.0001) %MON AngleSN_mean                 =   0.0000000000000E+00
(PID.TID 0000.0001) %MON AngleSN_sd                   =   0.0000000000000E+00
(PID.TID 0000.0001)  MDS_READ_FIELD: opening global file: bathy.box
(PID.TID 0000.0001)  MDS_READ_FIELD: opening global file: icetopo.exp1
(PID.TID 0000.0001) // =======================================================
(PID.TID 0000.0001) // Field Model R_low (ini_masks_etc)
(PID.TID 0000.0001) // CMIN =         -9.000000000000000E+02
(PID.TID 0000.0001) // CMAX =         -9.000000000000000E+02
(PID.TID 0000.0001) // CINT =          0.000000000000000E+00
(PID.TID 0000.0001) // SYMBOLS (CMIN->CMAX): -abcdefghijklmnopqrstuvwxyz+
(PID.TID 0000.0001) //                  0.0: .
(PID.TID 0000.0001) // RANGE I (Lo:Hi:Step):(    -2:    53:     1)
(PID.TID 0000.0001) // RANGE J (Lo:Hi:Step):(   103:    -2:    -1)
(PID.TID 0000.0001) // RANGE K (Lo:Hi:Step):(   1:   1:   1)
(PID.TID 0000.0001) // =======================================================
(PID.TID 0000.0001) // =======================================================
(PID.TID 0000.0001) // END OF FIELD                                          =
(PID.TID 0000.0001) // =======================================================
(PID.TID 0000.0001) 
(PID.TID 0000.0001) // =======================================================
(PID.TID 0000.0001) // Field Model Ro_surf (ini_masks_etc)
(PID.TID 0000.0001) // CMIN =         -6.812500000000010E+02
(PID.TID 0000.0001) // CMAX =         -2.000000000000000E+02
(PID.TID 0000.0001) // CINT =          1.782407407407411E+01
(PID.TID 0000.0001) // SYMBOLS (CMIN->CMAX): -abcdefghijklmnopqrstuvwxyz+
(PID.TID 0000.0001) //                  0.0: .
(PID.TID 0000.0001) // RANGE I (Lo:Hi:Step):(    -2:    53:     1)
(PID.TID 0000.0001) // RANGE J (Lo:Hi:Step):(   103:    -2:    -1)
(PID.TID 0000.0001) // RANGE K (Lo:Hi:Step):(   1:   1:   1)
(PID.TID 0000.0001) // =======================================================
(PID.TID 0000.0001) K =   1
(PID.TID 0000.0001) //                I=7       I=17      I=27      I=31      I=41      I=51
(PID.TID 0000.0001) // |--J--|210123456|890123456|890123456|834567890|234567890|234567890|23
(PID.TID 0000.0001) //    103 aaa.aaaaaaaaaaaaaaaaaaaaaaaaaaaaaaaaaaaaaaaaaaaaaaaaaaaaaaa.aa
(PID.TID 0000.0001) //    102 ---.-------------------------------------------------------.--
(PID.TID 0000.0001) //    101 ..............................................................
(PID.TID 0000.0001) //    100 +++.+++++++++++++++++++++++++++++++++++++++++++++++++++++++.++
(PID.TID 0000.0001) //     99 +++.+++++++++++++++++++++++++++++++++++++++++++++++++++++++.++
(PID.TID 0000.0001) //     98 +++.+++++++++++++++++++++++++++++++++++++++++++++++++++++++.++
(PID.TID 0000.0001) //     97 +++.+++++++++++++++++++++++++++++++++++++++++++++++++++++++.++
(PID.TID 0000.0001) //     96 +++.+++++++++++++++++++++++++++++++++++++++++++++++++++++++.++
(PID.TID 0000.0001) //     95 +++.+++++++++++++++++++++++++++++++++++++++++++++++++++++++.++
(PID.TID 0000.0001) //     94 +++.+++++++++++++++++++++++++++++++++++++++++++++++++++++++.++
(PID.TID 0000.0001) //     93 +++.+++++++++++++++++++++++++++++++++++++++++++++++++++++++.++
(PID.TID 0000.0001) //     92 +++.+++++++++++++++++++++++++++++++++++++++++++++++++++++++.++
(PID.TID 0000.0001) //     91 +++.+++++++++++++++++++++++++++++++++++++++++++++++++++++++.++
(PID.TID 0000.0001) //     90 +++.+++++++++++++++++++++++++++++++++++++++++++++++++++++++.++
(PID.TID 0000.0001) //     89 +++.+++++++++++++++++++++++++++++++++++++++++++++++++++++++.++
(PID.TID 0000.0001) //     88 +++.+++++++++++++++++++++++++++++++++++++++++++++++++++++++.++
(PID.TID 0000.0001) //     87 +++.+++++++++++++++++++++++++++++++++++++++++++++++++++++++.++
(PID.TID 0000.0001) //     86 +++.+++++++++++++++++++++++++++++++++++++++++++++++++++++++.++
(PID.TID 0000.0001) //     85 +++.+++++++++++++++++++++++++++++++++++++++++++++++++++++++.++
(PID.TID 0000.0001) //     84 +++.+++++++++++++++++++++++++++++++++++++++++++++++++++++++.++
(PID.TID 0000.0001) //     83 +++.+++++++++++++++++++++++++++++++++++++++++++++++++++++++.++
(PID.TID 0000.0001) //     82 +++.+++++++++++++++++++++++++++++++++++++++++++++++++++++++.++
(PID.TID 0000.0001) //     81 +++.+++++++++++++++++++++++++++++++++++++++++++++++++++++++.++
(PID.TID 0000.0001) //     80 +++.+++++++++++++++++++++++++++++++++++++++++++++++++++++++.++
(PID.TID 0000.0001) //     79 +++.+++++++++++++++++++++++++++++++++++++++++++++++++++++++.++
(PID.TID 0000.0001) //     78 +++.+++++++++++++++++++++++++++++++++++++++++++++++++++++++.++
(PID.TID 0000.0001) //     77 +++.+++++++++++++++++++++++++++++++++++++++++++++++++++++++.++
(PID.TID 0000.0001) //     76 +++.+++++++++++++++++++++++++++++++++++++++++++++++++++++++.++
(PID.TID 0000.0001) //     75 +++.+++++++++++++++++++++++++++++++++++++++++++++++++++++++.++
(PID.TID 0000.0001) //     74 +++.+++++++++++++++++++++++++++++++++++++++++++++++++++++++.++
(PID.TID 0000.0001) //     73 +++.+++++++++++++++++++++++++++++++++++++++++++++++++++++++.++
(PID.TID 0000.0001) //     78 +++.+++++++++++++++++++++++++++++++++++++++++++++++++++++++.++
(PID.TID 0000.0001) //     77 +++.+++++++++++++++++++++++++++++++++++++++++++++++++++++++.++
(PID.TID 0000.0001) //     76 +++.+++++++++++++++++++++++++++++++++++++++++++++++++++++++.++
(PID.TID 0000.0001) //     75 +++.+++++++++++++++++++++++++++++++++++++++++++++++++++++++.++
(PID.TID 0000.0001) //     74 +++.+++++++++++++++++++++++++++++++++++++++++++++++++++++++.++
(PID.TID 0000.0001) //     73 +++.+++++++++++++++++++++++++++++++++++++++++++++++++++++++.++
(PID.TID 0000.0001) //     72 +++.+++++++++++++++++++++++++++++++++++++++++++++++++++++++.++
(PID.TID 0000.0001) //     71 +++.+++++++++++++++++++++++++++++++++++++++++++++++++++++++.++
(PID.TID 0000.0001) //     70 +++.+++++++++++++++++++++++++++++++++++++++++++++++++++++++.++
(PID.TID 0000.0001) //     69 +++.+++++++++++++++++++++++++++++++++++++++++++++++++++++++.++
(PID.TID 0000.0001) //     68 +++.+++++++++++++++++++++++++++++++++++++++++++++++++++++++.++
(PID.TID 0000.0001) //     67 +++.+++++++++++++++++++++++++++++++++++++++++++++++++++++++.++
(PID.TID 0000.0001) //     66 +++.+++++++++++++++++++++++++++++++++++++++++++++++++++++++.++
(PID.TID 0000.0001) //     65 +++.+++++++++++++++++++++++++++++++++++++++++++++++++++++++.++
(PID.TID 0000.0001) //     64 +++.+++++++++++++++++++++++++++++++++++++++++++++++++++++++.++
(PID.TID 0000.0001) //     63 +++.+++++++++++++++++++++++++++++++++++++++++++++++++++++++.++
(PID.TID 0000.0001) //     62 +++.+++++++++++++++++++++++++++++++++++++++++++++++++++++++.++
(PID.TID 0000.0001) //     61 +++.+++++++++++++++++++++++++++++++++++++++++++++++++++++++.++
(PID.TID 0000.0001) //     60 +++.+++++++++++++++++++++++++++++++++++++++++++++++++++++++.++
(PID.TID 0000.0001) //     59 +++.+++++++++++++++++++++++++++++++++++++++++++++++++++++++.++
(PID.TID 0000.0001) //     58 +++.+++++++++++++++++++++++++++++++++++++++++++++++++++++++.++
(PID.TID 0000.0001) //     57 +++.+++++++++++++++++++++++++++++++++++++++++++++++++++++++.++
(PID.TID 0000.0001) //     56 +++.+++++++++++++++++++++++++++++++++++++++++++++++++++++++.++
(PID.TID 0000.0001) //     55 +++.+++++++++++++++++++++++++++++++++++++++++++++++++++++++.++
(PID.TID 0000.0001) //     54 +++.+++++++++++++++++++++++++++++++++++++++++++++++++++++++.++
(PID.TID 0000.0001) //     53 +++.+++++++++++++++++++++++++++++++++++++++++++++++++++++++.++
(PID.TID 0000.0001) //     52 +++.+++++++++++++++++++++++++++++++++++++++++++++++++++++++.++
(PID.TID 0000.0001) //     51 +++.+++++++++++++++++++++++++++++++++++++++++++++++++++++++.++
(PID.TID 0000.0001) //     50 +++.+++++++++++++++++++++++++++++++++++++++++++++++++++++++.++
(PID.TID 0000.0001) //     49 +++.+++++++++++++++++++++++++++++++++++++++++++++++++++++++.++
(PID.TID 0000.0001) //     48 +++.+++++++++++++++++++++++++++++++++++++++++++++++++++++++.++
(PID.TID 0000.0001) //     53 +++.+++++++++++++++++++++++++++++++++++++++++++++++++++++++.++
(PID.TID 0000.0001) //     52 +++.+++++++++++++++++++++++++++++++++++++++++++++++++++++++.++
(PID.TID 0000.0001) //     51 +++.+++++++++++++++++++++++++++++++++++++++++++++++++++++++.++
(PID.TID 0000.0001) //     50 +++.+++++++++++++++++++++++++++++++++++++++++++++++++++++++.++
(PID.TID 0000.0001) //     49 +++.+++++++++++++++++++++++++++++++++++++++++++++++++++++++.++
(PID.TID 0000.0001) //     48 +++.+++++++++++++++++++++++++++++++++++++++++++++++++++++++.++
(PID.TID 0000.0001) //     47 +++.+++++++++++++++++++++++++++++++++++++++++++++++++++++++.++
(PID.TID 0000.0001) //     46 +++.+++++++++++++++++++++++++++++++++++++++++++++++++++++++.++
(PID.TID 0000.0001) //     45 +++.+++++++++++++++++++++++++++++++++++++++++++++++++++++++.++
(PID.TID 0000.0001) //     44 +++.+++++++++++++++++++++++++++++++++++++++++++++++++++++++.++
(PID.TID 0000.0001) //     43 +++.+++++++++++++++++++++++++++++++++++++++++++++++++++++++.++
(PID.TID 0000.0001) //     42 +++.+++++++++++++++++++++++++++++++++++++++++++++++++++++++.++
(PID.TID 0000.0001) //     41 +++.+++++++++++++++++++++++++++++++++++++++++++++++++++++++.++
(PID.TID 0000.0001) //     40 +++.+++++++++++++++++++++++++++++++++++++++++++++++++++++++.++
(PID.TID 0000.0001) //     39 zzz.zzzzzzzzzzzzzzzzzzzzzzzzzzzzzzzzzzzzzzzzzzzzzzzzzzzzzzz.zz
(PID.TID 0000.0001) //     38 yyy.yyyyyyyyyyyyyyyyyyyyyyyyyyyyyyyyyyyyyyyyyyyyyyyyyyyyyyy.yy
(PID.TID 0000.0001) //     37 yyy.yyyyyyyyyyyyyyyyyyyyyyyyyyyyyyyyyyyyyyyyyyyyyyyyyyyyyyy.yy
(PID.TID 0000.0001) //     36 xxx.xxxxxxxxxxxxxxxxxxxxxxxxxxxxxxxxxxxxxxxxxxxxxxxxxxxxxxx.xx
(PID.TID 0000.0001) //     35 www.wwwwwwwwwwwwwwwwwwwwwwwwwwwwwwwwwwwwwwwwwwwwwwwwwwwwwww.ww
(PID.TID 0000.0001) //     34 vvv.vvvvvvvvvvvvvvvvvvvvvvvvvvvvvvvvvvvvvvvvvvvvvvvvvvvvvvv.vv
(PID.TID 0000.0001) //     33 vvv.vvvvvvvvvvvvvvvvvvvvvvvvvvvvvvvvvvvvvvvvvvvvvvvvvvvvvvv.vv
(PID.TID 0000.0001) //     32 uuu.uuuuuuuuuuuuuuuuuuuuuuuuuuuuuuuuuuuuuuuuuuuuuuuuuuuuuuu.uu
(PID.TID 0000.0001) //     31 ttt.ttttttttttttttttttttttttttttttttttttttttttttttttttttttt.tt
(PID.TID 0000.0001) //     30 ttt.ttttttttttttttttttttttttttttttttttttttttttttttttttttttt.tt
(PID.TID 0000.0001) //     29 sss.sssssssssssssssssssssssssssssssssssssssssssssssssssssss.ss
(PID.TID 0000.0001) //     28 rrr.rrrrrrrrrrrrrrrrrrrrrrrrrrrrrrrrrrrrrrrrrrrrrrrrrrrrrrr.rr
(PID.TID 0000.0001) //     27 rrr.rrrrrrrrrrrrrrrrrrrrrrrrrrrrrrrrrrrrrrrrrrrrrrrrrrrrrrr.rr
(PID.TID 0000.0001) //     26 qqq.qqqqqqqqqqqqqqqqqqqqqqqqqqqqqqqqqqqqqqqqqqqqqqqqqqqqqqq.qq
(PID.TID 0000.0001) //     25 ppp.ppppppppppppppppppppppppppppppppppppppppppppppppppppppp.pp
(PID.TID 0000.0001) //     24 ooo.ooooooooooooooooooooooooooooooooooooooooooooooooooooooo.oo
(PID.TID 0000.0001) //     23 ooo.ooooooooooooooooooooooooooooooooooooooooooooooooooooooo.oo
(PID.TID 0000.0001) //     28 rrr.rrrrrrrrrrrrrrrrrrrrrrrrrrrrrrrrrrrrrrrrrrrrrrrrrrrrrrr.rr
(PID.TID 0000.0001) //     27 rrr.rrrrrrrrrrrrrrrrrrrrrrrrrrrrrrrrrrrrrrrrrrrrrrrrrrrrrrr.rr
(PID.TID 0000.0001) //     26 qqq.qqqqqqqqqqqqqqqqqqqqqqqqqqqqqqqqqqqqqqqqqqqqqqqqqqqqqqq.qq
(PID.TID 0000.0001) //     25 ppp.ppppppppppppppppppppppppppppppppppppppppppppppppppppppp.pp
(PID.TID 0000.0001) //     24 ooo.ooooooooooooooooooooooooooooooooooooooooooooooooooooooo.oo
(PID.TID 0000.0001) //     23 ooo.ooooooooooooooooooooooooooooooooooooooooooooooooooooooo.oo
(PID.TID 0000.0001) //     22 nnn.nnnnnnnnnnnnnnnnnnnnnnnnnnnnnnnnnnnnnnnnnnnnnnnnnnnnnnn.nn
(PID.TID 0000.0001) //     21 mmm.mmmmmmmmmmmmmmmmmmmmmmmmmmmmmmmmmmmmmmmmmmmmmmmmmmmmmmm.mm
(PID.TID 0000.0001) //     20 mmm.mmmmmmmmmmmmmmmmmmmmmmmmmmmmmmmmmmmmmmmmmmmmmmmmmmmmmmm.mm
(PID.TID 0000.0001) //     19 lll.lllllllllllllllllllllllllllllllllllllllllllllllllllllll.ll
(PID.TID 0000.0001) //     18 kkk.kkkkkkkkkkkkkkkkkkkkkkkkkkkkkkkkkkkkkkkkkkkkkkkkkkkkkkk.kk
(PID.TID 0000.0001) //     17 kkk.kkkkkkkkkkkkkkkkkkkkkkkkkkkkkkkkkkkkkkkkkkkkkkkkkkkkkkk.kk
(PID.TID 0000.0001) //     16 jjj.jjjjjjjjjjjjjjjjjjjjjjjjjjjjjjjjjjjjjjjjjjjjjjjjjjjjjjj.jj
(PID.TID 0000.0001) //     15 iii.iiiiiiiiiiiiiiiiiiiiiiiiiiiiiiiiiiiiiiiiiiiiiiiiiiiiiii.ii
(PID.TID 0000.0001) //     14 hhh.hhhhhhhhhhhhhhhhhhhhhhhhhhhhhhhhhhhhhhhhhhhhhhhhhhhhhhh.hh
(PID.TID 0000.0001) //     13 hhh.hhhhhhhhhhhhhhhhhhhhhhhhhhhhhhhhhhhhhhhhhhhhhhhhhhhhhhh.hh
(PID.TID 0000.0001) //     12 ggg.ggggggggggggggggggggggggggggggggggggggggggggggggggggggg.gg
(PID.TID 0000.0001) //     11 fff.fffffffffffffffffffffffffffffffffffffffffffffffffffffff.ff
(PID.TID 0000.0001) //     10 fff.fffffffffffffffffffffffffffffffffffffffffffffffffffffff.ff
(PID.TID 0000.0001) //      9 eee.eeeeeeeeeeeeeeeeeeeeeeeeeeeeeeeeeeeeeeeeeeeeeeeeeeeeeee.ee
(PID.TID 0000.0001) //      8 ddd.ddddddddddddddddddddddddddddddddddddddddddddddddddddddd.dd
(PID.TID 0000.0001) //      7 ddd.ddddddddddddddddddddddddddddddddddddddddddddddddddddddd.dd
(PID.TID 0000.0001) //      6 ccc.ccccccccccccccccccccccccccccccccccccccccccccccccccccccc.cc
(PID.TID 0000.0001) //      5 bbb.bbbbbbbbbbbbbbbbbbbbbbbbbbbbbbbbbbbbbbbbbbbbbbbbbbbbbbb.bb
(PID.TID 0000.0001) //      4 aaa.aaaaaaaaaaaaaaaaaaaaaaaaaaaaaaaaaaaaaaaaaaaaaaaaaaaaaaa.aa
(PID.TID 0000.0001) //      3 aaa.aaaaaaaaaaaaaaaaaaaaaaaaaaaaaaaaaaaaaaaaaaaaaaaaaaaaaaa.aa
(PID.TID 0000.0001) //      2 ---.-------------------------------------------------------.--
(PID.TID 0000.0001) //      1 ..............................................................
(PID.TID 0000.0001) //      0 +++.+++++++++++++++++++++++++++++++++++++++++++++++++++++++.++
(PID.TID 0000.0001) //     -1 +++.+++++++++++++++++++++++++++++++++++++++++++++++++++++++.++
(PID.TID 0000.0001) //     -2 +++.+++++++++++++++++++++++++++++++++++++++++++++++++++++++.++
(PID.TID 0000.0001) // =======================================================
(PID.TID 0000.0001) // END OF FIELD                                          =
(PID.TID 0000.0001) // =======================================================
(PID.TID 0000.0001) 
(PID.TID 0000.0001) // =======================================================
(PID.TID 0000.0001) // Field hFacC at iteration          0
(PID.TID 0000.0001) // CMIN =          1.000000000000000E+32
(PID.TID 0000.0001) // CMAX =         -1.000000000000000E+32
(PID.TID 0000.0001) // CINT =          0.000000000000000E+00
(PID.TID 0000.0001) // SYMBOLS (CMIN->CMAX): -abcdefghijklmnopqrstuvwxyz+
(PID.TID 0000.0001) //                  0.0: .
(PID.TID 0000.0001) // RANGE I (Lo:Hi:Step):(    -2:    53:     1)
(PID.TID 0000.0001) // RANGE J (Lo:Hi:Step):(   103:    -2:    -1)
(PID.TID 0000.0001) // RANGE K (Lo:Hi:Step):(   1:   1:   1)
(PID.TID 0000.0001) // =======================================================
(PID.TID 0000.0001) // =======================================================
(PID.TID 0000.0001) // END OF FIELD                                          =
(PID.TID 0000.0001) // =======================================================
(PID.TID 0000.0001) 
(PID.TID 0000.0001) // =======================================================
(PID.TID 0000.0001) // Field hFacW at iteration          0
(PID.TID 0000.0001) // CMIN =          1.000000000000000E+32
(PID.TID 0000.0001) // CMAX =         -1.000000000000000E+32
(PID.TID 0000.0001) // CINT =          0.000000000000000E+00
(PID.TID 0000.0001) // SYMBOLS (CMIN->CMAX): -abcdefghijklmnopqrstuvwxyz+
(PID.TID 0000.0001) //                  0.0: .
(PID.TID 0000.0001) // RANGE I (Lo:Hi:Step):(    -2:    53:     1)
(PID.TID 0000.0001) // RANGE J (Lo:Hi:Step):(   103:    -2:    -1)
(PID.TID 0000.0001) // RANGE K (Lo:Hi:Step):(   1:   1:   1)
(PID.TID 0000.0001) // =======================================================
(PID.TID 0000.0001) // =======================================================
(PID.TID 0000.0001) // END OF FIELD                                          =
(PID.TID 0000.0001) // =======================================================
(PID.TID 0000.0001) 
(PID.TID 0000.0001) // =======================================================
(PID.TID 0000.0001) // Field hFacS at iteration          0
(PID.TID 0000.0001) // CMIN =          1.000000000000000E+32
(PID.TID 0000.0001) // CMAX =         -1.000000000000000E+32
(PID.TID 0000.0001) // CINT =          0.000000000000000E+00
(PID.TID 0000.0001) // SYMBOLS (CMIN->CMAX): -abcdefghijklmnopqrstuvwxyz+
(PID.TID 0000.0001) //                  0.0: .
(PID.TID 0000.0001) // RANGE I (Lo:Hi:Step):(    -2:    53:     1)
(PID.TID 0000.0001) // RANGE J (Lo:Hi:Step):(   103:    -2:    -1)
(PID.TID 0000.0001) // RANGE K (Lo:Hi:Step):(   1:   1:   1)
(PID.TID 0000.0001) // =======================================================
(PID.TID 0000.0001) // =======================================================
(PID.TID 0000.0001) // END OF FIELD                                          =
(PID.TID 0000.0001) // =======================================================
(PID.TID 0000.0001) 
(PID.TID 0000.0001) GAD_INIT_FIXED: GAD_OlMinSize=  1  0  1
(PID.TID 0000.0001) 
(PID.TID 0000.0001) // ===================================
(PID.TID 0000.0001) // GAD parameters :
(PID.TID 0000.0001) // ===================================
(PID.TID 0000.0001) tempAdvScheme =   /* Temp. Horiz.Advection scheme selector */
(PID.TID 0000.0001)                       2
(PID.TID 0000.0001)     ;
(PID.TID 0000.0001) tempVertAdvScheme =   /* Temp. Vert. Advection scheme selector */
(PID.TID 0000.0001)                       2
(PID.TID 0000.0001)     ;
(PID.TID 0000.0001) tempMultiDimAdvec =   /* use Muti-Dim Advec method for Temp */
(PID.TID 0000.0001)                   F
(PID.TID 0000.0001)     ;
(PID.TID 0000.0001) tempSOM_Advection = /* use 2nd Order Moment Advection for Temp */
(PID.TID 0000.0001)                   F
(PID.TID 0000.0001)     ;
(PID.TID 0000.0001) AdamsBashforthGt = /* apply Adams-Bashforth extrapolation on Gt */
(PID.TID 0000.0001)                   T
(PID.TID 0000.0001)     ;
(PID.TID 0000.0001) AdamsBashforth_T = /* apply Adams-Bashforth extrapolation on Temp */
(PID.TID 0000.0001)                   F
(PID.TID 0000.0001)     ;
(PID.TID 0000.0001) saltAdvScheme =   /* Salt. Horiz.advection scheme selector */
(PID.TID 0000.0001)                       2
(PID.TID 0000.0001)     ;
(PID.TID 0000.0001) saltVertAdvScheme =   /* Salt. Vert. Advection scheme selector */
(PID.TID 0000.0001)                       2
(PID.TID 0000.0001)     ;
(PID.TID 0000.0001) saltMultiDimAdvec =   /* use Muti-Dim Advec method for Salt */
(PID.TID 0000.0001)                   F
(PID.TID 0000.0001)     ;
(PID.TID 0000.0001) saltSOM_Advection = /* use 2nd Order Moment Advection for Salt */
(PID.TID 0000.0001)                   F
(PID.TID 0000.0001)     ;
(PID.TID 0000.0001) AdamsBashforthGs = /* apply Adams-Bashforth extrapolation on Gs */
(PID.TID 0000.0001)                   T
(PID.TID 0000.0001)     ;
(PID.TID 0000.0001) AdamsBashforth_S = /* apply Adams-Bashforth extrapolation on Salt */
(PID.TID 0000.0001)                   F
(PID.TID 0000.0001)     ;
(PID.TID 0000.0001) // ===================================
(PID.TID 0000.0001)  MDS_READ_FIELD: opening global file: iceShelf_Mass.bin
(PID.TID 0000.0001) %MON fCori_max                    =  -1.3709057042516E-04
(PID.TID 0000.0001) %MON fCori_min                    =  -1.4360464034757E-04
(PID.TID 0000.0001) %MON fCori_mean                   =  -1.4069429304698E-04
(PID.TID 0000.0001) %MON fCori_sd                     =   1.9069739624987E-06
(PID.TID 0000.0001) %MON fCoriG_max                   =  -1.3713394327439E-04
(PID.TID 0000.0001) %MON fCoriG_min                   =  -1.4362679550910E-04
(PID.TID 0000.0001) %MON fCoriG_mean                  =  -1.4072713798624E-04
(PID.TID 0000.0001) %MON fCoriG_sd                    =   1.9008093726821E-06
(PID.TID 0000.0001) %MON fCoriCos_max                 =   4.9761447480159E-05
(PID.TID 0000.0001) %MON fCoriCos_min                 =   2.5450607565678E-05
(PID.TID 0000.0001) %MON fCoriCos_mean                =   3.7698922201606E-05
(PID.TID 0000.0001) %MON fCoriCos_sd                  =   7.0920218535055E-06
(PID.TID 0000.0001) INI_CG2D: CG2D normalisation factor =  1.0404366262810520E-03
(PID.TID 0000.0001) 
(PID.TID 0000.0001) // =======================================================
(PID.TID 0000.0001) // Model configuration
(PID.TID 0000.0001) // =======================================================
(PID.TID 0000.0001) //
(PID.TID 0000.0001) // "Physical" paramters ( PARM01 in namelist )
(PID.TID 0000.0001) //
(PID.TID 0000.0001) buoyancyRelation = /* Type of relation to get Buoyancy */
(PID.TID 0000.0001)               'OCEANIC'
(PID.TID 0000.0001)     ;
(PID.TID 0000.0001) fluidIsAir   =  /* fluid major constituent is Air */
(PID.TID 0000.0001)                   F
(PID.TID 0000.0001)     ;
(PID.TID 0000.0001) fluidIsWater =  /* fluid major constituent is Water */
(PID.TID 0000.0001)                   T
(PID.TID 0000.0001)     ;
(PID.TID 0000.0001) usingPCoords =  /* use p (or p*) vertical coordinate */
(PID.TID 0000.0001)                   F
(PID.TID 0000.0001)     ;
(PID.TID 0000.0001) usingZCoords =  /* use z (or z*) vertical coordinate */
(PID.TID 0000.0001)                   T
(PID.TID 0000.0001)     ;
(PID.TID 0000.0001) tRef =   /* Reference temperature profile ( oC or K ) */
(PID.TID 0000.0001)    30 @ -1.900000000000000E+00              /* K =  1: 30 */
(PID.TID 0000.0001)     ;
(PID.TID 0000.0001) sRef =   /* Reference salinity profile ( psu ) */
(PID.TID 0000.0001)    30 @  3.440000000000000E+01              /* K =  1: 30 */
(PID.TID 0000.0001)     ;
(PID.TID 0000.0001) useStrainTensionVisc= /* Use StrainTension Form of Viscous Operator */
(PID.TID 0000.0001)                   F
(PID.TID 0000.0001)     ;
(PID.TID 0000.0001) useVariableVisc = /* Use variable horizontal viscosity */
(PID.TID 0000.0001)                   F
(PID.TID 0000.0001)     ;
(PID.TID 0000.0001) useHarmonicVisc = /* Use harmonic horizontal viscosity */
(PID.TID 0000.0001)                   T
(PID.TID 0000.0001)     ;
(PID.TID 0000.0001) useBiharmonicVisc= /* Use biharmonic horiz.  viscosity */
(PID.TID 0000.0001)                   F
(PID.TID 0000.0001)     ;
(PID.TID 0000.0001) useSmag3D = /* Use isotropic 3-D Smagorinsky viscosity */
(PID.TID 0000.0001)                   F
(PID.TID 0000.0001)     ;
(PID.TID 0000.0001) viscAh  =   /* Lateral harmonic viscosity ( m^2/s ) */
(PID.TID 0000.0001)                 6.000000000000000E+02
(PID.TID 0000.0001)     ;
(PID.TID 0000.0001) viscA4  =   /* Lateral biharmonic viscosity ( m^4/s ) */
(PID.TID 0000.0001)                 0.000000000000000E+00
(PID.TID 0000.0001)     ;
(PID.TID 0000.0001) no_slip_sides =  /* Viscous BCs: No-slip sides */
(PID.TID 0000.0001)                   F
(PID.TID 0000.0001)     ;
(PID.TID 0000.0001) sideDragFactor = /* side-drag scaling factor (non-dim) */
(PID.TID 0000.0001)                 2.000000000000000E+00
(PID.TID 0000.0001)     ;
(PID.TID 0000.0001) viscArNr = /* vertical profile of vertical viscosity ( m^2/s )*/
(PID.TID 0000.0001)    30 @  1.000000000000000E-03              /* K =  1: 30 */
(PID.TID 0000.0001)     ;
(PID.TID 0000.0001) no_slip_bottom =  /* Viscous BCs: No-slip bottom */
(PID.TID 0000.0001)                   T
(PID.TID 0000.0001)     ;
(PID.TID 0000.0001) bottomVisc_pCell = /* Partial-cell in bottom Visc. BC */
(PID.TID 0000.0001)                   F
(PID.TID 0000.0001)     ;
(PID.TID 0000.0001) bottomDragLinear = /* linear bottom-drag coefficient ( m/s ) */
(PID.TID 0000.0001)                 0.000000000000000E+00
(PID.TID 0000.0001)     ;
(PID.TID 0000.0001) bottomDragQuadratic = /* quadratic bottom-drag coefficient (-) */
(PID.TID 0000.0001)                 2.500000000000000E-03
(PID.TID 0000.0001)     ;
(PID.TID 0000.0001) selectBotDragQuadr = /* select quadratic bottom drag options */
(PID.TID 0000.0001)                       0
(PID.TID 0000.0001)     ;
(PID.TID 0000.0001) diffKhT =   /* Laplacian diffusion of heat laterally ( m^2/s ) */
(PID.TID 0000.0001)                 1.000000000000000E+02
(PID.TID 0000.0001)     ;
(PID.TID 0000.0001) diffK4T =   /* Biharmonic diffusion of heat laterally ( m^4/s ) */
(PID.TID 0000.0001)                 0.000000000000000E+00
(PID.TID 0000.0001)     ;
(PID.TID 0000.0001) diffKhS =   /* Laplacian diffusion of salt laterally ( m^2/s ) */
(PID.TID 0000.0001)                 1.000000000000000E+02
(PID.TID 0000.0001)     ;
(PID.TID 0000.0001) diffK4S =   /* Biharmonic diffusion of salt laterally ( m^4/s ) */
(PID.TID 0000.0001)                 0.000000000000000E+00
(PID.TID 0000.0001)     ;
(PID.TID 0000.0001) diffKrNrT = /* vertical profile of vertical diffusion of Temp ( m^2/s )*/
(PID.TID 0000.0001)    30 @  5.000000000000000E-05              /* K =  1: 30 */
(PID.TID 0000.0001)     ;
(PID.TID 0000.0001) diffKrNrS = /* vertical profile of vertical diffusion of Salt ( m^2/s )*/
(PID.TID 0000.0001)    30 @  5.000000000000000E-05              /* K =  1: 30 */
(PID.TID 0000.0001)     ;
(PID.TID 0000.0001) diffKrBL79surf = /* Surface diffusion for Bryan and Lewis 79 ( m^2/s ) */
(PID.TID 0000.0001)                 0.000000000000000E+00
(PID.TID 0000.0001)     ;
(PID.TID 0000.0001) diffKrBL79deep = /* Deep diffusion for Bryan and Lewis 1979 ( m^2/s ) */
(PID.TID 0000.0001)                 0.000000000000000E+00
(PID.TID 0000.0001)     ;
(PID.TID 0000.0001) diffKrBL79scl = /* Depth scale for Bryan and Lewis 1979 ( m ) */
(PID.TID 0000.0001)                 2.000000000000000E+02
(PID.TID 0000.0001)     ;
(PID.TID 0000.0001) diffKrBL79Ho = /* Turning depth for Bryan and Lewis 1979 ( m ) */
(PID.TID 0000.0001)                -2.000000000000000E+03
(PID.TID 0000.0001)     ;
(PID.TID 0000.0001) ivdc_kappa = /* Implicit Vertical Diffusivity for Convection ( m^2/s) */
(PID.TID 0000.0001)                 0.000000000000000E+00
(PID.TID 0000.0001)     ;
(PID.TID 0000.0001) hMixCriteria=  /* Criteria for mixed-layer diagnostic */
(PID.TID 0000.0001)                -8.000000000000000E-01
(PID.TID 0000.0001)     ;
(PID.TID 0000.0001) dRhoSmall =  /* Parameter for mixed-layer diagnostic */
(PID.TID 0000.0001)                 1.000000000000000E-06
(PID.TID 0000.0001)     ;
(PID.TID 0000.0001) hMixSmooth=  /* Smoothing parameter for mixed-layer diagnostic */
(PID.TID 0000.0001)                 0.000000000000000E+00
(PID.TID 0000.0001)     ;
(PID.TID 0000.0001) eosType =  /* Type of Equation of State */
(PID.TID 0000.0001)               'JMD95Z'
(PID.TID 0000.0001)     ;
(PID.TID 0000.0001) selectP_inEOS_Zc = /* select pressure to use in EOS (0,1,2,3) */
(PID.TID 0000.0001)                       0
(PID.TID 0000.0001)     0= -g*rhoConst*z ; 1= pRef (from tRef,sRef); 2= Hyd P ; 3= Hyd+NH P
(PID.TID 0000.0001)     ;
(PID.TID 0000.0001) HeatCapacity_Cp =  /* Specific heat capacity ( J/kg/K ) */
(PID.TID 0000.0001)                 3.974000000000000E+03
(PID.TID 0000.0001)     ;
(PID.TID 0000.0001) celsius2K = /* 0 degree Celsius converted to Kelvin ( K ) */
(PID.TID 0000.0001)                 2.731500000000000E+02
(PID.TID 0000.0001)     ;
(PID.TID 0000.0001) rhoConst  = /* Reference density (Boussinesq)  ( kg/m^3 ) */
(PID.TID 0000.0001)                 1.030000000000000E+03
(PID.TID 0000.0001)     ;
(PID.TID 0000.0001) rhoFacC = /* normalized Reference density @ cell-Center (-) */
(PID.TID 0000.0001)    30 @  1.000000000000000E+00              /* K =  1: 30 */
(PID.TID 0000.0001)     ;
(PID.TID 0000.0001) rhoFacF = /* normalized Reference density @ W-Interface (-) */
(PID.TID 0000.0001)    31 @  1.000000000000000E+00              /* K =  1: 31 */
(PID.TID 0000.0001)     ;
(PID.TID 0000.0001) rhoConstFresh = /* Fresh-water reference density ( kg/m^3 ) */
(PID.TID 0000.0001)                 1.030000000000000E+03
(PID.TID 0000.0001)     ;
(PID.TID 0000.0001) gravity =   /* Gravitational acceleration ( m/s^2 ) */
(PID.TID 0000.0001)                 9.810000000000000E+00
(PID.TID 0000.0001)     ;
(PID.TID 0000.0001) gBaro =   /* Barotropic gravity ( m/s^2 ) */
(PID.TID 0000.0001)                 9.810000000000000E+00
(PID.TID 0000.0001)     ;
(PID.TID 0000.0001) gravFacC = /* gravity factor (vs surf.) @ cell-Center (-) */
(PID.TID 0000.0001)    30 @  1.000000000000000E+00              /* K =  1: 30 */
(PID.TID 0000.0001)     ;
(PID.TID 0000.0001) gravFacF = /* gravity factor (vs surf.) @ W-Interface (-) */
(PID.TID 0000.0001)    31 @  1.000000000000000E+00              /* K =  1: 31 */
(PID.TID 0000.0001)     ;
(PID.TID 0000.0001) rotationPeriod =   /* Rotation Period ( s ) */
(PID.TID 0000.0001)                 8.616400000000000E+04
(PID.TID 0000.0001)     ;
(PID.TID 0000.0001) omega =   /* Angular velocity ( rad/s ) */
(PID.TID 0000.0001)                 7.292123516990375E-05
(PID.TID 0000.0001)     ;
(PID.TID 0000.0001) f0 =   /* Reference coriolis parameter ( 1/s ) */
(PID.TID 0000.0001)                 1.000000000000000E-04
(PID.TID 0000.0001)     ;
(PID.TID 0000.0001) beta =   /* Beta ( 1/(m.s) ) */
(PID.TID 0000.0001)                 9.999999999999999E-12
(PID.TID 0000.0001)     ;
(PID.TID 0000.0001) fPrime =   /* Second coriolis parameter ( 1/s ) */
(PID.TID 0000.0001)                 0.000000000000000E+00
(PID.TID 0000.0001)     ;
(PID.TID 0000.0001) rigidLid =   /* Rigid lid on/off flag */
(PID.TID 0000.0001)                   F
(PID.TID 0000.0001)     ;
(PID.TID 0000.0001) implicitFreeSurface =   /* Implicit free surface on/off flag */
(PID.TID 0000.0001)                   T
(PID.TID 0000.0001)     ;
(PID.TID 0000.0001) freeSurfFac =   /* Implicit free surface factor */
(PID.TID 0000.0001)                 1.000000000000000E+00
(PID.TID 0000.0001)     ;
(PID.TID 0000.0001) implicSurfPress =  /* Surface Pressure implicit factor (0-1)*/
(PID.TID 0000.0001)                 1.000000000000000E+00
(PID.TID 0000.0001)     ;
(PID.TID 0000.0001) implicDiv2DFlow =  /* Barot. Flow Div. implicit factor (0-1)*/
(PID.TID 0000.0001)                 1.000000000000000E+00
(PID.TID 0000.0001)     ;
(PID.TID 0000.0001) uniformLin_PhiSurf = /* use uniform Bo_surf on/off flag*/
(PID.TID 0000.0001)                   T
(PID.TID 0000.0001)     ;
(PID.TID 0000.0001) uniformFreeSurfLev = /* free-surface level-index is uniform */
(PID.TID 0000.0001)                   F
(PID.TID 0000.0001)     ;
(PID.TID 0000.0001) hFacMin =   /* minimum partial cell factor (hFac) */
(PID.TID 0000.0001)                 5.000000000000000E-02
(PID.TID 0000.0001)     ;
(PID.TID 0000.0001) hFacMinDr = /* minimum partial cell thickness ( m) */
(PID.TID 0000.0001)                 0.000000000000000E+00
(PID.TID 0000.0001)     ;
(PID.TID 0000.0001) exactConserv =  /* Exact Volume Conservation on/off flag*/
(PID.TID 0000.0001)                   T
(PID.TID 0000.0001)     ;
(PID.TID 0000.0001) linFSConserveTr = /* Tracer correction for Lin Free Surface on/off flag*/
(PID.TID 0000.0001)                   F
(PID.TID 0000.0001)     ;
(PID.TID 0000.0001) nonlinFreeSurf = /* Non-linear Free Surf. options (-1,0,1,2,3)*/
(PID.TID 0000.0001)                       4
(PID.TID 0000.0001)      -1,0= Off ; 1,2,3= On, 2=+rescale gU,gV, 3=+update cg2d solv.
(PID.TID 0000.0001)     ;
(PID.TID 0000.0001) hFacInf =   /* lower threshold for hFac (nonlinFreeSurf only)*/
(PID.TID 0000.0001)                 2.000000000000000E-02
(PID.TID 0000.0001)     ;
(PID.TID 0000.0001) hFacSup =   /* upper threshold for hFac (nonlinFreeSurf only)*/
(PID.TID 0000.0001)                 2.000000000000000E+00
(PID.TID 0000.0001)     ;
(PID.TID 0000.0001) select_rStar = /* r* Vertical coord. options (=0 r coord.; >0 uses r*)*/
(PID.TID 0000.0001)                       0
(PID.TID 0000.0001)     ;
(PID.TID 0000.0001) useRealFreshWaterFlux = /* Real Fresh Water Flux on/off flag*/
(PID.TID 0000.0001)                   F
(PID.TID 0000.0001)     ;
(PID.TID 0000.0001) temp_EvPrRn = /* Temp. of Evap/Prec/R (UNSET=use local T)(oC)*/
(PID.TID 0000.0001)                 1.234567000000000E+05
(PID.TID 0000.0001)     ;
(PID.TID 0000.0001) salt_EvPrRn = /* Salin. of Evap/Prec/R (UNSET=use local S)(psu)*/
(PID.TID 0000.0001)                 0.000000000000000E+00
(PID.TID 0000.0001)     ;
(PID.TID 0000.0001) selectAddFluid = /* option for mass source/sink of fluid (=0: off) */
(PID.TID 0000.0001)                       0
(PID.TID 0000.0001)     ;
(PID.TID 0000.0001) temp_addMass = /* Temp. of addMass array (UNSET=use local T)(oC)*/
(PID.TID 0000.0001)                 1.234567000000000E+05
(PID.TID 0000.0001)     ;
(PID.TID 0000.0001) salt_addMass = /* Salin. of addMass array (UNSET=use local S)(psu)*/
(PID.TID 0000.0001)                 0.000000000000000E+00
(PID.TID 0000.0001)     ;
(PID.TID 0000.0001) convertFW2Salt = /* convert F.W. Flux to Salt Flux (-1=use local S)(psu)*/
(PID.TID 0000.0001)                 3.340000000000000E+01
(PID.TID 0000.0001)     ;
(PID.TID 0000.0001) use3Dsolver = /* use 3-D pressure solver on/off flag */
(PID.TID 0000.0001)                   F
(PID.TID 0000.0001)     ;
(PID.TID 0000.0001) nonHydrostatic =  /* Non-Hydrostatic on/off flag */
(PID.TID 0000.0001)                   F
(PID.TID 0000.0001)     ;
(PID.TID 0000.0001) nh_Am2 = /* Non-Hydrostatic terms scaling factor */
(PID.TID 0000.0001)                 1.000000000000000E+00
(PID.TID 0000.0001)     ;
(PID.TID 0000.0001) implicitNHPress = /* Non-Hyd Pressure implicit factor (0-1)*/
(PID.TID 0000.0001)                 1.000000000000000E+00
(PID.TID 0000.0001)     ;
(PID.TID 0000.0001) selectNHfreeSurf = /* Non-Hyd (free-)Surface option */
(PID.TID 0000.0001)                       0
(PID.TID 0000.0001)     ;
(PID.TID 0000.0001) quasiHydrostatic = /* Quasi-Hydrostatic on/off flag */
(PID.TID 0000.0001)                   F
(PID.TID 0000.0001)     ;
(PID.TID 0000.0001) calc_wVelocity = /* vertical velocity calculation on/off flag */
(PID.TID 0000.0001)                   T
(PID.TID 0000.0001)     ;
(PID.TID 0000.0001) momStepping =  /* Momentum equation on/off flag */
(PID.TID 0000.0001)                   T
(PID.TID 0000.0001)     ;
(PID.TID 0000.0001) vectorInvariantMomentum= /* Vector-Invariant Momentum on/off */
(PID.TID 0000.0001)                   F
(PID.TID 0000.0001)     ;
(PID.TID 0000.0001) momAdvection =  /* Momentum advection on/off flag */
(PID.TID 0000.0001)                   T
(PID.TID 0000.0001)     ;
(PID.TID 0000.0001) momViscosity =  /* Momentum viscosity on/off flag */
(PID.TID 0000.0001)                   T
(PID.TID 0000.0001)     ;
(PID.TID 0000.0001) momImplVertAdv= /* Momentum implicit vert. advection on/off*/
(PID.TID 0000.0001)                   F
(PID.TID 0000.0001)     ;
(PID.TID 0000.0001) implicitViscosity = /* Implicit viscosity on/off flag */
(PID.TID 0000.0001)                   F
(PID.TID 0000.0001)     ;
(PID.TID 0000.0001) selectImplicitDrag= /* Implicit bot Drag options (0,1,2)*/
(PID.TID 0000.0001)                       0
(PID.TID 0000.0001)     0= Expl. ; 1= Impl. on provis. Vel ; 2= Fully Impl (with surf.P)
(PID.TID 0000.0001)     ;
(PID.TID 0000.0001) metricTerms =  /* metric-Terms on/off flag */
(PID.TID 0000.0001)                   T
(PID.TID 0000.0001)     ;
(PID.TID 0000.0001) useNHMTerms = /* Non-Hydrostatic Metric-Terms on/off */
(PID.TID 0000.0001)                   F
(PID.TID 0000.0001)     ;
(PID.TID 0000.0001) selectCoriMap = /* Coriolis Map options (0,1,2,3)*/
(PID.TID 0000.0001)                       2
(PID.TID 0000.0001)     0= f-Plane ; 1= Beta-Plane ; 2= Spherical ; 3= read from file
(PID.TID 0000.0001)     ;
(PID.TID 0000.0001) use3dCoriolis = /* 3-D Coriolis on/off flag */
(PID.TID 0000.0001)                   F
(PID.TID 0000.0001)     ;
(PID.TID 0000.0001) useCoriolis =  /* Coriolis on/off flag */
(PID.TID 0000.0001)                   T
(PID.TID 0000.0001)     ;
(PID.TID 0000.0001) useCDscheme =  /* CD scheme on/off flag */
(PID.TID 0000.0001)                   T
(PID.TID 0000.0001)     ;
(PID.TID 0000.0001) useEnergyConservingCoriolis= /* Flx-Form Coriolis scheme flag */
(PID.TID 0000.0001)                   F
(PID.TID 0000.0001)     ;
(PID.TID 0000.0001) useJamartWetPoints= /* Coriolis WetPoints method flag */
(PID.TID 0000.0001)                   F
(PID.TID 0000.0001)     ;
(PID.TID 0000.0001) useJamartMomAdv= /* V.I Non-linear terms Jamart flag */
(PID.TID 0000.0001)                   F
(PID.TID 0000.0001)     ;
(PID.TID 0000.0001) useAbsVorticity= /* V.I Works with f+zeta in Coriolis */
(PID.TID 0000.0001)                   F
(PID.TID 0000.0001)     ;
(PID.TID 0000.0001) selectVortScheme= /* V.I Scheme selector for Vorticity-Term */
(PID.TID 0000.0001)               123456789
(PID.TID 0000.0001)    = 0 : enstrophy (Shallow-Water Eq.) conserving scheme by Sadourny, JAS 75
(PID.TID 0000.0001)    = 1 : same as 0 with modified hFac
(PID.TID 0000.0001)    = 2 : energy conserving scheme (used by Sadourny in JAS 75 paper)
(PID.TID 0000.0001)    = 3 : energy (general) and enstrophy (2D, nonDiv.) conserving scheme
(PID.TID 0000.0001)          from Sadourny (Burridge & Haseler, ECMWF Rep.4, 1977)
(PID.TID 0000.0001)     ;
(PID.TID 0000.0001) upwindVorticity= /* V.I Upwind bias vorticity flag */
(PID.TID 0000.0001)                   F
(PID.TID 0000.0001)     ;
(PID.TID 0000.0001) highOrderVorticity= /* V.I High order vort. advect. flag */
(PID.TID 0000.0001)                   F
(PID.TID 0000.0001)     ;
(PID.TID 0000.0001) upwindShear= /* V.I Upwind vertical Shear advection flag */
(PID.TID 0000.0001)                   F
(PID.TID 0000.0001)     ;
(PID.TID 0000.0001) selectKEscheme= /* V.I Kinetic Energy scheme selector */
(PID.TID 0000.0001)                       0
(PID.TID 0000.0001)     ;
(PID.TID 0000.0001) momForcing =  /* Momentum forcing on/off flag */
(PID.TID 0000.0001)                   T
(PID.TID 0000.0001)     ;
(PID.TID 0000.0001) momPressureForcing =  /* Momentum pressure term on/off flag */
(PID.TID 0000.0001)                   T
(PID.TID 0000.0001)     ;
(PID.TID 0000.0001) implicitIntGravWave= /* Implicit Internal Gravity Wave flag */
(PID.TID 0000.0001)                   F
(PID.TID 0000.0001)     ;
(PID.TID 0000.0001) staggerTimeStep =    /* Stagger time stepping on/off flag */
(PID.TID 0000.0001)                   F
(PID.TID 0000.0001)     ;
(PID.TID 0000.0001) doResetHFactors = /* reset thickness factors @ each time-step */
(PID.TID 0000.0001)                   F
(PID.TID 0000.0001)     ;
(PID.TID 0000.0001) multiDimAdvection =  /* enable/disable Multi-Dim Advection */
(PID.TID 0000.0001)                   T
(PID.TID 0000.0001)     ;
(PID.TID 0000.0001) useMultiDimAdvec =   /* Multi-Dim Advection is/is-not used */
(PID.TID 0000.0001)                   F
(PID.TID 0000.0001)     ;
(PID.TID 0000.0001) implicitDiffusion = /* Implicit Diffusion on/off flag */
(PID.TID 0000.0001)                   F
(PID.TID 0000.0001)     ;
(PID.TID 0000.0001) tempStepping =  /* Temperature equation on/off flag */
(PID.TID 0000.0001)                   T
(PID.TID 0000.0001)     ;
(PID.TID 0000.0001) tempAdvection = /* Temperature advection on/off flag */
(PID.TID 0000.0001)                   T
(PID.TID 0000.0001)     ;
(PID.TID 0000.0001) tempImplVertAdv = /* Temp. implicit vert. advection on/off */
(PID.TID 0000.0001)                   F
(PID.TID 0000.0001)     ;
(PID.TID 0000.0001) tempForcing  =  /* Temperature forcing on/off flag */
(PID.TID 0000.0001)                   T
(PID.TID 0000.0001)     ;
(PID.TID 0000.0001) doThetaClimRelax = /* apply SST relaxation on/off flag */
(PID.TID 0000.0001)                   F
(PID.TID 0000.0001)     ;
(PID.TID 0000.0001) tempIsActiveTr = /* Temp. is a dynamically Active Tracer */
(PID.TID 0000.0001)                   T
(PID.TID 0000.0001)     ;
(PID.TID 0000.0001) saltStepping =  /* Salinity equation on/off flag */
(PID.TID 0000.0001)                   T
(PID.TID 0000.0001)     ;
(PID.TID 0000.0001) saltAdvection = /* Salinity advection on/off flag */
(PID.TID 0000.0001)                   T
(PID.TID 0000.0001)     ;
(PID.TID 0000.0001) saltImplVertAdv = /* Sali. implicit vert. advection on/off */
(PID.TID 0000.0001)                   F
(PID.TID 0000.0001)     ;
(PID.TID 0000.0001) saltForcing  =  /* Salinity forcing on/off flag */
(PID.TID 0000.0001)                   T
(PID.TID 0000.0001)     ;
(PID.TID 0000.0001) doSaltClimRelax = /* apply SSS relaxation on/off flag */
(PID.TID 0000.0001)                   F
(PID.TID 0000.0001)     ;
(PID.TID 0000.0001) saltIsActiveTr = /* Salt  is a dynamically Active Tracer */
(PID.TID 0000.0001)                   T
(PID.TID 0000.0001)     ;
(PID.TID 0000.0001)  readBinaryPrec = /* Precision used for reading binary files */
(PID.TID 0000.0001)                      64
(PID.TID 0000.0001)     ;
(PID.TID 0000.0001) writeBinaryPrec = /* Precision used for writing binary files */
(PID.TID 0000.0001)                      32
(PID.TID 0000.0001)     ;
(PID.TID 0000.0001)  rwSuffixType =   /* select format of mds file suffix */
(PID.TID 0000.0001)                       0
(PID.TID 0000.0001)    = 0 : myIter (I10.10) ;   = 1 : 100*myTime (100th sec) ;
(PID.TID 0000.0001)    = 2 : myTime (seconds);   = 3 : myTime/360 (10th of hr);
(PID.TID 0000.0001)    = 4 : myTime/3600 (hours)
(PID.TID 0000.0001)     ;
(PID.TID 0000.0001)  globalFiles = /* write "global" (=not per tile) files */
(PID.TID 0000.0001)                   F
(PID.TID 0000.0001)     ;
(PID.TID 0000.0001)  useSingleCpuIO = /* only master MPI process does I/O */
(PID.TID 0000.0001)                   F
(PID.TID 0000.0001)     ;
(PID.TID 0000.0001)  useSingleCpuInput = /* only master process reads input */
(PID.TID 0000.0001)                   F
(PID.TID 0000.0001)     ;
(PID.TID 0000.0001) /* debLev[*]  : level of debug & auxiliary message printing */
(PID.TID 0000.0001) debLevZero =  0 ; /* level of disabled aux. msg printing */
(PID.TID 0000.0001)    debLevA =  1 ; /* level of minimum  aux. msg printing */
(PID.TID 0000.0001)    debLevB =  2 ; /* level of low aux. print (report read-file opening)*/
(PID.TID 0000.0001)    debLevC =  3 ; /* level of moderate debug prt (most pkgs debug msg) */
(PID.TID 0000.0001)    debLevD =  4 ; /* level of enhanced debug prt (add DEBUG_STATS prt) */
(PID.TID 0000.0001)    debLevE =  5 ; /* level of extensive debug printing */
(PID.TID 0000.0001) debugLevel =  /* select debug printing level */
(PID.TID 0000.0001)                       2
(PID.TID 0000.0001)     ;
(PID.TID 0000.0001)  plotLevel =  /* select PLOT_FIELD printing level */
(PID.TID 0000.0001)                       2
(PID.TID 0000.0001)     ;
(PID.TID 0000.0001) //
(PID.TID 0000.0001) // Elliptic solver(s) paramters ( PARM02 in namelist )
(PID.TID 0000.0001) //
(PID.TID 0000.0001) cg2dMaxIters =   /* Upper limit on 2d con. grad iterations  */
(PID.TID 0000.0001)                    1000
(PID.TID 0000.0001)     ;
(PID.TID 0000.0001) cg2dChkResFreq =   /* 2d con. grad convergence test frequency */
(PID.TID 0000.0001)                       1
(PID.TID 0000.0001)     ;
(PID.TID 0000.0001) cg2dUseMinResSol= /* use cg2d last-iter(=0) / min-resid.(=1) solution */
(PID.TID 0000.0001)                       0
(PID.TID 0000.0001)     ;
(PID.TID 0000.0001) cg2dTargetResidual =   /* 2d con. grad target residual  */
(PID.TID 0000.0001)                 1.000000000000000E-13
(PID.TID 0000.0001)     ;
(PID.TID 0000.0001) cg2dTargetResWunit =   /* CG2d target residual [W units] */
(PID.TID 0000.0001)                -1.000000000000000E+00
(PID.TID 0000.0001)     ;
(PID.TID 0000.0001) cg2dPreCondFreq =   /* Freq. for updating cg2d preconditioner */
(PID.TID 0000.0001)                       1
(PID.TID 0000.0001)     ;
(PID.TID 0000.0001) useSRCGSolver =  /* use single reduction CG solver(s) */
(PID.TID 0000.0001)                   F
(PID.TID 0000.0001)     ;
(PID.TID 0000.0001) printResidualFreq = /* Freq. for printing CG residual */
(PID.TID 0000.0001)                       0
(PID.TID 0000.0001)     ;
(PID.TID 0000.0001) //
(PID.TID 0000.0001) // Time stepping paramters ( PARM03 in namelist )
(PID.TID 0000.0001) //
(PID.TID 0000.0001) deltaTMom =   /* Momentum equation timestep ( s ) */
(PID.TID 0000.0001)                 1.800000000000000E+03
(PID.TID 0000.0001)     ;
(PID.TID 0000.0001) deltaTFreeSurf = /* FreeSurface equation timestep ( s ) */
(PID.TID 0000.0001)                 1.800000000000000E+03
(PID.TID 0000.0001)     ;
(PID.TID 0000.0001) dTtracerLev =  /* Tracer equation timestep ( s ) */
(PID.TID 0000.0001)    30 @  1.800000000000000E+03              /* K =  1: 30 */
(PID.TID 0000.0001)     ;
(PID.TID 0000.0001) deltaTClock  =   /* Model clock timestep ( s ) */
(PID.TID 0000.0001)                 1.800000000000000E+03
(PID.TID 0000.0001)     ;
(PID.TID 0000.0001) cAdjFreq =   /* Convective adjustment interval ( s ) */
(PID.TID 0000.0001)                 1.800000000000000E+03
(PID.TID 0000.0001)     ;
(PID.TID 0000.0001) momForcingOutAB = /* =1: take Momentum Forcing out of Adams-Bash. stepping */
(PID.TID 0000.0001)                       0
(PID.TID 0000.0001)     ;
(PID.TID 0000.0001) tracForcingOutAB = /* =1: take T,S,pTr Forcing out of Adams-Bash. stepping */
(PID.TID 0000.0001)                       0
(PID.TID 0000.0001)     ;
(PID.TID 0000.0001) momDissip_In_AB = /* put Dissipation Tendency in Adams-Bash. stepping */
(PID.TID 0000.0001)                   T
(PID.TID 0000.0001)     ;
(PID.TID 0000.0001) doAB_onGtGs = /* apply AB on Tendencies (rather than on T,S)*/
(PID.TID 0000.0001)                   T
(PID.TID 0000.0001)     ;
(PID.TID 0000.0001) abEps =   /* Adams-Bashforth-2 stabilizing weight */
(PID.TID 0000.0001)                 1.000000000000000E-01
(PID.TID 0000.0001)     ;
(PID.TID 0000.0001) applyExchUV_early = /* Apply EXCH to U,V earlier in time-step */
(PID.TID 0000.0001)                   F
(PID.TID 0000.0001)     ;
(PID.TID 0000.0001) tauCD =   /* CD coupling time-scale ( s ) */
(PID.TID 0000.0001)                 4.000000000000000E+05
(PID.TID 0000.0001)     ;
(PID.TID 0000.0001) rCD =   /* Normalised CD coupling parameter */
(PID.TID 0000.0001)                 9.955000000000001E-01
(PID.TID 0000.0001)     ;
(PID.TID 0000.0001) epsAB_CD = /* AB-2 stabilizing weight for CD-scheme*/
(PID.TID 0000.0001)                 1.000000000000000E-01
(PID.TID 0000.0001)     ;
(PID.TID 0000.0001) pickupStrictlyMatch= /* stop if pickup do not strictly match */
(PID.TID 0000.0001)                   T
(PID.TID 0000.0001)     ;
(PID.TID 0000.0001) nIter0   =   /* Run starting timestep number */
(PID.TID 0000.0001)                    8640
(PID.TID 0000.0001)     ;
(PID.TID 0000.0001) nTimeSteps = /* Number of timesteps */
(PID.TID 0000.0001)                      20
(PID.TID 0000.0001)     ;
(PID.TID 0000.0001) nEndIter =   /* Run ending timestep number */
(PID.TID 0000.0001)                    8660
(PID.TID 0000.0001)     ;
(PID.TID 0000.0001) baseTime =   /* Model base time ( s ) */
(PID.TID 0000.0001)                 0.000000000000000E+00
(PID.TID 0000.0001)     ;
(PID.TID 0000.0001) startTime =  /* Run start time ( s ) */
(PID.TID 0000.0001)                 1.555200000000000E+07
(PID.TID 0000.0001)     ;
(PID.TID 0000.0001) endTime  =   /* Integration ending time ( s ) */
(PID.TID 0000.0001)                 1.558800000000000E+07
(PID.TID 0000.0001)     ;
(PID.TID 0000.0001) pChkPtFreq = /* Permanent restart/pickup file interval ( s ) */
(PID.TID 0000.0001)                 0.000000000000000E+00
(PID.TID 0000.0001)     ;
(PID.TID 0000.0001) chkPtFreq  = /* Rolling restart/pickup file interval ( s ) */
(PID.TID 0000.0001)                 0.000000000000000E+00
(PID.TID 0000.0001)     ;
(PID.TID 0000.0001) pickup_write_mdsio =   /* Model IO flag. */
(PID.TID 0000.0001)                   T
(PID.TID 0000.0001)     ;
(PID.TID 0000.0001) pickup_read_mdsio =   /* Model IO flag. */
(PID.TID 0000.0001)                   T
(PID.TID 0000.0001)     ;
(PID.TID 0000.0001) pickup_write_mnc =   /* Model IO flag. */
(PID.TID 0000.0001)                   F
(PID.TID 0000.0001)     ;
(PID.TID 0000.0001) pickup_read_mnc =   /* Model IO flag. */
(PID.TID 0000.0001)                   F
(PID.TID 0000.0001)     ;
(PID.TID 0000.0001) writePickupAtEnd =   /* Model IO flag. */
(PID.TID 0000.0001)                   T
(PID.TID 0000.0001)     ;
(PID.TID 0000.0001) dumpFreq =   /* Model state write out interval ( s ). */
(PID.TID 0000.0001)                 0.000000000000000E+00
(PID.TID 0000.0001)     ;
(PID.TID 0000.0001) dumpInitAndLast= /* write out Initial & Last iter. model state */
(PID.TID 0000.0001)                   T
(PID.TID 0000.0001)     ;
(PID.TID 0000.0001) snapshot_mdsio =   /* Model IO flag. */
(PID.TID 0000.0001)                   F
(PID.TID 0000.0001)     ;
(PID.TID 0000.0001) snapshot_mnc =   /* Model IO flag. */
(PID.TID 0000.0001)                   T
(PID.TID 0000.0001)     ;
(PID.TID 0000.0001) monitorFreq =   /* Monitor output interval ( s ). */
(PID.TID 0000.0001)                 1.000000000000000E+00
(PID.TID 0000.0001)     ;
(PID.TID 0000.0001) monitorSelect = /* select group of variables to monitor */
(PID.TID 0000.0001)                       2
(PID.TID 0000.0001)     ;
(PID.TID 0000.0001) monitor_stdio =   /* Model IO flag. */
(PID.TID 0000.0001)                   T
(PID.TID 0000.0001)     ;
(PID.TID 0000.0001) monitor_mnc =   /* Model IO flag. */
(PID.TID 0000.0001)                   F
(PID.TID 0000.0001)     ;
(PID.TID 0000.0001) externForcingPeriod =   /* forcing period (s) */
(PID.TID 0000.0001)                 0.000000000000000E+00
(PID.TID 0000.0001)     ;
(PID.TID 0000.0001) externForcingCycle =   /* period of the cyle (s). */
(PID.TID 0000.0001)                 0.000000000000000E+00
(PID.TID 0000.0001)     ;
(PID.TID 0000.0001) tauThetaClimRelax =   /* relaxation time scale (s) */
(PID.TID 0000.0001)                 0.000000000000000E+00
(PID.TID 0000.0001)     ;
(PID.TID 0000.0001) tauSaltClimRelax =   /* relaxation time scale (s) */
(PID.TID 0000.0001)                 0.000000000000000E+00
(PID.TID 0000.0001)     ;
(PID.TID 0000.0001) latBandClimRelax =   /* max. Lat. where relaxation */
(PID.TID 0000.0001)                 1.800000000000000E+02
(PID.TID 0000.0001)     ;
(PID.TID 0000.0001) //
(PID.TID 0000.0001) // Gridding paramters ( PARM04 in namelist )
(PID.TID 0000.0001) //
(PID.TID 0000.0001) usingCartesianGrid = /* Cartesian coordinates flag ( True/False ) */
(PID.TID 0000.0001)                   F
(PID.TID 0000.0001)     ;
(PID.TID 0000.0001) usingCylindricalGrid = /* Cylindrical coordinates flag ( True/False ) */
(PID.TID 0000.0001)                   F
(PID.TID 0000.0001)     ;
(PID.TID 0000.0001) usingSphericalPolarGrid = /* Spherical coordinates flag ( True/False ) */
(PID.TID 0000.0001)                   T
(PID.TID 0000.0001)     ;
(PID.TID 0000.0001) usingCurvilinearGrid = /* Curvilinear coordinates flag ( True/False ) */
(PID.TID 0000.0001)                   F
(PID.TID 0000.0001)     ;
(PID.TID 0000.0001) selectSigmaCoord = /* Hybrid-Sigma Vert. Coordinate option */
(PID.TID 0000.0001)                       0
(PID.TID 0000.0001)     ;
(PID.TID 0000.0001) rSigmaBnd = /* r/sigma transition ( units of r ==  m ) */
(PID.TID 0000.0001)                 1.234567000000000E+05
(PID.TID 0000.0001)     ;
(PID.TID 0000.0001) rkSign =   /* index orientation relative to vertical coordinate */
(PID.TID 0000.0001)                -1.000000000000000E+00
(PID.TID 0000.0001)     ;
(PID.TID 0000.0001) gravitySign = /* gravity orientation relative to vertical coordinate */
(PID.TID 0000.0001)                -1.000000000000000E+00
(PID.TID 0000.0001)     ;
(PID.TID 0000.0001) seaLev_Z =  /* reference height of sea-level [m] */
(PID.TID 0000.0001)                 0.000000000000000E+00
(PID.TID 0000.0001)     ;
(PID.TID 0000.0001) top_Pres =  /* reference pressure at the top [Pa] */
(PID.TID 0000.0001)                 0.000000000000000E+00
(PID.TID 0000.0001)     ;
(PID.TID 0000.0001) mass2rUnit = /* convert mass per unit area [kg/m2] to r-units [m] */
(PID.TID 0000.0001)                 9.708737864077669E-04
(PID.TID 0000.0001)     ;
(PID.TID 0000.0001) rUnit2mass = /* convert r-units [m] to mass per unit area [kg/m2] */
(PID.TID 0000.0001)                 1.030000000000000E+03
(PID.TID 0000.0001)     ;
(PID.TID 0000.0001) drC =   /* C spacing ( units of r ) */
(PID.TID 0000.0001)                 1.500000000000000E+01,      /* K =  1 */
(PID.TID 0000.0001)    29 @  3.000000000000000E+01,             /* K =  2: 30 */
(PID.TID 0000.0001)                 1.500000000000000E+01       /* K = 31 */
(PID.TID 0000.0001)     ;
(PID.TID 0000.0001) drF =   /* W spacing ( units of r ) */
(PID.TID 0000.0001)    30 @  3.000000000000000E+01              /* K =  1: 30 */
(PID.TID 0000.0001)     ;
(PID.TID 0000.0001) delX = /* U spacing ( m - cartesian, degrees - spherical ) */
(PID.TID 0000.0001)    50 @  3.000000000000000E-01              /* I =  1: 50 */
(PID.TID 0000.0001)     ;
(PID.TID 0000.0001) delY = /* V spacing ( m - cartesian, degrees - spherical ) */
(PID.TID 0000.0001)   100 @  1.000000000000000E-01              /* J =  1:100 */
(PID.TID 0000.0001)     ;
(PID.TID 0000.0001) xgOrigin = /* X-axis origin of West  edge (cartesian: m, lat-lon: deg) */
(PID.TID 0000.0001)                 0.000000000000000E+00
(PID.TID 0000.0001)     ;
(PID.TID 0000.0001) ygOrigin = /* Y-axis origin of South edge (cartesian: m, lat-lon: deg) */
(PID.TID 0000.0001)                -8.000000000000000E+01
(PID.TID 0000.0001)     ;
(PID.TID 0000.0001) rSphere =  /* Radius ( ignored - cartesian, m - spherical ) */
(PID.TID 0000.0001)                 6.370000000000000E+06
(PID.TID 0000.0001)     ;
(PID.TID 0000.0001) deepAtmosphere = /* Deep/Shallow Atmosphere flag (True/False) */
(PID.TID 0000.0001)                   F
(PID.TID 0000.0001)     ;
(PID.TID 0000.0001) xC =  /* xC(:,1,:,1) : P-point X coord ( deg. or m if cartesian) */
(PID.TID 0000.0001)                 1.500000000000001E-01,      /* I =  1 */
(PID.TID 0000.0001)                 4.500000000000001E-01,      /* I =  2 */
(PID.TID 0000.0001)                 7.500000000000002E-01,      /* I =  3 */
(PID.TID 0000.0001)                 1.050000000000000E+00,      /* I =  4 */
(PID.TID 0000.0001)                 1.350000000000000E+00,      /* I =  5 */
(PID.TID 0000.0001)                 1.650000000000000E+00,      /* I =  6 */
(PID.TID 0000.0001)                 1.950000000000000E+00,      /* I =  7 */
(PID.TID 0000.0001)                 2.250000000000000E+00,      /* I =  8 */
(PID.TID 0000.0001)                 2.550000000000000E+00,      /* I =  9 */
(PID.TID 0000.0001)                 2.850000000000000E+00,      /* I = 10 */
(PID.TID 0000.0001)                 3.149999999999999E+00,      /* I = 11 */
(PID.TID 0000.0001)                 3.449999999999999E+00,      /* I = 12 */
(PID.TID 0000.0001)                 3.749999999999999E+00,      /* I = 13 */
(PID.TID 0000.0001)                 4.049999999999999E+00,      /* I = 14 */
(PID.TID 0000.0001)                 4.350000000000000E+00,      /* I = 15 */
(PID.TID 0000.0001)                 4.649999999999999E+00,      /* I = 16 */
(PID.TID 0000.0001)                 4.949999999999999E+00,      /* I = 17 */
(PID.TID 0000.0001)                 5.249999999999998E+00,      /* I = 18 */
(PID.TID 0000.0001)                 5.549999999999999E+00,      /* I = 19 */
(PID.TID 0000.0001)                 5.849999999999998E+00,      /* I = 20 */
(PID.TID 0000.0001)                 6.149999999999999E+00,      /* I = 21 */
(PID.TID 0000.0001)                 6.449999999999998E+00,      /* I = 22 */
(PID.TID 0000.0001)                 6.749999999999998E+00,      /* I = 23 */
(PID.TID 0000.0001)                 7.049999999999997E+00,      /* I = 24 */
(PID.TID 0000.0001)                 7.349999999999997E+00,      /* I = 25 */
(PID.TID 0000.0001)                 7.649999999999997E+00,      /* I = 26 */
(PID.TID 0000.0001)                 7.949999999999998E+00,      /* I = 27 */
(PID.TID 0000.0001)                 8.249999999999998E+00,      /* I = 28 */
(PID.TID 0000.0001)                 8.549999999999999E+00,      /* I = 29 */
(PID.TID 0000.0001)                 8.850000000000000E+00,      /* I = 30 */
(PID.TID 0000.0001)                 9.150000000000000E+00,      /* I = 31 */
(PID.TID 0000.0001)                 9.450000000000001E+00,      /* I = 32 */
(PID.TID 0000.0001)                 9.750000000000002E+00,      /* I = 33 */
(PID.TID 0000.0001)                 1.005000000000000E+01,      /* I = 34 */
(PID.TID 0000.0001)                 1.035000000000000E+01,      /* I = 35 */
(PID.TID 0000.0001)                 1.065000000000000E+01,      /* I = 36 */
(PID.TID 0000.0001)                 1.095000000000001E+01,      /* I = 37 */
(PID.TID 0000.0001)                 1.125000000000001E+01,      /* I = 38 */
(PID.TID 0000.0001)                 1.155000000000000E+01,      /* I = 39 */
(PID.TID 0000.0001)                 1.185000000000001E+01,      /* I = 40 */
(PID.TID 0000.0001)                 1.215000000000001E+01,      /* I = 41 */
(PID.TID 0000.0001)                 1.245000000000001E+01,      /* I = 42 */
(PID.TID 0000.0001)                 1.275000000000001E+01,      /* I = 43 */
(PID.TID 0000.0001)                 1.305000000000001E+01,      /* I = 44 */
(PID.TID 0000.0001)                 1.335000000000001E+01,      /* I = 45 */
(PID.TID 0000.0001)                 1.365000000000001E+01,      /* I = 46 */
(PID.TID 0000.0001)                 1.395000000000001E+01,      /* I = 47 */
(PID.TID 0000.0001)                 1.425000000000001E+01,      /* I = 48 */
(PID.TID 0000.0001)                 1.455000000000001E+01,      /* I = 49 */
(PID.TID 0000.0001)                 1.485000000000001E+01       /* I = 50 */
(PID.TID 0000.0001)     ;
(PID.TID 0000.0001) yC =  /* yC(1,:,1,:) : P-point Y coord ( deg. or m if cartesian) */
(PID.TID 0000.0001)                -7.995000000000000E+01,      /* J =  1 */
(PID.TID 0000.0001)                -7.985000000000001E+01,      /* J =  2 */
(PID.TID 0000.0001)                -7.975000000000001E+01,      /* J =  3 */
(PID.TID 0000.0001)      . . .
(PID.TID 0000.0001)                -7.775000000000013E+01,      /* J = 23 */
(PID.TID 0000.0001)                -7.765000000000013E+01,      /* J = 24 */
(PID.TID 0000.0001)                -7.755000000000014E+01,      /* J = 25 */
(PID.TID 0000.0001)                -7.745000000000014E+01,      /* J = 26 */
(PID.TID 0000.0001)                -7.735000000000015E+01,      /* J = 27 */
(PID.TID 0000.0001)                -7.725000000000016E+01,      /* J = 28 */
(PID.TID 0000.0001)      . . .
(PID.TID 0000.0001)                -7.525000000000027E+01,      /* J = 48 */
(PID.TID 0000.0001)                -7.515000000000028E+01,      /* J = 49 */
(PID.TID 0000.0001)                -7.505000000000028E+01,      /* J = 50 */
(PID.TID 0000.0001)                -7.495000000000029E+01,      /* J = 51 */
(PID.TID 0000.0001)                -7.485000000000029E+01,      /* J = 52 */
(PID.TID 0000.0001)                -7.475000000000030E+01,      /* J = 53 */
(PID.TID 0000.0001)      . . .
(PID.TID 0000.0001)                -7.275000000000041E+01,      /* J = 73 */
(PID.TID 0000.0001)                -7.265000000000042E+01,      /* J = 74 */
(PID.TID 0000.0001)                -7.255000000000042E+01,      /* J = 75 */
(PID.TID 0000.0001)                -7.245000000000043E+01,      /* J = 76 */
(PID.TID 0000.0001)                -7.235000000000043E+01,      /* J = 77 */
(PID.TID 0000.0001)                -7.225000000000044E+01,      /* J = 78 */
(PID.TID 0000.0001)      . . .
(PID.TID 0000.0001)                -7.025000000000055E+01,      /* J = 98 */
(PID.TID 0000.0001)                -7.015000000000056E+01,      /* J = 99 */
(PID.TID 0000.0001)                -7.005000000000057E+01       /* J =100 */
(PID.TID 0000.0001)     ;
(PID.TID 0000.0001) rcoord = /* P-point R coordinate (  units of r ) */
(PID.TID 0000.0001)                -1.500000000000000E+01,      /* K =  1 */
(PID.TID 0000.0001)                -4.500000000000000E+01,      /* K =  2 */
(PID.TID 0000.0001)                -7.500000000000000E+01,      /* K =  3 */
(PID.TID 0000.0001)                -1.050000000000000E+02,      /* K =  4 */
(PID.TID 0000.0001)                -1.350000000000000E+02,      /* K =  5 */
(PID.TID 0000.0001)                -1.650000000000000E+02,      /* K =  6 */
(PID.TID 0000.0001)                -1.950000000000000E+02,      /* K =  7 */
(PID.TID 0000.0001)                -2.250000000000000E+02,      /* K =  8 */
(PID.TID 0000.0001)                -2.550000000000000E+02,      /* K =  9 */
(PID.TID 0000.0001)                -2.850000000000000E+02,      /* K = 10 */
(PID.TID 0000.0001)                -3.150000000000000E+02,      /* K = 11 */
(PID.TID 0000.0001)                -3.450000000000000E+02,      /* K = 12 */
(PID.TID 0000.0001)                -3.750000000000000E+02,      /* K = 13 */
(PID.TID 0000.0001)                -4.050000000000000E+02,      /* K = 14 */
(PID.TID 0000.0001)                -4.350000000000000E+02,      /* K = 15 */
(PID.TID 0000.0001)                -4.650000000000000E+02,      /* K = 16 */
(PID.TID 0000.0001)                -4.950000000000000E+02,      /* K = 17 */
(PID.TID 0000.0001)                -5.250000000000000E+02,      /* K = 18 */
(PID.TID 0000.0001)                -5.550000000000000E+02,      /* K = 19 */
(PID.TID 0000.0001)                -5.850000000000000E+02,      /* K = 20 */
(PID.TID 0000.0001)                -6.150000000000000E+02,      /* K = 21 */
(PID.TID 0000.0001)                -6.450000000000000E+02,      /* K = 22 */
(PID.TID 0000.0001)                -6.750000000000000E+02,      /* K = 23 */
(PID.TID 0000.0001)                -7.050000000000000E+02,      /* K = 24 */
(PID.TID 0000.0001)                -7.350000000000000E+02,      /* K = 25 */
(PID.TID 0000.0001)                -7.650000000000000E+02,      /* K = 26 */
(PID.TID 0000.0001)                -7.950000000000000E+02,      /* K = 27 */
(PID.TID 0000.0001)                -8.250000000000000E+02,      /* K = 28 */
(PID.TID 0000.0001)                -8.550000000000000E+02,      /* K = 29 */
(PID.TID 0000.0001)                -8.850000000000000E+02       /* K = 30 */
(PID.TID 0000.0001)     ;
(PID.TID 0000.0001) rF =   /* W-Interf. R coordinate (  units of r ) */
(PID.TID 0000.0001)                 0.000000000000000E+00,      /* K =  1 */
(PID.TID 0000.0001)                -3.000000000000000E+01,      /* K =  2 */
(PID.TID 0000.0001)                -6.000000000000000E+01,      /* K =  3 */
(PID.TID 0000.0001)                -9.000000000000000E+01,      /* K =  4 */
(PID.TID 0000.0001)                -1.200000000000000E+02,      /* K =  5 */
(PID.TID 0000.0001)                -1.500000000000000E+02,      /* K =  6 */
(PID.TID 0000.0001)                -1.800000000000000E+02,      /* K =  7 */
(PID.TID 0000.0001)                -2.100000000000000E+02,      /* K =  8 */
(PID.TID 0000.0001)                -2.400000000000000E+02,      /* K =  9 */
(PID.TID 0000.0001)                -2.700000000000000E+02,      /* K = 10 */
(PID.TID 0000.0001)                -3.000000000000000E+02,      /* K = 11 */
(PID.TID 0000.0001)                -3.300000000000000E+02,      /* K = 12 */
(PID.TID 0000.0001)                -3.600000000000000E+02,      /* K = 13 */
(PID.TID 0000.0001)                -3.900000000000000E+02,      /* K = 14 */
(PID.TID 0000.0001)                -4.200000000000000E+02,      /* K = 15 */
(PID.TID 0000.0001)                -4.500000000000000E+02,      /* K = 16 */
(PID.TID 0000.0001)                -4.800000000000000E+02,      /* K = 17 */
(PID.TID 0000.0001)                -5.100000000000000E+02,      /* K = 18 */
(PID.TID 0000.0001)                -5.400000000000000E+02,      /* K = 19 */
(PID.TID 0000.0001)                -5.700000000000000E+02,      /* K = 20 */
(PID.TID 0000.0001)                -6.000000000000000E+02,      /* K = 21 */
(PID.TID 0000.0001)                -6.300000000000000E+02,      /* K = 22 */
(PID.TID 0000.0001)                -6.600000000000000E+02,      /* K = 23 */
(PID.TID 0000.0001)                -6.900000000000000E+02,      /* K = 24 */
(PID.TID 0000.0001)                -7.200000000000000E+02,      /* K = 25 */
(PID.TID 0000.0001)                -7.500000000000000E+02,      /* K = 26 */
(PID.TID 0000.0001)                -7.800000000000000E+02,      /* K = 27 */
(PID.TID 0000.0001)                -8.100000000000000E+02,      /* K = 28 */
(PID.TID 0000.0001)                -8.400000000000000E+02,      /* K = 29 */
(PID.TID 0000.0001)                -8.700000000000000E+02,      /* K = 30 */
(PID.TID 0000.0001)                -9.000000000000000E+02       /* K = 31 */
(PID.TID 0000.0001)     ;
(PID.TID 0000.0001) deepFacC = /* deep-model grid factor @ cell-Center (-) */
(PID.TID 0000.0001)    30 @  1.000000000000000E+00              /* K =  1: 30 */
(PID.TID 0000.0001)     ;
(PID.TID 0000.0001) deepFacF = /* deep-model grid factor @ W-Interface (-) */
(PID.TID 0000.0001)    31 @  1.000000000000000E+00              /* K =  1: 31 */
(PID.TID 0000.0001)     ;
(PID.TID 0000.0001) rVel2wUnit = /* convert units: rVel -> wSpeed (=1 if z-coord)*/
(PID.TID 0000.0001)    31 @  1.000000000000000E+00              /* K =  1: 31 */
(PID.TID 0000.0001)     ;
(PID.TID 0000.0001) wUnit2rVel = /* convert units: wSpeed -> rVel (=1 if z-coord)*/
(PID.TID 0000.0001)    31 @  1.000000000000000E+00              /* K =  1: 31 */
(PID.TID 0000.0001)     ;
(PID.TID 0000.0001) dBdrRef = /* Vertical grad. of reference buoyancy [(m/s/r)^2] */
(PID.TID 0000.0001)    30 @  0.000000000000000E+00              /* K =  1: 30 */
(PID.TID 0000.0001)     ;
(PID.TID 0000.0001) rotateGrid = /* use rotated grid ( True/False ) */
(PID.TID 0000.0001)                   F
(PID.TID 0000.0001)     ;
(PID.TID 0000.0001) phiEuler = /* Euler angle, rotation about original z-coordinate [rad] */
(PID.TID 0000.0001)                 0.000000000000000E+00
(PID.TID 0000.0001)     ;
(PID.TID 0000.0001) thetaEuler = /* Euler angle, rotation about new x-coordinate [rad] */
(PID.TID 0000.0001)                 0.000000000000000E+00
(PID.TID 0000.0001)     ;
(PID.TID 0000.0001) psiEuler = /* Euler angle, rotation about new z-coordinate [rad] */
(PID.TID 0000.0001)                 0.000000000000000E+00
(PID.TID 0000.0001)     ;
(PID.TID 0000.0001) dxF =  /* dxF(:,1,:,1) ( units: m ) */
(PID.TID 0000.0001)    50 @  5.820391490558872E+03              /* I =  1: 50 */
(PID.TID 0000.0001)     ;
(PID.TID 0000.0001) dxF =  /* dxF(1,:,1,:) ( units: m ) */
(PID.TID 0000.0001)                 5.820391490558872E+03,      /* J =  1 */
(PID.TID 0000.0001)                 5.877701765291692E+03,      /* J =  2 */
(PID.TID 0000.0001)                 5.934994135525598E+03,      /* J =  3 */
(PID.TID 0000.0001)      . . .
(PID.TID 0000.0001)                 7.076813247621209E+03,      /* J = 23 */
(PID.TID 0000.0001)                 7.133689397375063E+03,      /* J = 24 */
(PID.TID 0000.0001)                 7.190543816673855E+03,      /* J = 25 */
(PID.TID 0000.0001)                 7.247376332329164E+03,      /* J = 26 */
(PID.TID 0000.0001)                 7.304186771219292E+03,      /* J = 27 */
(PID.TID 0000.0001)                 7.360974960289787E+03,      /* J = 28 */
(PID.TID 0000.0001)      . . .
(PID.TID 0000.0001)                 8.491800393599013E+03,      /* J = 48 */
(PID.TID 0000.0001)                 8.548081485571185E+03,      /* J = 49 */
(PID.TID 0000.0001)                 8.604336538604706E+03,      /* J = 50 */
(PID.TID 0000.0001)                 8.660565381336924E+03,      /* J = 51 */
(PID.TID 0000.0001)                 8.716767842485036E+03,      /* J = 52 */
(PID.TID 0000.0001)                 8.772943750846600E+03,      /* J = 53 */
(PID.TID 0000.0001)      . . .
(PID.TID 0000.0001)                 9.890622914885218E+03,      /* J = 73 */
(PID.TID 0000.0001)                 9.946201814818334E+03,      /* J = 74 */
(PID.TID 0000.0001)                 1.000175041689580E+04,      /* J = 75 */
(PID.TID 0000.0001)                 1.005726855190695E+04,      /* J = 76 */
(PID.TID 0000.0001)                 1.011275605073392E+04,      /* J = 77 */
(PID.TID 0000.0001)                 1.016821274435215E+04,      /* J = 78 */
(PID.TID 0000.0001)      . . .
(PID.TID 0000.0001)                 1.127061807330668E+04,      /* J = 98 */
(PID.TID 0000.0001)                 1.132538898360582E+04,      /* J = 99 */
(PID.TID 0000.0001)                 1.138012539480601E+04       /* J =100 */
(PID.TID 0000.0001)     ;
(PID.TID 0000.0001) dyF =  /* dyF(:,1,:,1) ( units: m ) */
(PID.TID 0000.0001)    50 @  1.111774733520388E+04              /* I =  1: 50 */
(PID.TID 0000.0001)     ;
(PID.TID 0000.0001) dyF =  /* dyF(1,:,1,:) ( units: m ) */
(PID.TID 0000.0001)   100 @  1.111774733520388E+04              /* J =  1:100 */
(PID.TID 0000.0001)     ;
(PID.TID 0000.0001) dxG =  /* dxG(:,1,:,1) ( units: m ) */
(PID.TID 0000.0001)    50 @  5.791729693558576E+03              /* I =  1: 50 */
(PID.TID 0000.0001)     ;
(PID.TID 0000.0001) dxG =  /* dxG(1,:,1,:) ( units: m ) */
(PID.TID 0000.0001)                 5.791729693558576E+03,      /* J =  1 */
(PID.TID 0000.0001)                 5.849048855077854E+03,      /* J =  2 */
(PID.TID 0000.0001)                 5.906350199379949E+03,      /* J =  3 */
(PID.TID 0000.0001)      . . .
(PID.TID 0000.0001)                 7.048367077963129E+03,      /* J = 23 */
(PID.TID 0000.0001)                 7.105254027978149E+03,      /* J = 24 */
(PID.TID 0000.0001)                 7.162119334157175E+03,      /* J = 25 */
(PID.TID 0000.0001)                 7.218962823278620E+03,      /* J = 26 */
(PID.TID 0000.0001)                 7.275784322187360E+03,      /* J = 27 */
(PID.TID 0000.0001)                 7.332583657795253E+03,      /* J = 28 */
(PID.TID 0000.0001)      . . .
(PID.TID 0000.0001)                 8.463650136583461E+03,      /* J = 48 */
(PID.TID 0000.0001)                 8.519944183739159E+03,      /* J = 49 */
(PID.TID 0000.0001)                 8.576212277667308E+03,      /* J = 50 */
(PID.TID 0000.0001)                 8.632454246965530E+03,      /* J = 51 */
(PID.TID 0000.0001)                 8.688669920311038E+03,      /* J = 52 */
(PID.TID 0000.0001)                 8.744859126461139E+03,      /* J = 53 */
(PID.TID 0000.0001)      . . .
(PID.TID 0000.0001)                 9.862822156126382E+03,      /* J = 73 */
(PID.TID 0000.0001)                 9.918416141504455E+03,      /* J = 74 */
(PID.TID 0000.0001)                 9.973979913666863E+03,      /* J = 75 */
(PID.TID 0000.0001)                 1.002951330335672E+04,      /* J = 76 */
(PID.TID 0000.0001)                 1.008501614140969E+04,      /* J = 77 */
(PID.TID 0000.0001)                 1.014048825875450E+04,      /* J = 78 */
(PID.TID 0000.0001)      . . .
(PID.TID 0000.0001)                 1.124321973312895E+04,      /* J = 98 */
(PID.TID 0000.0001)                 1.129800783041847E+04,      /* J = 99 */
(PID.TID 0000.0001)                 1.135276151201679E+04       /* J =100 */
(PID.TID 0000.0001)     ;
(PID.TID 0000.0001) dyG =  /* dyG(:,1,:,1) ( units: m ) */
(PID.TID 0000.0001)    50 @  1.111774733520388E+04              /* I =  1: 50 */
(PID.TID 0000.0001)     ;
(PID.TID 0000.0001) dyG =  /* dyG(1,:,1,:) ( units: m ) */
(PID.TID 0000.0001)   100 @  1.111774733520388E+04              /* J =  1:100 */
(PID.TID 0000.0001)     ;
(PID.TID 0000.0001) dxC =  /* dxC(:,1,:,1) ( units: m ) */
(PID.TID 0000.0001)    50 @  5.820391490558872E+03              /* I =  1: 50 */
(PID.TID 0000.0001)     ;
(PID.TID 0000.0001) dxC =  /* dxC(1,:,1,:) ( units: m ) */
(PID.TID 0000.0001)                 5.820391490558872E+03,      /* J =  1 */
(PID.TID 0000.0001)                 5.877701765291692E+03,      /* J =  2 */
(PID.TID 0000.0001)                 5.934994135525598E+03,      /* J =  3 */
(PID.TID 0000.0001)      . . .
(PID.TID 0000.0001)                 7.076813247621209E+03,      /* J = 23 */
(PID.TID 0000.0001)                 7.133689397375063E+03,      /* J = 24 */
(PID.TID 0000.0001)                 7.190543816673855E+03,      /* J = 25 */
(PID.TID 0000.0001)                 7.247376332329164E+03,      /* J = 26 */
(PID.TID 0000.0001)                 7.304186771219292E+03,      /* J = 27 */
(PID.TID 0000.0001)                 7.360974960289787E+03,      /* J = 28 */
(PID.TID 0000.0001)      . . .
(PID.TID 0000.0001)                 8.491800393599013E+03,      /* J = 48 */
(PID.TID 0000.0001)                 8.548081485571185E+03,      /* J = 49 */
(PID.TID 0000.0001)                 8.604336538604706E+03,      /* J = 50 */
(PID.TID 0000.0001)                 8.660565381336924E+03,      /* J = 51 */
(PID.TID 0000.0001)                 8.716767842485036E+03,      /* J = 52 */
(PID.TID 0000.0001)                 8.772943750846600E+03,      /* J = 53 */
(PID.TID 0000.0001)      . . .
(PID.TID 0000.0001)                 9.890622914885218E+03,      /* J = 73 */
(PID.TID 0000.0001)                 9.946201814818334E+03,      /* J = 74 */
(PID.TID 0000.0001)                 1.000175041689580E+04,      /* J = 75 */
(PID.TID 0000.0001)                 1.005726855190695E+04,      /* J = 76 */
(PID.TID 0000.0001)                 1.011275605073392E+04,      /* J = 77 */
(PID.TID 0000.0001)                 1.016821274435215E+04,      /* J = 78 */
(PID.TID 0000.0001)      . . .
(PID.TID 0000.0001)                 1.127061807330668E+04,      /* J = 98 */
(PID.TID 0000.0001)                 1.132538898360582E+04,      /* J = 99 */
(PID.TID 0000.0001)                 1.138012539480601E+04       /* J =100 */
(PID.TID 0000.0001)     ;
(PID.TID 0000.0001) dyC =  /* dyC(:,1,:,1) ( units: m ) */
(PID.TID 0000.0001)    50 @  1.111774733520388E+04              /* I =  1: 50 */
(PID.TID 0000.0001)     ;
(PID.TID 0000.0001) dyC =  /* dyC(1,:,1,:) ( units: m ) */
(PID.TID 0000.0001)   100 @  1.111774733520388E+04              /* J =  1:100 */
(PID.TID 0000.0001)     ;
(PID.TID 0000.0001) dxV =  /* dxV(:,1,:,1) ( units: m ) */
(PID.TID 0000.0001)    50 @  5.791729693558576E+03              /* I =  1: 50 */
(PID.TID 0000.0001)     ;
(PID.TID 0000.0001) dxV =  /* dxV(1,:,1,:) ( units: m ) */
(PID.TID 0000.0001)                 5.791729693558576E+03,      /* J =  1 */
(PID.TID 0000.0001)                 5.849048855077854E+03,      /* J =  2 */
(PID.TID 0000.0001)                 5.906350199379949E+03,      /* J =  3 */
(PID.TID 0000.0001)      . . .
(PID.TID 0000.0001)                 7.048367077963129E+03,      /* J = 23 */
(PID.TID 0000.0001)                 7.105254027978149E+03,      /* J = 24 */
(PID.TID 0000.0001)                 7.162119334157175E+03,      /* J = 25 */
(PID.TID 0000.0001)                 7.218962823278620E+03,      /* J = 26 */
(PID.TID 0000.0001)                 7.275784322187360E+03,      /* J = 27 */
(PID.TID 0000.0001)                 7.332583657795253E+03,      /* J = 28 */
(PID.TID 0000.0001)      . . .
(PID.TID 0000.0001)                 8.463650136583461E+03,      /* J = 48 */
(PID.TID 0000.0001)                 8.519944183739159E+03,      /* J = 49 */
(PID.TID 0000.0001)                 8.576212277667308E+03,      /* J = 50 */
(PID.TID 0000.0001)                 8.632454246965530E+03,      /* J = 51 */
(PID.TID 0000.0001)                 8.688669920311038E+03,      /* J = 52 */
(PID.TID 0000.0001)                 8.744859126461139E+03,      /* J = 53 */
(PID.TID 0000.0001)      . . .
(PID.TID 0000.0001)                 9.862822156126382E+03,      /* J = 73 */
(PID.TID 0000.0001)                 9.918416141504455E+03,      /* J = 74 */
(PID.TID 0000.0001)                 9.973979913666863E+03,      /* J = 75 */
(PID.TID 0000.0001)                 1.002951330335672E+04,      /* J = 76 */
(PID.TID 0000.0001)                 1.008501614140969E+04,      /* J = 77 */
(PID.TID 0000.0001)                 1.014048825875450E+04,      /* J = 78 */
(PID.TID 0000.0001)      . . .
(PID.TID 0000.0001)                 1.124321973312895E+04,      /* J = 98 */
(PID.TID 0000.0001)                 1.129800783041847E+04,      /* J = 99 */
(PID.TID 0000.0001)                 1.135276151201679E+04       /* J =100 */
(PID.TID 0000.0001)     ;
(PID.TID 0000.0001) dyU =  /* dyU(:,1,:,1) ( units: m ) */
(PID.TID 0000.0001)    50 @  1.111774733520388E+04              /* I =  1: 50 */
(PID.TID 0000.0001)     ;
(PID.TID 0000.0001) dyU =  /* dyU(1,:,1,:) ( units: m ) */
(PID.TID 0000.0001)   100 @  1.111774733520388E+04              /* J =  1:100 */
(PID.TID 0000.0001)     ;
(PID.TID 0000.0001) rA  =  /* rA (:,1,:,1) ( units: m^2 ) */
(PID.TID 0000.0001)    50 @  6.470963377080289E+07              /* I =  1: 50 */
(PID.TID 0000.0001)     ;
(PID.TID 0000.0001) rA  =  /* rA (1,:,1,:) ( units: m^2 ) */
(PID.TID 0000.0001)                 6.470963377080289E+07,      /* J =  1 */
(PID.TID 0000.0001)                 6.534679484410104E+07,      /* J =  2 */
(PID.TID 0000.0001)                 6.598375685977945E+07,      /* J =  3 */
(PID.TID 0000.0001)      . . .
(PID.TID 0000.0001)                 7.867821163932665E+07,      /* J = 23 */
(PID.TID 0000.0001)                 7.931054622142966E+07,      /* J = 24 */
(PID.TID 0000.0001)                 7.994263920984067E+07,      /* J = 25 */
(PID.TID 0000.0001)                 8.057448867913349E+07,      /* J = 26 */
(PID.TID 0000.0001)                 8.120609270456599E+07,      /* J = 27 */
(PID.TID 0000.0001)                 8.183744936212724E+07,      /* J = 28 */
(PID.TID 0000.0001)      . . .
(PID.TID 0000.0001)                 9.440967921416211E+07,      /* J = 48 */
(PID.TID 0000.0001)                 9.503539809503193E+07,      /* J = 49 */
(PID.TID 0000.0001)                 9.566082748163140E+07,      /* J = 50 */
(PID.TID 0000.0001)                 9.628596546870193E+07,      /* J = 51 */
(PID.TID 0000.0001)                 9.691081015209354E+07,      /* J = 52 */
(PID.TID 0000.0001)                 9.753535962826957E+07,      /* J = 53 */
(PID.TID 0000.0001)      . . .
(PID.TID 0000.0001)                 1.099614325987181E+08,      /* J = 73 */
(PID.TID 0000.0001)                 1.105793446869293E+08,      /* J = 74 */
(PID.TID 0000.0001)                 1.111969199312560E+08,      /* J = 75 */
(PID.TID 0000.0001)                 1.118141564504991E+08,      /* J = 76 */
(PID.TID 0000.0001)                 1.124310523644033E+08,      /* J = 77 */
(PID.TID 0000.0001)                 1.130476057938687E+08,      /* J = 78 */
(PID.TID 0000.0001)      . . .
(PID.TID 0000.0001)                 1.253038681465364E+08,      /* J = 98 */
(PID.TID 0000.0001)                 1.259127972112936E+08,      /* J = 99 */
(PID.TID 0000.0001)                 1.265213427237870E+08       /* J =100 */
(PID.TID 0000.0001)     ;
(PID.TID 0000.0001) rAw =  /* rAw(:,1,:,1) ( units: m^2 ) */
(PID.TID 0000.0001)    50 @  6.470963377080289E+07              /* I =  1: 50 */
(PID.TID 0000.0001)     ;
(PID.TID 0000.0001) rAw =  /* rAw(1,:,1,:) ( units: m^2 ) */
(PID.TID 0000.0001)                 6.470963377080289E+07,      /* J =  1 */
(PID.TID 0000.0001)                 6.534679484410104E+07,      /* J =  2 */
(PID.TID 0000.0001)                 6.598375685977945E+07,      /* J =  3 */
(PID.TID 0000.0001)      . . .
(PID.TID 0000.0001)                 7.867821163932665E+07,      /* J = 23 */
(PID.TID 0000.0001)                 7.931054622142966E+07,      /* J = 24 */
(PID.TID 0000.0001)                 7.994263920984067E+07,      /* J = 25 */
(PID.TID 0000.0001)                 8.057448867913349E+07,      /* J = 26 */
(PID.TID 0000.0001)                 8.120609270456599E+07,      /* J = 27 */
(PID.TID 0000.0001)                 8.183744936212724E+07,      /* J = 28 */
(PID.TID 0000.0001)      . . .
(PID.TID 0000.0001)                 9.440967921416211E+07,      /* J = 48 */
(PID.TID 0000.0001)                 9.503539809503193E+07,      /* J = 49 */
(PID.TID 0000.0001)                 9.566082748163140E+07,      /* J = 50 */
(PID.TID 0000.0001)                 9.628596546870193E+07,      /* J = 51 */
(PID.TID 0000.0001)                 9.691081015209354E+07,      /* J = 52 */
(PID.TID 0000.0001)                 9.753535962826957E+07,      /* J = 53 */
(PID.TID 0000.0001)      . . .
(PID.TID 0000.0001)                 1.099614325987181E+08,      /* J = 73 */
(PID.TID 0000.0001)                 1.105793446869293E+08,      /* J = 74 */
(PID.TID 0000.0001)                 1.111969199312560E+08,      /* J = 75 */
(PID.TID 0000.0001)                 1.118141564504991E+08,      /* J = 76 */
(PID.TID 0000.0001)                 1.124310523644033E+08,      /* J = 77 */
(PID.TID 0000.0001)                 1.130476057938687E+08,      /* J = 78 */
(PID.TID 0000.0001)      . . .
(PID.TID 0000.0001)                 1.253038681465364E+08,      /* J = 98 */
(PID.TID 0000.0001)                 1.259127972112936E+08,      /* J = 99 */
(PID.TID 0000.0001)                 1.265213427237870E+08       /* J =100 */
(PID.TID 0000.0001)     ;
(PID.TID 0000.0001) rAs =  /* rAs(:,1,:,1) ( units: m^2 ) */
(PID.TID 0000.0001)    50 @  6.439097919401864E+07              /* I =  1: 50 */
(PID.TID 0000.0001)     ;
(PID.TID 0000.0001) rAs =  /* rAs(1,:,1,:) ( units: m^2 ) */
(PID.TID 0000.0001)                 6.439097919401864E+07,      /* J =  1 */
(PID.TID 0000.0001)                 6.502823906837179E+07,      /* J =  2 */
(PID.TID 0000.0001)                 6.566530085543716E+07,      /* J =  3 */
(PID.TID 0000.0001)      . . .
(PID.TID 0000.0001)                 7.836195435256335E+07,      /* J = 23 */
(PID.TID 0000.0001)                 7.899440900921808E+07,      /* J = 24 */
(PID.TID 0000.0001)                 7.962662303520055E+07,      /* J = 25 */
(PID.TID 0000.0001)                 8.025859450470714E+07,      /* J = 26 */
(PID.TID 0000.0001)                 8.089032149259475E+07,      /* J = 27 */
(PID.TID 0000.0001)                 8.152180207452223E+07,      /* J = 28 */
(PID.TID 0000.0001)      . . .
(PID.TID 0000.0001)                 9.409671180895932E+07,      /* J = 48 */
(PID.TID 0000.0001)                 9.472257472228888E+07,      /* J = 49 */
(PID.TID 0000.0001)                 9.534814909420149E+07,      /* J = 50 */
(PID.TID 0000.0001)                 9.597343301913190E+07,      /* J = 51 */
(PID.TID 0000.0001)                 9.659842459236403E+07,      /* J = 52 */
(PID.TID 0000.0001)                 9.722312190998378E+07,      /* J = 53 */
(PID.TID 0000.0001)      . . .
(PID.TID 0000.0001)                 1.096523508263446E+08,      /* J = 73 */
(PID.TID 0000.0001)                 1.102704306306916E+08,      /* J = 74 */
(PID.TID 0000.0001)                 1.108881745321664E+08,      /* J = 75 */
(PID.TID 0000.0001)                 1.115055806490511E+08,      /* J = 76 */
(PID.TID 0000.0001)                 1.121226471005947E+08,      /* J = 77 */
(PID.TID 0000.0001)                 1.127393720071080E+08,      /* J = 78 */
(PID.TID 0000.0001)      . . .
(PID.TID 0000.0001)                 1.249992603617116E+08,      /* J = 98 */
(PID.TID 0000.0001)                 1.256083805070198E+08,      /* J = 99 */
(PID.TID 0000.0001)                 1.262171180274426E+08       /* J =100 */
(PID.TID 0000.0001)     ;
(PID.TID 0000.0001) globalArea = /* Integrated horizontal Area (m^2) */
(PID.TID 0000.0001)                 4.665024516720074E+11
(PID.TID 0000.0001)     ;
(PID.TID 0000.0001) // =======================================================
(PID.TID 0000.0001) // End of Model config. summary
(PID.TID 0000.0001) // =======================================================
(PID.TID 0000.0001) 
(PID.TID 0000.0001) == Packages configuration : Check & print summary ==
(PID.TID 0000.0001) 
(PID.TID 0000.0001) SHELFICE_CHECK: #define ALLOW_SHELFICE
(PID.TID 0000.0001) 
(PID.TID 0000.0001) SHELFICE_CHECK: start of SHELFICE config. summary
(PID.TID 0000.0001) SHELFICEisOn = /* package is turned on */
(PID.TID 0000.0001)                   T
(PID.TID 0000.0001)     ;
(PID.TID 0000.0001) SHELFICEwriteState  = /* do simple standard output */
(PID.TID 0000.0001)                   T
(PID.TID 0000.0001)     ;
(PID.TID 0000.0001) SHELFICE_dump_mdsio = /* use mdsio for snapshots */
(PID.TID 0000.0001)                   F
(PID.TID 0000.0001)     ;
(PID.TID 0000.0001) SHELFICE_tave_mdsio = /* use mdsio for time averages */
(PID.TID 0000.0001)                   F
(PID.TID 0000.0001)     ;
(PID.TID 0000.0001) SHELFICE_dump_mnc   = /* use netcdf for snapshots */
(PID.TID 0000.0001)                   T
(PID.TID 0000.0001)     ;
(PID.TID 0000.0001) SHELFICE_tave_mnc   = /* use netcdf for time averages */
(PID.TID 0000.0001)                   T
(PID.TID 0000.0001)     ;
(PID.TID 0000.0001) SHELFICE_dumpFreq = /* analoguous to dumpFreq */
(PID.TID 0000.0001)                 0.000000000000000E+00
(PID.TID 0000.0001)     ;
(PID.TID 0000.0001) SHELFICE_taveFreq = /* analoguous to taveFreq */
(PID.TID 0000.0001)                 0.000000000000000E+00
(PID.TID 0000.0001)     ;
(PID.TID 0000.0001) useISOMIPTD = /* use simple isomip thermodynamics */
(PID.TID 0000.0001)                   F
(PID.TID 0000.0001)     ;
(PID.TID 0000.0001) SHELFICEconserve = /* use a conservative form of boundary conditions */
(PID.TID 0000.0001)                   T
(PID.TID 0000.0001)     ;
(PID.TID 0000.0001) SHELFICEboundaryLayer = /* use simple boundary layer scheme to suppress noise */
(PID.TID 0000.0001)                   T
(PID.TID 0000.0001)     ;
(PID.TID 0000.0001) SHELFICEadvDiffHeatFlux = /* use adv.-diff. instead of just diff. heat flux into the ice shelf */
(PID.TID 0000.0001)                   T
(PID.TID 0000.0001)     ;
(PID.TID 0000.0001) SHELFICEMassStepping = /* step forward ice shelf mass/thickness */
(PID.TID 0000.0001)                   F
(PID.TID 0000.0001)     ;
(PID.TID 0000.0001) no_slip_shelfice = /* use no slip boundary conditions */
(PID.TID 0000.0001)                   F
(PID.TID 0000.0001)     ;
(PID.TID 0000.0001) SHELFICEdragLinear    = /* linear drag coefficient */
(PID.TID 0000.0001)                 0.000000000000000E+00
(PID.TID 0000.0001)     ;
(PID.TID 0000.0001) SHELFICEdragQuadratic = /* quadratic drag coefficient */
(PID.TID 0000.0001)                 1.500000000000000E-03
(PID.TID 0000.0001)     ;
(PID.TID 0000.0001) SHELFICElatentHeat      = /* latent heat of ice */
(PID.TID 0000.0001)                 3.340000000000000E+05
(PID.TID 0000.0001)     ;
(PID.TID 0000.0001) SHELFICEheatCapacity_Cp = /* heat capacity of ice shelf */
(PID.TID 0000.0001)                 2.000000000000000E+03
(PID.TID 0000.0001)     ;
(PID.TID 0000.0001) rhoShelfice   = /* density of ice shelf */
(PID.TID 0000.0001)                 9.170000000000000E+02
(PID.TID 0000.0001)     ;
(PID.TID 0000.0001) SHELFICEkappa = /* thermal conductivity of ice shelf */
(PID.TID 0000.0001)                 1.540000000000000E-06
(PID.TID 0000.0001)     ;
(PID.TID 0000.0001) SHELFICEthetaSurface = /* surface temperature above i.s. */
(PID.TID 0000.0001)                -2.000000000000000E+01
(PID.TID 0000.0001)     ;
(PID.TID 0000.0001) SHELFICEheatTransCoeff = /* heat transfer coefficient */
(PID.TID 0000.0001)                 1.000000000000000E-04
(PID.TID 0000.0001)     ;
(PID.TID 0000.0001) SHELFICEsaltTransCoeff = /* salt transfer coefficient */
(PID.TID 0000.0001)                 5.050000000000000E-07
(PID.TID 0000.0001)     ;
(PID.TID 0000.0001) SHELFICEuseGammaFrict = /* use velocity dependent exchange coefficients */
(PID.TID 0000.0001)                   T
(PID.TID 0000.0001)     ;
(PID.TID 0000.0001) shiCdrag   = /* quadr. drag coefficient for uStar */
(PID.TID 0000.0001)                 1.500000000000000E-03
(PID.TID 0000.0001)     ;
(PID.TID 0000.0001) shiZetaN   = /* parameter for gammaTurb */
(PID.TID 0000.0001)                 5.200000000000000E-02
(PID.TID 0000.0001)     ;
(PID.TID 0000.0001) shiRc      = /* parameter for gammaTurb (not used) */
(PID.TID 0000.0001)                 2.000000000000000E-01
(PID.TID 0000.0001)     ;
(PID.TID 0000.0001) shiPrandtl = /* const. Prandtl No. for gammaTurb */
(PID.TID 0000.0001)                 1.380000000000000E+01
(PID.TID 0000.0001)     ;
(PID.TID 0000.0001) shiSchmidt = /* const. Schmidt No. for gammaTurb */
(PID.TID 0000.0001)                 2.432000000000000E+03
(PID.TID 0000.0001)     ;
(PID.TID 0000.0001) shiKinVisc = /* const. kin. viscosity for gammaTurb */
(PID.TID 0000.0001)                 1.950000000000000E-06
(PID.TID 0000.0001)     ;
(PID.TID 0000.0001) SHELFICEloadAnomalyFile = /* file name of loaded loadAnomaly field */
(PID.TID 0000.0001)               ''
(PID.TID 0000.0001)     ;
(PID.TID 0000.0001) SHELFICEmassFile = /* file name of loaded mass field */
(PID.TID 0000.0001)               'iceShelf_Mass.bin'
(PID.TID 0000.0001)     ;
(PID.TID 0000.0001) SHELFICEtopoFile = /* file name of loaded under-ice topography */
(PID.TID 0000.0001)               'icetopo.exp1'
(PID.TID 0000.0001)     ;
(PID.TID 0000.0001) SHELFICEMassDynTendFile = /* file name of loaded dynamic mass tendency field */
(PID.TID 0000.0001)               ''
(PID.TID 0000.0001)     ;
(PID.TID 0000.0001) SHELFICE_CHECK: end of SHELFICE config. summary
(PID.TID 0000.0001) GAD_CHECK: #define ALLOW_GENERIC_ADVDIFF
(PID.TID 0000.0001) // =======================================================
(PID.TID 0000.0001) // Check Model config. (CONFIG_CHECK):
(PID.TID 0000.0001) // CONFIG_CHECK : Normal End
(PID.TID 0000.0001) // =======================================================
(PID.TID 0000.0001) 
(PID.TID 0000.0001)  MDS_READ_META: opening file: pickup.0000008640.meta
(PID.TID 0000.0001)  nRecords = 243 ; filePrec =  64 ; fileIter =      8640
(PID.TID 0000.0001)     nDims =   2 , dims:
(PID.TID 0000.0001)    1:  50   1  50
(PID.TID 0000.0001)    2: 100   1 100
(PID.TID 0000.0001)     nFlds =  11 , nFl3D =   8 , fields:
(PID.TID 0000.0001)  >Uvel    < >Vvel    < >Theta   < >Salt    < >GuNm1   < >GvNm1   < >GtNm1   < >GsNm1   < >EtaN    < >dEtaHdt < >EtaH    <
(PID.TID 0000.0001) missingVal=  1.00000000000000E+00 ; nTimRec =   1 , timeList:
(PID.TID 0000.0001)   1.555200000000E+07
(PID.TID 0000.0001) READ_MFLDS_3D_RL: read field: "Uvel    ", #   1 in fldList, rec=   1
(PID.TID 0000.0001)  MDS_READ_FIELD: opening global file: pickup.0000008640.data
(PID.TID 0000.0001) READ_MFLDS_3D_RL: read field: "Vvel    ", #   2 in fldList, rec=   2
(PID.TID 0000.0001)  MDS_READ_FIELD: opening global file: pickup.0000008640.data
(PID.TID 0000.0001) READ_MFLDS_3D_RL: read field: "Theta   ", #   3 in fldList, rec=   3
(PID.TID 0000.0001)  MDS_READ_FIELD: opening global file: pickup.0000008640.data
(PID.TID 0000.0001) READ_MFLDS_3D_RL: read field: "Salt    ", #   4 in fldList, rec=   4
(PID.TID 0000.0001)  MDS_READ_FIELD: opening global file: pickup.0000008640.data
(PID.TID 0000.0001) READ_MFLDS_3D_RL: read field: "GuNm1   ", #   5 in fldList, rec=   5
(PID.TID 0000.0001)  MDS_READ_FIELD: opening global file: pickup.0000008640.data
(PID.TID 0000.0001) READ_MFLDS_3D_RL: read field: "GvNm1   ", #   6 in fldList, rec=   6
(PID.TID 0000.0001)  MDS_READ_FIELD: opening global file: pickup.0000008640.data
(PID.TID 0000.0001) READ_MFLDS_3D_RL: read field: "GtNm1   ", #   7 in fldList, rec=   7
(PID.TID 0000.0001)  MDS_READ_FIELD: opening global file: pickup.0000008640.data
(PID.TID 0000.0001) READ_MFLDS_3D_RL: read field: "GsNm1   ", #   8 in fldList, rec=   8
(PID.TID 0000.0001)  MDS_READ_FIELD: opening global file: pickup.0000008640.data
(PID.TID 0000.0001) READ_MFLDS_3D_RL: read field: "EtaN    ", #   9 in fldList, rec= 241
(PID.TID 0000.0001)  MDS_READ_FIELD: opening global file: pickup.0000008640.data
(PID.TID 0000.0001) READ_MFLDS_3D_RL: read field: "dEtaHdt ", #  10 in fldList, rec= 242
(PID.TID 0000.0001)  MDS_READ_FIELD: opening global file: pickup.0000008640.data
(PID.TID 0000.0001) READ_MFLDS_3D_RL: read field: "EtaH    ", #  11 in fldList, rec= 243
(PID.TID 0000.0001)  MDS_READ_FIELD: opening global file: pickup.0000008640.data
(PID.TID 0000.0001) READ_MFLDS_CHECK: - normal end ; reset MFLDS file-name: pickup.0000008640
(PID.TID 0000.0001)  MDS_READ_FIELD: opening global file: pickup_cd.0000008640.data
(PID.TID 0000.0001)  MDS_READ_FIELD: opening global file: pickup_cd.0000008640.data
(PID.TID 0000.0001)  MDS_READ_FIELD: opening global file: pickup_cd.0000008640.data
(PID.TID 0000.0001)  MDS_READ_FIELD: opening global file: pickup_cd.0000008640.data
(PID.TID 0000.0001)  MDS_READ_FIELD: opening global file: pickup_cd.0000008640.data
(PID.TID 0000.0001) // =======================================================
(PID.TID 0000.0001) // Model current state
(PID.TID 0000.0001) // =======================================================
(PID.TID 0000.0001) 
(PID.TID 0000.0001) // =======================================================
(PID.TID 0000.0001) // Begin MONITOR dynamic field statistics
(PID.TID 0000.0001) // =======================================================
(PID.TID 0000.0001) %MON time_tsnumber                =                  8640
(PID.TID 0000.0001) %MON time_secondsf                =   1.5552000000000E+07
(PID.TID 0000.0001) %MON dynstat_eta_max              =   1.1547478263152E-02
(PID.TID 0000.0001) %MON dynstat_eta_min              =  -2.6792518859505E-03
(PID.TID 0000.0001) %MON dynstat_eta_mean             =  -2.8025747994407E-16
(PID.TID 0000.0001) %MON dynstat_eta_sd               =   1.0200397966504E-03
(PID.TID 0000.0001) %MON dynstat_eta_del2             =   2.5371559200346E-05
(PID.TID 0000.0001) %MON dynstat_uvel_max             =   7.0225293882088E-03
(PID.TID 0000.0001) %MON dynstat_uvel_min             =  -1.1431056075099E-02
(PID.TID 0000.0001) %MON dynstat_uvel_mean            =   2.8565622428309E-05
(PID.TID 0000.0001) %MON dynstat_uvel_sd              =   1.1585806799374E-03
(PID.TID 0000.0001) %MON dynstat_uvel_del2            =   1.3535706652903E-06
(PID.TID 0000.0001) %MON dynstat_vvel_max             =   3.9338955473099E-02
(PID.TID 0000.0001) %MON dynstat_vvel_min             =  -1.3256941080851E-02
(PID.TID 0000.0001) %MON dynstat_vvel_mean            =   6.3322972363213E-09
(PID.TID 0000.0001) %MON dynstat_vvel_sd              =   2.7756348382824E-03
(PID.TID 0000.0001) %MON dynstat_vvel_del2            =   4.9315502354930E-06
(PID.TID 0000.0001) %MON dynstat_wvel_max             =   4.2878246713501E-05
(PID.TID 0000.0001) %MON dynstat_wvel_min             =  -1.2010769874736E-04
(PID.TID 0000.0001) %MON dynstat_wvel_mean            =   6.0608187869131E-12
(PID.TID 0000.0001) %MON dynstat_wvel_sd              =   4.2006858930701E-06
(PID.TID 0000.0001) %MON dynstat_wvel_del2            =   1.8615617176384E-08
(PID.TID 0000.0001) %MON dynstat_theta_max            =  -1.8364995507330E+00
(PID.TID 0000.0001) %MON dynstat_theta_min            =  -2.6053810015927E+00
(PID.TID 0000.0001) %MON dynstat_theta_mean           =  -1.9220520646408E+00
(PID.TID 0000.0001) %MON dynstat_theta_sd             =   6.0159928826071E-02
(PID.TID 0000.0001) %MON dynstat_theta_del2           =   9.1543883803931E-06
(PID.TID 0000.0001) %MON dynstat_salt_max             =   3.4425235078521E+01
(PID.TID 0000.0001) %MON dynstat_salt_min             =   3.4119681589956E+01
(PID.TID 0000.0001) %MON dynstat_salt_mean            =   3.4391236509503E+01
(PID.TID 0000.0001) %MON dynstat_salt_sd              =   2.3907555711745E-02
(PID.TID 0000.0001) %MON dynstat_salt_del2            =   3.6379539423635E-06
(PID.TID 0000.0001) %MON trAdv_CFL_u_max              =   0.0000000000000E+00
(PID.TID 0000.0001) %MON trAdv_CFL_v_max              =   0.0000000000000E+00
(PID.TID 0000.0001) %MON trAdv_CFL_w_max              =   0.0000000000000E+00
(PID.TID 0000.0001) %MON advcfl_uvel_max              =   3.4012427019763E-03
(PID.TID 0000.0001) %MON advcfl_vvel_max              =   6.3691067728586E-03
(PID.TID 0000.0001) %MON advcfl_wvel_max              =   7.2064619248418E-03
(PID.TID 0000.0001) %MON advcfl_W_hf_max              =   7.2064619248418E-03
(PID.TID 0000.0001) %MON pe_b_mean                    =   8.1418759033442E-09
(PID.TID 0000.0001) %MON ke_max                       =   7.7392672876306E-04
(PID.TID 0000.0001) %MON ke_mean                      =   4.4646408174723E-06
(PID.TID 0000.0001) %MON ke_vol                       =   2.9241705273105E+14
(PID.TID 0000.0001) %MON vort_r_min                   =  -2.3549373278644E-06
(PID.TID 0000.0001) %MON vort_r_max                   =   4.2468259247500E-06
(PID.TID 0000.0001) %MON vort_a_mean                  =  -1.4007437274363E-04
(PID.TID 0000.0001) %MON vort_a_sd                    =   1.7886551135731E-06
(PID.TID 0000.0001) %MON vort_p_mean                  =  -1.5039773147463E-04
(PID.TID 0000.0001) %MON vort_p_sd                    =   8.6875695871217E-05
(PID.TID 0000.0001) %MON surfExpan_theta_mean         =   3.6487391385424E-12
(PID.TID 0000.0001) %MON surfExpan_salt_mean          =   1.4500089350473E-12
(PID.TID 0000.0001) // =======================================================
(PID.TID 0000.0001) // End MONITOR dynamic field statistics
(PID.TID 0000.0001) // =======================================================
(PID.TID 0000.0001) SOLVE_FOR_PRESSURE: putPmEinXvector =    F
(PID.TID 0000.0001) SOLVE_FOR_PRESSURE: zeroPsNH=    F , zeroMeanPnh=    F
(PID.TID 0000.0001) SOLVE_FOR_PRESSURE: oldFreeSurfTerm =    F
 cg2d: Sum(rhs),rhsMax =   7.15927317429532E-13  5.86890626719270E-02
(PID.TID 0000.0001)      cg2d_init_res =   5.16305942516861E+00
(PID.TID 0000.0001)      cg2d_iters(min,last) =      -1     214
(PID.TID 0000.0001)      cg2d_last_res =   6.96774179450363E-14
(PID.TID 0000.0001) // =======================================================
(PID.TID 0000.0001) // Begin MONITOR dynamic field statistics
(PID.TID 0000.0001) // =======================================================
(PID.TID 0000.0001) %MON time_tsnumber                =                  8641
(PID.TID 0000.0001) %MON time_secondsf                =   1.5553800000000E+07
(PID.TID 0000.0001) %MON dynstat_eta_max              =   1.5167512658108E-02
(PID.TID 0000.0001) %MON dynstat_eta_min              =  -5.3760256419283E-03
(PID.TID 0000.0001) %MON dynstat_eta_mean             =  -2.8024044405081E-16
(PID.TID 0000.0001) %MON dynstat_eta_sd               =   1.4245217289123E-03
(PID.TID 0000.0001) %MON dynstat_eta_del2             =   5.4538877894204E-06
(PID.TID 0000.0001) %MON dynstat_uvel_max             =   6.3307301829542E-03
(PID.TID 0000.0001) %MON dynstat_uvel_min             =  -1.2272454466833E-02
(PID.TID 0000.0001) %MON dynstat_uvel_mean            =   1.2176700876114E-05
(PID.TID 0000.0001) %MON dynstat_uvel_sd              =   1.1608200862855E-03
(PID.TID 0000.0001) %MON dynstat_uvel_del2            =   1.7341415993583E-06
(PID.TID 0000.0001) %MON dynstat_vvel_max             =   4.0803169816826E-02
(PID.TID 0000.0001) %MON dynstat_vvel_min             =  -1.3631279088467E-02
(PID.TID 0000.0001) %MON dynstat_vvel_mean            =  -1.7281072737379E-05
(PID.TID 0000.0001) %MON dynstat_vvel_sd              =   2.8095057373610E-03
(PID.TID 0000.0001) %MON dynstat_vvel_del2            =   4.9088859191256E-06
(PID.TID 0000.0001) %MON dynstat_wvel_max             =   4.6709533138182E-05
(PID.TID 0000.0001) %MON dynstat_wvel_min             =  -9.9379209606714E-05
(PID.TID 0000.0001) %MON dynstat_wvel_mean            =  -2.8397224870612E-09
(PID.TID 0000.0001) %MON dynstat_wvel_sd              =   3.4123337972145E-06
(PID.TID 0000.0001) %MON dynstat_wvel_del2            =   1.3165562225990E-08
(PID.TID 0000.0001) %MON dynstat_theta_max            =  -1.8768468231893E+00
(PID.TID 0000.0001) %MON dynstat_theta_min            =  -2.6046505376726E+00
(PID.TID 0000.0001) %MON dynstat_theta_mean           =  -1.9220515289636E+00
(PID.TID 0000.0001) %MON dynstat_theta_sd             =   6.0152179852205E-02
(PID.TID 0000.0001) %MON dynstat_theta_del2           =   9.1433175948881E-06
(PID.TID 0000.0001) %MON dynstat_salt_max             =   3.4409201072446E+01
(PID.TID 0000.0001) %MON dynstat_salt_min             =   3.4119972073897E+01
(PID.TID 0000.0001) %MON dynstat_salt_mean            =   3.4391236722989E+01
(PID.TID 0000.0001) %MON dynstat_salt_sd              =   2.3904473081907E-02
(PID.TID 0000.0001) %MON dynstat_salt_del2            =   3.6335463764048E-06
(PID.TID 0000.0001) %MON trAdv_CFL_u_max              =   3.4012431336755E-03
(PID.TID 0000.0001) %MON trAdv_CFL_v_max              =   6.3942800459548E-03
(PID.TID 0000.0001) %MON trAdv_CFL_w_max              =   7.2064619248418E-03
(PID.TID 0000.0001) %MON advcfl_uvel_max              =   3.6515957857631E-03
(PID.TID 0000.0001) %MON advcfl_vvel_max              =   6.6061679093681E-03
(PID.TID 0000.0001) %MON advcfl_wvel_max              =   5.9627525764029E-03
(PID.TID 0000.0001) %MON advcfl_W_hf_max              =   8.4013684576247E-03
(PID.TID 0000.0001) %MON pe_b_mean                    =  -5.5416171566794E-07
(PID.TID 0000.0001) %MON ke_max                       =   8.0383475259813E-04
(PID.TID 0000.0001) %MON ke_mean                      =   4.5604801317607E-06
(PID.TID 0000.0001) %MON ke_vol                       =   2.9241705273105E+14
(PID.TID 0000.0001) %MON vort_r_min                   =  -2.3611339965163E-06
(PID.TID 0000.0001) %MON vort_r_max                   =   4.4547577687325E-06
(PID.TID 0000.0001) %MON vort_a_mean                  =  -1.4007437262278E-04
(PID.TID 0000.0001) %MON vort_a_sd                    =   1.7889222697724E-06
(PID.TID 0000.0001) %MON vort_p_mean                  =  -1.5039773134564E-04
(PID.TID 0000.0001) %MON vort_p_sd                    =   8.6870767810825E-05
(PID.TID 0000.0001) %MON surfExpan_theta_mean         =   3.5144603551918E-09
(PID.TID 0000.0001) %MON surfExpan_salt_mean          =   1.3966448383677E-09
(PID.TID 0000.0001) // =======================================================
(PID.TID 0000.0001) // End MONITOR dynamic field statistics
(PID.TID 0000.0001) // =======================================================
 cg2d: Sum(rhs),rhsMax =   8.07465205809876E-13  5.18693038664343E-02
(PID.TID 0000.0001)      cg2d_init_res =   7.70585196020006E-01
(PID.TID 0000.0001)      cg2d_iters(min,last) =      -1     211
(PID.TID 0000.0001)      cg2d_last_res =   9.26932866049440E-14
(PID.TID 0000.0001) // =======================================================
(PID.TID 0000.0001) // Begin MONITOR dynamic field statistics
(PID.TID 0000.0001) // =======================================================
(PID.TID 0000.0001) %MON time_tsnumber                =                  8642
(PID.TID 0000.0001) %MON time_secondsf                =   1.5555600000000E+07
(PID.TID 0000.0001) %MON dynstat_eta_max              =   1.2230682197128E-02
(PID.TID 0000.0001) %MON dynstat_eta_min              =  -4.4304733282204E-03
(PID.TID 0000.0001) %MON dynstat_eta_mean             =  -2.8012119279803E-16
(PID.TID 0000.0001) %MON dynstat_eta_sd               =   1.1905207133192E-03
(PID.TID 0000.0001) %MON dynstat_eta_del2             =   5.1832312941969E-06
(PID.TID 0000.0001) %MON dynstat_uvel_max             =   6.5018272630599E-03
(PID.TID 0000.0001) %MON dynstat_uvel_min             =  -1.2597121477316E-02
(PID.TID 0000.0001) %MON dynstat_uvel_mean            =   3.0606612367628E-05
(PID.TID 0000.0001) %MON dynstat_uvel_sd              =   1.1911335519406E-03
(PID.TID 0000.0001) %MON dynstat_uvel_del2            =   1.8996940737902E-06
(PID.TID 0000.0001) %MON dynstat_vvel_max             =   4.1764378923893E-02
(PID.TID 0000.0001) %MON dynstat_vvel_min             =  -1.3530522699043E-02
(PID.TID 0000.0001) %MON dynstat_vvel_mean            =   1.0438033019563E-06
(PID.TID 0000.0001) %MON dynstat_vvel_sd              =   2.8345717862924E-03
(PID.TID 0000.0001) %MON dynstat_vvel_del2            =   4.9570611973048E-06
(PID.TID 0000.0001) %MON dynstat_wvel_max             =   4.4383670739039E-05
(PID.TID 0000.0001) %MON dynstat_wvel_min             =  -1.0750086298318E-04
(PID.TID 0000.0001) %MON dynstat_wvel_mean            =   1.0264513196115E-08
(PID.TID 0000.0001) %MON dynstat_wvel_sd              =   3.6118542331205E-06
(PID.TID 0000.0001) %MON dynstat_wvel_del2            =   1.4834990256981E-08
(PID.TID 0000.0001) %MON dynstat_theta_max            =  -1.8818248081982E+00
(PID.TID 0000.0001) %MON dynstat_theta_min            =  -2.6043452911054E+00
(PID.TID 0000.0001) %MON dynstat_theta_mean           =  -1.9220515457857E+00
(PID.TID 0000.0001) %MON dynstat_theta_sd             =   6.0148675623493E-02
(PID.TID 0000.0001) %MON dynstat_theta_del2           =   9.1305656125820E-06
(PID.TID 0000.0001) %MON dynstat_salt_max             =   3.4407222821174E+01
(PID.TID 0000.0001) %MON dynstat_salt_min             =   3.4120093521356E+01
(PID.TID 0000.0001) %MON dynstat_salt_mean            =   3.4391236716720E+01
(PID.TID 0000.0001) %MON dynstat_salt_sd              =   2.3903078330477E-02
(PID.TID 0000.0001) %MON dynstat_salt_del2            =   3.6284725797969E-06
(PID.TID 0000.0001) %MON trAdv_CFL_u_max              =   3.6515425237587E-03
(PID.TID 0000.0001) %MON trAdv_CFL_v_max              =   6.6327180699498E-03
(PID.TID 0000.0001) %MON trAdv_CFL_w_max              =   5.9627525764029E-03
(PID.TID 0000.0001) %MON advcfl_uvel_max              =   3.7481985224413E-03
(PID.TID 0000.0001) %MON advcfl_vvel_max              =   6.7617908373368E-03
(PID.TID 0000.0001) %MON advcfl_wvel_max              =   6.4500517789909E-03
(PID.TID 0000.0001) %MON advcfl_W_hf_max              =   6.4500517789909E-03
(PID.TID 0000.0001) %MON pe_b_mean                    =  -4.7984694396435E-07
(PID.TID 0000.0001) %MON ke_max                       =   8.3212648880889E-04
(PID.TID 0000.0001) %MON ke_mean                      =   4.6655453340332E-06
(PID.TID 0000.0001) %MON ke_vol                       =   2.9241705273105E+14
(PID.TID 0000.0001) %MON vort_r_min                   =  -2.3726424816379E-06
(PID.TID 0000.0001) %MON vort_r_max                   =   4.5148742592597E-06
(PID.TID 0000.0001) %MON vort_a_mean                  =  -1.4007437207759E-04
(PID.TID 0000.0001) %MON vort_a_sd                    =   1.7893082453059E-06
(PID.TID 0000.0001) %MON vort_p_mean                  =  -1.5039773413429E-04
(PID.TID 0000.0001) %MON vort_p_sd                    =   8.6873509936133E-05
(PID.TID 0000.0001) %MON surfExpan_theta_mean         =   4.9620746412730E-09
(PID.TID 0000.0001) %MON surfExpan_salt_mean          =   1.9719278237691E-09
(PID.TID 0000.0001) // =======================================================
(PID.TID 0000.0001) // End MONITOR dynamic field statistics
(PID.TID 0000.0001) // =======================================================
 cg2d: Sum(rhs),rhsMax =   8.13599188020930E-13  5.16527697745622E-02
(PID.TID 0000.0001)      cg2d_init_res =   5.35260166832382E-02
(PID.TID 0000.0001)      cg2d_iters(min,last) =      -1     205
(PID.TID 0000.0001)      cg2d_last_res =   9.94758969439465E-14
(PID.TID 0000.0001) // =======================================================
(PID.TID 0000.0001) // Begin MONITOR dynamic field statistics
(PID.TID 0000.0001) // =======================================================
(PID.TID 0000.0001) %MON time_tsnumber                =                  8643
(PID.TID 0000.0001) %MON time_secondsf                =   1.5557400000000E+07
(PID.TID 0000.0001) %MON dynstat_eta_max              =   1.1288610824180E-02
(PID.TID 0000.0001) %MON dynstat_eta_min              =  -3.6716959214332E-03
(PID.TID 0000.0001) %MON dynstat_eta_mean             =  -2.7992528002559E-16
(PID.TID 0000.0001) %MON dynstat_eta_sd               =   1.0682058103875E-03
(PID.TID 0000.0001) %MON dynstat_eta_del2             =   5.1946933908264E-06
(PID.TID 0000.0001) %MON dynstat_uvel_max             =   6.6289457200136E-03
(PID.TID 0000.0001) %MON dynstat_uvel_min             =  -1.2863921441996E-02
(PID.TID 0000.0001) %MON dynstat_uvel_mean            =   3.4691307414248E-05
(PID.TID 0000.0001) %MON dynstat_uvel_sd              =   1.2199039150110E-03
(PID.TID 0000.0001) %MON dynstat_uvel_del2            =   2.0139094549148E-06
(PID.TID 0000.0001) %MON dynstat_vvel_max             =   4.2349010540343E-02
(PID.TID 0000.0001) %MON dynstat_vvel_min             =  -1.3507668599959E-02
(PID.TID 0000.0001) %MON dynstat_vvel_mean            =   1.7892257615512E-05
(PID.TID 0000.0001) %MON dynstat_vvel_sd              =   2.8397828465814E-03
(PID.TID 0000.0001) %MON dynstat_vvel_del2            =   4.9730282687584E-06
(PID.TID 0000.0001) %MON dynstat_wvel_max             =   4.5726299757532E-05
(PID.TID 0000.0001) %MON dynstat_wvel_min             =  -1.1492109651609E-04
(PID.TID 0000.0001) %MON dynstat_wvel_mean            =   1.5079696951448E-08
(PID.TID 0000.0001) %MON dynstat_wvel_sd              =   3.8961914639864E-06
(PID.TID 0000.0001) %MON dynstat_wvel_del2            =   1.6564687854245E-08
(PID.TID 0000.0001) %MON dynstat_theta_max            =  -1.8847313359868E+00
(PID.TID 0000.0001) %MON dynstat_theta_min            =  -2.6038354160530E+00
(PID.TID 0000.0001) %MON dynstat_theta_mean           =  -1.9220515594964E+00
(PID.TID 0000.0001) %MON dynstat_theta_sd             =   6.0145113375017E-02
(PID.TID 0000.0001) %MON dynstat_theta_del2           =   9.1202224888374E-06
(PID.TID 0000.0001) %MON dynstat_salt_max             =   3.4406067766985E+01
(PID.TID 0000.0001) %MON dynstat_salt_min             =   3.4120296286279E+01
(PID.TID 0000.0001) %MON dynstat_salt_mean            =   3.4391236711693E+01
(PID.TID 0000.0001) %MON dynstat_salt_sd              =   2.3901660498449E-02
(PID.TID 0000.0001) %MON dynstat_salt_del2            =   3.6243560421377E-06
(PID.TID 0000.0001) %MON trAdv_CFL_u_max              =   3.7481989981776E-03
(PID.TID 0000.0001) %MON trAdv_CFL_v_max              =   6.7889664458007E-03
(PID.TID 0000.0001) %MON trAdv_CFL_w_max              =   6.4500517789909E-03
(PID.TID 0000.0001) %MON advcfl_uvel_max              =   3.8275832640429E-03
(PID.TID 0000.0001) %MON advcfl_vvel_max              =   6.8564446262638E-03
(PID.TID 0000.0001) %MON advcfl_wvel_max              =   6.8952657909655E-03
(PID.TID 0000.0001) %MON advcfl_W_hf_max              =   6.8952657909655E-03
(PID.TID 0000.0001) %MON pe_b_mean                    =  -3.1333886599688E-07
(PID.TID 0000.0001) %MON ke_max                       =   8.4615653278682E-04
(PID.TID 0000.0001) %MON ke_mean                      =   4.7144199197118E-06
(PID.TID 0000.0001) %MON ke_vol                       =   2.9241705273105E+14
(PID.TID 0000.0001) %MON vort_r_min                   =  -2.3825096243159E-06
(PID.TID 0000.0001) %MON vort_r_max                   =   4.5372143867973E-06
(PID.TID 0000.0001) %MON vort_a_mean                  =  -1.4007437103169E-04
(PID.TID 0000.0001) %MON vort_a_sd                    =   1.7894213865719E-06
(PID.TID 0000.0001) %MON vort_p_mean                  =  -1.5039773062258E-04
(PID.TID 0000.0001) %MON vort_p_sd                    =   8.6869387080301E-05
(PID.TID 0000.0001) %MON surfExpan_theta_mean         =   7.0162331849562E-09
(PID.TID 0000.0001) %MON surfExpan_salt_mean          =   2.7882493553194E-09
(PID.TID 0000.0001) // =======================================================
(PID.TID 0000.0001) // End MONITOR dynamic field statistics
(PID.TID 0000.0001) // =======================================================
 cg2d: Sum(rhs),rhsMax =   8.08936251317505E-13  5.16960367971031E-02
(PID.TID 0000.0001)      cg2d_init_res =   2.01994681344965E-02
(PID.TID 0000.0001)      cg2d_iters(min,last) =      -1     201
(PID.TID 0000.0001)      cg2d_last_res =   8.63440170303161E-14
(PID.TID 0000.0001) // =======================================================
(PID.TID 0000.0001) // Begin MONITOR dynamic field statistics
(PID.TID 0000.0001) // =======================================================
(PID.TID 0000.0001) %MON time_tsnumber                =                  8644
(PID.TID 0000.0001) %MON time_secondsf                =   1.5559200000000E+07
(PID.TID 0000.0001) %MON dynstat_eta_max              =   1.0906524802889E-02
(PID.TID 0000.0001) %MON dynstat_eta_min              =  -3.3615261367884E-03
(PID.TID 0000.0001) %MON dynstat_eta_mean             =  -2.8031710557046E-16
(PID.TID 0000.0001) %MON dynstat_eta_sd               =   1.0054574243046E-03
(PID.TID 0000.0001) %MON dynstat_eta_del2             =   5.1927940840351E-06
(PID.TID 0000.0001) %MON dynstat_uvel_max             =   6.7851923352037E-03
(PID.TID 0000.0001) %MON dynstat_uvel_min             =  -1.3033275835153E-02
(PID.TID 0000.0001) %MON dynstat_uvel_mean            =   3.2866269916979E-05
(PID.TID 0000.0001) %MON dynstat_uvel_sd              =   1.2464574263345E-03
(PID.TID 0000.0001) %MON dynstat_uvel_del2            =   2.0594247468813E-06
(PID.TID 0000.0001) %MON dynstat_vvel_max             =   4.2484971354119E-02
(PID.TID 0000.0001) %MON dynstat_vvel_min             =  -1.3528108097973E-02
(PID.TID 0000.0001) %MON dynstat_vvel_mean            =   3.1331036890446E-05
(PID.TID 0000.0001) %MON dynstat_vvel_sd              =   2.8405542267065E-03
(PID.TID 0000.0001) %MON dynstat_vvel_del2            =   4.9874569484450E-06
(PID.TID 0000.0001) %MON dynstat_wvel_max             =   4.6256421063019E-05
(PID.TID 0000.0001) %MON dynstat_wvel_min             =  -1.2242019970034E-04
(PID.TID 0000.0001) %MON dynstat_wvel_mean            =   1.5678523655635E-08
(PID.TID 0000.0001) %MON dynstat_wvel_sd              =   4.2050448291047E-06
(PID.TID 0000.0001) %MON dynstat_wvel_del2            =   1.8297500048394E-08
(PID.TID 0000.0001) %MON dynstat_theta_max            =  -1.8865690548085E+00
(PID.TID 0000.0001) %MON dynstat_theta_min            =  -2.6033878308368E+00
(PID.TID 0000.0001) %MON dynstat_theta_mean           =  -1.9220515746762E+00
(PID.TID 0000.0001) %MON dynstat_theta_sd             =   6.0141605886028E-02
(PID.TID 0000.0001) %MON dynstat_theta_del2           =   9.1099202064088E-06
(PID.TID 0000.0001) %MON dynstat_salt_max             =   3.4405337457470E+01
(PID.TID 0000.0001) %MON dynstat_salt_min             =   3.4120474308630E+01
(PID.TID 0000.0001) %MON dynstat_salt_mean            =   3.4391236706094E+01
(PID.TID 0000.0001) %MON dynstat_salt_sd              =   2.3900264364803E-02
(PID.TID 0000.0001) %MON dynstat_salt_del2            =   3.6202555360983E-06
(PID.TID 0000.0001) %MON trAdv_CFL_u_max              =   3.8275837498550E-03
(PID.TID 0000.0001) %MON trAdv_CFL_v_max              =   6.8840006479007E-03
(PID.TID 0000.0001) %MON trAdv_CFL_w_max              =   6.8952657909655E-03
(PID.TID 0000.0001) %MON advcfl_uvel_max              =   3.8779736557957E-03
(PID.TID 0000.0001) %MON advcfl_vvel_max              =   6.8784571309033E-03
(PID.TID 0000.0001) %MON advcfl_wvel_max              =   7.3452119820202E-03
(PID.TID 0000.0001) %MON advcfl_W_hf_max              =   7.3452119820202E-03
(PID.TID 0000.0001) %MON pe_b_mean                    =  -1.5000677417440E-07
(PID.TID 0000.0001) %MON ke_max                       =   8.5371122467050E-04
(PID.TID 0000.0001) %MON ke_mean                      =   4.7489284913112E-06
(PID.TID 0000.0001) %MON ke_vol                       =   2.9241705273105E+14
(PID.TID 0000.0001) %MON vort_r_min                   =  -2.3876004996397E-06
(PID.TID 0000.0001) %MON vort_r_max                   =   4.5364314056022E-06
(PID.TID 0000.0001) %MON vort_a_mean                  =  -1.4007437012200E-04
(PID.TID 0000.0001) %MON vort_a_sd                    =   1.7894547867670E-06
(PID.TID 0000.0001) %MON vort_p_mean                  =  -1.5039772930113E-04
(PID.TID 0000.0001) %MON vort_p_sd                    =   8.6867200689813E-05
(PID.TID 0000.0001) %MON surfExpan_theta_mean         =   7.4333422923414E-09
(PID.TID 0000.0001) %MON surfExpan_salt_mean          =   2.9540071356054E-09
(PID.TID 0000.0001) // =======================================================
(PID.TID 0000.0001) // End MONITOR dynamic field statistics
(PID.TID 0000.0001) // =======================================================
 cg2d: Sum(rhs),rhsMax =   8.12849787479308E-13  5.16670954007633E-02
(PID.TID 0000.0001)      cg2d_init_res =   1.31973511323062E-02
(PID.TID 0000.0001)      cg2d_iters(min,last) =      -1     198
(PID.TID 0000.0001)      cg2d_last_res =   7.85080808709776E-14
(PID.TID 0000.0001) // =======================================================
(PID.TID 0000.0001) // Begin MONITOR dynamic field statistics
(PID.TID 0000.0001) // =======================================================
(PID.TID 0000.0001) %MON time_tsnumber                =                  8645
(PID.TID 0000.0001) %MON time_secondsf                =   1.5561000000000E+07
(PID.TID 0000.0001) %MON dynstat_eta_max              =   1.0622587380577E-02
(PID.TID 0000.0001) %MON dynstat_eta_min              =  -3.3684332361572E-03
(PID.TID 0000.0001) %MON dynstat_eta_mean             =  -2.8006582614495E-16
(PID.TID 0000.0001) %MON dynstat_eta_sd               =   9.7602500224757E-04
(PID.TID 0000.0001) %MON dynstat_eta_del2             =   5.1910983202172E-06
(PID.TID 0000.0001) %MON dynstat_uvel_max             =   6.9604582806691E-03
(PID.TID 0000.0001) %MON dynstat_uvel_min             =  -1.3088939471909E-02
(PID.TID 0000.0001) %MON dynstat_uvel_mean            =   2.9617759788201E-05
(PID.TID 0000.0001) %MON dynstat_uvel_sd              =   1.2677408945384E-03
(PID.TID 0000.0001) %MON dynstat_uvel_del2            =   2.0339815023945E-06
(PID.TID 0000.0001) %MON dynstat_vvel_max             =   4.2351511163543E-02
(PID.TID 0000.0001) %MON dynstat_vvel_min             =  -1.3534087794834E-02
(PID.TID 0000.0001) %MON dynstat_vvel_mean            =   3.8494979769843E-05
(PID.TID 0000.0001) %MON dynstat_vvel_sd              =   2.8376569137579E-03
(PID.TID 0000.0001) %MON dynstat_vvel_del2            =   4.9989232858312E-06
(PID.TID 0000.0001) %MON dynstat_wvel_max             =   4.6827064510014E-05
(PID.TID 0000.0001) %MON dynstat_wvel_min             =  -1.2933082326616E-04
(PID.TID 0000.0001) %MON dynstat_wvel_mean            =   1.3838310836154E-08
(PID.TID 0000.0001) %MON dynstat_wvel_sd              =   4.5225925753934E-06
(PID.TID 0000.0001) %MON dynstat_wvel_del2            =   1.9922905194308E-08
(PID.TID 0000.0001) %MON dynstat_theta_max            =  -1.8878556182548E+00
(PID.TID 0000.0001) %MON dynstat_theta_min            =  -2.6029626209971E+00
(PID.TID 0000.0001) %MON dynstat_theta_mean           =  -1.9220515873632E+00
(PID.TID 0000.0001) %MON dynstat_theta_sd             =   6.0138100574336E-02
(PID.TID 0000.0001) %MON dynstat_theta_del2           =   9.1002161288227E-06
(PID.TID 0000.0001) %MON dynstat_salt_max             =   3.4404826177089E+01
(PID.TID 0000.0001) %MON dynstat_salt_min             =   3.4120643445848E+01
(PID.TID 0000.0001) %MON dynstat_salt_mean            =   3.4391236701495E+01
(PID.TID 0000.0001) %MON dynstat_salt_sd              =   2.3898869044009E-02
(PID.TID 0000.0001) %MON dynstat_salt_del2            =   3.6163926436265E-06
(PID.TID 0000.0001) %MON trAdv_CFL_u_max              =   3.8779741480036E-03
(PID.TID 0000.0001) %MON trAdv_CFL_v_max              =   6.9061016207022E-03
(PID.TID 0000.0001) %MON trAdv_CFL_w_max              =   7.3452119820202E-03
(PID.TID 0000.0001) %MON advcfl_uvel_max              =   3.8945360396246E-03
(PID.TID 0000.0001) %MON advcfl_vvel_max              =   6.8568494854160E-03
(PID.TID 0000.0001) %MON advcfl_wvel_max              =   7.7598493959699E-03
(PID.TID 0000.0001) %MON advcfl_W_hf_max              =   7.7598493959699E-03
(PID.TID 0000.0001) %MON pe_b_mean                    =  -1.7063271971131E-08
(PID.TID 0000.0001) %MON ke_max                       =   8.5542199269641E-04
(PID.TID 0000.0001) %MON ke_mean                      =   4.7671565790528E-06
(PID.TID 0000.0001) %MON ke_vol                       =   2.9241705273105E+14
(PID.TID 0000.0001) %MON vort_r_min                   =  -2.3857184500234E-06
(PID.TID 0000.0001) %MON vort_r_max                   =   4.5160088184165E-06
(PID.TID 0000.0001) %MON vort_a_mean                  =  -1.4007437046861E-04
(PID.TID 0000.0001) %MON vort_a_sd                    =   1.7894230435688E-06
(PID.TID 0000.0001) %MON vort_p_mean                  =  -1.5039772970301E-04
(PID.TID 0000.0001) %MON vort_p_sd                    =   8.6866324032224E-05
(PID.TID 0000.0001) %MON surfExpan_theta_mean         =   6.6695533233875E-09
(PID.TID 0000.0001) %MON surfExpan_salt_mean          =   2.6504763251612E-09
(PID.TID 0000.0001) // =======================================================
(PID.TID 0000.0001) // End MONITOR dynamic field statistics
(PID.TID 0000.0001) // =======================================================
 cg2d: Sum(rhs),rhsMax =   8.09241562649277E-13  5.16350738052682E-02
(PID.TID 0000.0001)      cg2d_init_res =   1.12231421384647E-02
(PID.TID 0000.0001)      cg2d_iters(min,last) =      -1     197
(PID.TID 0000.0001)      cg2d_last_res =   8.41928613069140E-14
(PID.TID 0000.0001) // =======================================================
(PID.TID 0000.0001) // Begin MONITOR dynamic field statistics
(PID.TID 0000.0001) // =======================================================
(PID.TID 0000.0001) %MON time_tsnumber                =                  8646
(PID.TID 0000.0001) %MON time_secondsf                =   1.5562800000000E+07
(PID.TID 0000.0001) %MON dynstat_eta_max              =   1.0405046844541E-02
(PID.TID 0000.0001) %MON dynstat_eta_min              =  -3.5095098975404E-03
(PID.TID 0000.0001) %MON dynstat_eta_mean             =  -2.7996786975873E-16
(PID.TID 0000.0001) %MON dynstat_eta_sd               =   9.6646241725855E-04
(PID.TID 0000.0001) %MON dynstat_eta_del2             =   5.1911332057209E-06
(PID.TID 0000.0001) %MON dynstat_uvel_max             =   7.1397300254648E-03
(PID.TID 0000.0001) %MON dynstat_uvel_min             =  -1.3031090731327E-02
(PID.TID 0000.0001) %MON dynstat_uvel_mean            =   2.8021891419683E-05
(PID.TID 0000.0001) %MON dynstat_uvel_sd              =   1.2815124694063E-03
(PID.TID 0000.0001) %MON dynstat_uvel_del2            =   1.9468250481588E-06
(PID.TID 0000.0001) %MON dynstat_vvel_max             =   4.2003161804803E-02
(PID.TID 0000.0001) %MON dynstat_vvel_min             =  -1.3512186121183E-02
(PID.TID 0000.0001) %MON dynstat_vvel_mean            =   3.8248553714769E-05
(PID.TID 0000.0001) %MON dynstat_vvel_sd              =   2.8317707191579E-03
(PID.TID 0000.0001) %MON dynstat_vvel_del2            =   5.0066712967113E-06
(PID.TID 0000.0001) %MON dynstat_wvel_max             =   4.8442938474198E-05
(PID.TID 0000.0001) %MON dynstat_wvel_min             =  -1.3519941912133E-04
(PID.TID 0000.0001) %MON dynstat_wvel_mean            =   1.0807401341342E-08
(PID.TID 0000.0001) %MON dynstat_wvel_sd              =   4.8244963883220E-06
(PID.TID 0000.0001) %MON dynstat_wvel_del2            =   2.1331677278763E-08
(PID.TID 0000.0001) %MON dynstat_theta_max            =  -1.8887936616974E+00
(PID.TID 0000.0001) %MON dynstat_theta_min            =  -2.6025505859868E+00
(PID.TID 0000.0001) %MON dynstat_theta_mean           =  -1.9220515982438E+00
(PID.TID 0000.0001) %MON dynstat_theta_sd             =   6.0134589721690E-02
(PID.TID 0000.0001) %MON dynstat_theta_del2           =   9.0910505009749E-06
(PID.TID 0000.0001) %MON dynstat_salt_max             =   3.4404453398545E+01
(PID.TID 0000.0001) %MON dynstat_salt_min             =   3.4120807351979E+01
(PID.TID 0000.0001) %MON dynstat_salt_mean            =   3.4391236697621E+01
(PID.TID 0000.0001) %MON dynstat_salt_sd              =   2.3897471485694E-02
(PID.TID 0000.0001) %MON dynstat_salt_del2            =   3.6127437184823E-06
(PID.TID 0000.0001) %MON trAdv_CFL_u_max              =   3.8945365339346E-03
(PID.TID 0000.0001) %MON trAdv_CFL_v_max              =   6.8844071341801E-03
(PID.TID 0000.0001) %MON trAdv_CFL_w_max              =   7.7598493959699E-03
(PID.TID 0000.0001) %MON advcfl_uvel_max              =   3.8773234911573E-03
(PID.TID 0000.0001) %MON advcfl_vvel_max              =   6.8004505741234E-03
(PID.TID 0000.0001) %MON advcfl_wvel_max              =   8.1119651472800E-03
(PID.TID 0000.0001) %MON advcfl_W_hf_max              =   8.1119651472800E-03
(PID.TID 0000.0001) %MON pe_b_mean                    =   8.4625422482936E-08
(PID.TID 0000.0001) %MON ke_max                       =   8.5177429530026E-04
(PID.TID 0000.0001) %MON ke_mean                      =   4.7678080625223E-06
(PID.TID 0000.0001) %MON ke_vol                       =   2.9241705273105E+14
(PID.TID 0000.0001) %MON vort_r_min                   =  -2.3783919256784E-06
(PID.TID 0000.0001) %MON vort_r_max                   =   4.4796347782492E-06
(PID.TID 0000.0001) %MON vort_a_mean                  =  -1.4007437278372E-04
(PID.TID 0000.0001) %MON vort_a_sd                    =   1.7893413752695E-06
(PID.TID 0000.0001) %MON vort_p_mean                  =  -1.5039773229399E-04
(PID.TID 0000.0001) %MON vort_p_sd                    =   8.6866689739613E-05
(PID.TID 0000.0001) %MON surfExpan_theta_mean         =   5.2446337822790E-09
(PID.TID 0000.0001) %MON surfExpan_salt_mean          =   2.0842130060100E-09
(PID.TID 0000.0001) // =======================================================
(PID.TID 0000.0001) // End MONITOR dynamic field statistics
(PID.TID 0000.0001) // =======================================================
 cg2d: Sum(rhs),rhsMax =   8.11493233721094E-13  5.16178273858425E-02
(PID.TID 0000.0001)      cg2d_init_res =   9.91609607421031E-03
(PID.TID 0000.0001)      cg2d_iters(min,last) =      -1     196
(PID.TID 0000.0001)      cg2d_last_res =   8.79506864917737E-14
(PID.TID 0000.0001) // =======================================================
(PID.TID 0000.0001) // Begin MONITOR dynamic field statistics
(PID.TID 0000.0001) // =======================================================
(PID.TID 0000.0001) %MON time_tsnumber                =                  8647
(PID.TID 0000.0001) %MON time_secondsf                =   1.5564600000000E+07
(PID.TID 0000.0001) %MON dynstat_eta_max              =   1.0227647467281E-02
(PID.TID 0000.0001) %MON dynstat_eta_min              =  -3.6235207262366E-03
(PID.TID 0000.0001) %MON dynstat_eta_mean             =  -2.8002323641181E-16
(PID.TID 0000.0001) %MON dynstat_eta_sd               =   9.6889709927294E-04
(PID.TID 0000.0001) %MON dynstat_eta_del2             =   5.1919894432978E-06
(PID.TID 0000.0001) %MON dynstat_uvel_max             =   7.3062969156985E-03
(PID.TID 0000.0001) %MON dynstat_uvel_min             =  -1.2867708950677E-02
(PID.TID 0000.0001) %MON dynstat_uvel_mean            =   2.8845118871100E-05
(PID.TID 0000.0001) %MON dynstat_uvel_sd              =   1.2868522266592E-03
(PID.TID 0000.0001) %MON dynstat_uvel_del2            =   1.8152071540022E-06
(PID.TID 0000.0001) %MON dynstat_vvel_max             =   4.1588702525287E-02
(PID.TID 0000.0001) %MON dynstat_vvel_min             =  -1.3465821205721E-02
(PID.TID 0000.0001) %MON dynstat_vvel_mean            =   3.1708756475460E-05
(PID.TID 0000.0001) %MON dynstat_vvel_sd              =   2.8236634467448E-03
(PID.TID 0000.0001) %MON dynstat_vvel_del2            =   5.0105505742371E-06
(PID.TID 0000.0001) %MON dynstat_wvel_max             =   4.9572570096764E-05
(PID.TID 0000.0001) %MON dynstat_wvel_min             =  -1.3970744326407E-04
(PID.TID 0000.0001) %MON dynstat_wvel_mean            =   7.4724741758799E-09
(PID.TID 0000.0001) %MON dynstat_wvel_sd              =   5.0852685731719E-06
(PID.TID 0000.0001) %MON dynstat_wvel_del2            =   2.2440554553297E-08
(PID.TID 0000.0001) %MON dynstat_theta_max            =  -1.8894875690268E+00
(PID.TID 0000.0001) %MON dynstat_theta_min            =  -2.6021471377307E+00
(PID.TID 0000.0001) %MON dynstat_theta_mean           =  -1.9220516081023E+00
(PID.TID 0000.0001) %MON dynstat_theta_sd             =   6.0131073800795E-02
(PID.TID 0000.0001) %MON dynstat_theta_del2           =   9.0823673666278E-06
(PID.TID 0000.0001) %MON dynstat_salt_max             =   3.4404177639682E+01
(PID.TID 0000.0001) %MON dynstat_salt_min             =   3.4120967848096E+01
(PID.TID 0000.0001) %MON dynstat_salt_mean            =   3.4391236694155E+01
(PID.TID 0000.0001) %MON dynstat_salt_sd              =   2.3896071897410E-02
(PID.TID 0000.0001) %MON dynstat_salt_del2            =   3.6092866353509E-06
(PID.TID 0000.0001) %MON trAdv_CFL_u_max              =   3.8773239832826E-03
(PID.TID 0000.0001) %MON trAdv_CFL_v_max              =   6.8277815559041E-03
(PID.TID 0000.0001) %MON trAdv_CFL_w_max              =   8.1119651472800E-03
(PID.TID 0000.0001) %MON advcfl_uvel_max              =   3.8287102147094E-03
(PID.TID 0000.0001) %MON advcfl_vvel_max              =   6.7333482483880E-03
(PID.TID 0000.0001) %MON advcfl_wvel_max              =   8.3824465958440E-03
(PID.TID 0000.0001) %MON advcfl_W_hf_max              =   8.3824465958440E-03
(PID.TID 0000.0001) %MON pe_b_mean                    =   1.5829883781075E-07
(PID.TID 0000.0001) %MON ke_max                       =   8.4322572310637E-04
(PID.TID 0000.0001) %MON ke_mean                      =   4.7516666752985E-06
(PID.TID 0000.0001) %MON ke_vol                       =   2.9241705273105E+14
(PID.TID 0000.0001) %MON vort_r_min                   =  -2.3762671139207E-06
(PID.TID 0000.0001) %MON vort_r_max                   =   4.4344962558258E-06
(PID.TID 0000.0001) %MON vort_a_mean                  =  -1.4007437668712E-04
(PID.TID 0000.0001) %MON vort_a_sd                    =   1.7892277311639E-06
(PID.TID 0000.0001) %MON vort_p_mean                  =  -1.5039773662728E-04
(PID.TID 0000.0001) %MON vort_p_sd                    =   8.6868229373476E-05
(PID.TID 0000.0001) %MON surfExpan_theta_mean         =   3.5971593407935E-09
(PID.TID 0000.0001) %MON surfExpan_salt_mean          =   1.4295073581796E-09
(PID.TID 0000.0001) // =======================================================
(PID.TID 0000.0001) // End MONITOR dynamic field statistics
(PID.TID 0000.0001) // =======================================================
 cg2d: Sum(rhs),rhsMax =   8.13946132716126E-13  5.16117306560023E-02
(PID.TID 0000.0001)      cg2d_init_res =   8.55254303124917E-03
(PID.TID 0000.0001)      cg2d_iters(min,last) =      -1     194
(PID.TID 0000.0001)      cg2d_last_res =   9.48642314277999E-14
(PID.TID 0000.0001) // =======================================================
(PID.TID 0000.0001) // Begin MONITOR dynamic field statistics
(PID.TID 0000.0001) // =======================================================
(PID.TID 0000.0001) %MON time_tsnumber                =                  8648
(PID.TID 0000.0001) %MON time_secondsf                =   1.5566400000000E+07
(PID.TID 0000.0001) %MON dynstat_eta_max              =   1.0071885251602E-02
(PID.TID 0000.0001) %MON dynstat_eta_min              =  -3.6343120699758E-03
(PID.TID 0000.0001) %MON dynstat_eta_mean             =  -2.8011693382471E-16
(PID.TID 0000.0001) %MON dynstat_eta_sd               =   9.7227979135182E-04
(PID.TID 0000.0001) %MON dynstat_eta_del2             =   5.1934727369527E-06
(PID.TID 0000.0001) %MON dynstat_uvel_max             =   7.4495302391089E-03
(PID.TID 0000.0001) %MON dynstat_uvel_min             =  -1.2615466737647E-02
(PID.TID 0000.0001) %MON dynstat_uvel_mean            =   3.1052985543294E-05
(PID.TID 0000.0001) %MON dynstat_uvel_sd              =   1.2839841024348E-03
(PID.TID 0000.0001) %MON dynstat_uvel_del2            =   1.6629479836615E-06
(PID.TID 0000.0001) %MON dynstat_vvel_max             =   4.1140113180436E-02
(PID.TID 0000.0001) %MON dynstat_vvel_min             =  -1.3402486415256E-02
(PID.TID 0000.0001) %MON dynstat_vvel_mean            =   2.1206083854490E-05
(PID.TID 0000.0001) %MON dynstat_vvel_sd              =   2.8140294877642E-03
(PID.TID 0000.0001) %MON dynstat_vvel_del2            =   5.0107378180091E-06
(PID.TID 0000.0001) %MON dynstat_wvel_max             =   5.0147600367063E-05
(PID.TID 0000.0001) %MON dynstat_wvel_min             =  -1.4265197082548E-04
(PID.TID 0000.0001) %MON dynstat_wvel_mean            =   4.2224533348758E-09
(PID.TID 0000.0001) %MON dynstat_wvel_sd              =   5.2835132682866E-06
(PID.TID 0000.0001) %MON dynstat_wvel_del2            =   2.3195804903095E-08
(PID.TID 0000.0001) %MON dynstat_theta_max            =  -1.8900036421768E+00
(PID.TID 0000.0001) %MON dynstat_theta_min            =  -2.6017490814263E+00
(PID.TID 0000.0001) %MON dynstat_theta_mean           =  -1.9220516175908E+00
(PID.TID 0000.0001) %MON dynstat_theta_sd             =   6.0127555975132E-02
(PID.TID 0000.0001) %MON dynstat_theta_del2           =   9.0740866184337E-06
(PID.TID 0000.0001) %MON dynstat_salt_max             =   3.4403972552113E+01
(PID.TID 0000.0001) %MON dynstat_salt_min             =   3.4121126201617E+01
(PID.TID 0000.0001) %MON dynstat_salt_mean            =   3.4391236690837E+01
(PID.TID 0000.0001) %MON dynstat_salt_sd              =   2.3894671554585E-02
(PID.TID 0000.0001) %MON dynstat_salt_del2            =   3.6059896561195E-06
(PID.TID 0000.0001) %MON trAdv_CFL_u_max              =   3.8287107006646E-03
(PID.TID 0000.0001) %MON trAdv_CFL_v_max              =   6.7599611503777E-03
(PID.TID 0000.0001) %MON trAdv_CFL_w_max              =   8.3824465958440E-03
(PID.TID 0000.0001) %MON advcfl_uvel_max              =   3.7536570454691E-03
(PID.TID 0000.0001) %MON advcfl_vvel_max              =   6.6607201523911E-03
(PID.TID 0000.0001) %MON advcfl_wvel_max              =   8.5591182495289E-03
(PID.TID 0000.0001) %MON advcfl_W_hf_max              =   8.5591182495289E-03
(PID.TID 0000.0001) %MON pe_b_mean                    =   2.0462366936428E-07
(PID.TID 0000.0001) %MON ke_max                       =   8.3049382302003E-04
(PID.TID 0000.0001) %MON ke_mean                      =   4.7210079842106E-06
(PID.TID 0000.0001) %MON ke_vol                       =   2.9241705273105E+14
(PID.TID 0000.0001) %MON vort_r_min                   =  -2.3732425647834E-06
(PID.TID 0000.0001) %MON vort_r_max                   =   4.3804653907661E-06
(PID.TID 0000.0001) %MON vort_a_mean                  =  -1.4007438084643E-04
(PID.TID 0000.0001) %MON vort_a_sd                    =   1.7890998990206E-06
(PID.TID 0000.0001) %MON vort_p_mean                  =  -1.5039774124496E-04
(PID.TID 0000.0001) %MON vort_p_sd                    =   8.6870768188087E-05
(PID.TID 0000.0001) %MON surfExpan_theta_mean         =   1.9701652116564E-09
(PID.TID 0000.0001) %MON surfExpan_salt_mean          =   7.8294137293063E-10
(PID.TID 0000.0001) // =======================================================
(PID.TID 0000.0001) // End MONITOR dynamic field statistics
(PID.TID 0000.0001) // =======================================================
 cg2d: Sum(rhs),rhsMax =   8.11267719669218E-13  5.16111466703536E-02
(PID.TID 0000.0001)      cg2d_init_res =   7.86298257578751E-03
(PID.TID 0000.0001)      cg2d_iters(min,last) =      -1     195
(PID.TID 0000.0001)      cg2d_last_res =   9.47576411083615E-14
(PID.TID 0000.0001) // =======================================================
(PID.TID 0000.0001) // Begin MONITOR dynamic field statistics
(PID.TID 0000.0001) // =======================================================
(PID.TID 0000.0001) %MON time_tsnumber                =                  8649
(PID.TID 0000.0001) %MON time_secondsf                =   1.5568200000000E+07
(PID.TID 0000.0001) %MON dynstat_eta_max              =   9.9414608453002E-03
(PID.TID 0000.0001) %MON dynstat_eta_min              =  -3.5446555376838E-03
(PID.TID 0000.0001) %MON dynstat_eta_mean             =  -2.8018507739773E-16
(PID.TID 0000.0001) %MON dynstat_eta_sd               =   9.6771379106657E-04
(PID.TID 0000.0001) %MON dynstat_eta_del2             =   5.1954339213836E-06
(PID.TID 0000.0001) %MON dynstat_uvel_max             =   7.5607769537804E-03
(PID.TID 0000.0001) %MON dynstat_uvel_min             =  -1.2297539892808E-02
(PID.TID 0000.0001) %MON dynstat_uvel_mean            =   3.3138516729925E-05
(PID.TID 0000.0001) %MON dynstat_uvel_sd              =   1.2737752039047E-03
(PID.TID 0000.0001) %MON dynstat_uvel_del2            =   1.5182258273706E-06
(PID.TID 0000.0001) %MON dynstat_vvel_max             =   4.0612259113138E-02
(PID.TID 0000.0001) %MON dynstat_vvel_min             =  -1.3329577195596E-02
(PID.TID 0000.0001) %MON dynstat_vvel_mean            =   9.1622190558554E-06
(PID.TID 0000.0001) %MON dynstat_vvel_sd              =   2.8035867313096E-03
(PID.TID 0000.0001) %MON dynstat_vvel_del2            =   5.0076370960756E-06
(PID.TID 0000.0001) %MON dynstat_wvel_max             =   5.0144457388576E-05
(PID.TID 0000.0001) %MON dynstat_wvel_min             =  -1.4394184457625E-04
(PID.TID 0000.0001) %MON dynstat_wvel_mean            =   1.0786242529077E-09
(PID.TID 0000.0001) %MON dynstat_wvel_sd              =   5.4041677990281E-06
(PID.TID 0000.0001) %MON dynstat_wvel_del2            =   2.3574521621208E-08
(PID.TID 0000.0001) %MON dynstat_theta_max            =  -1.8903886970729E+00
(PID.TID 0000.0001) %MON dynstat_theta_min            =  -2.6013552155893E+00
(PID.TID 0000.0001) %MON dynstat_theta_mean           =  -1.9220516270426E+00
(PID.TID 0000.0001) %MON dynstat_theta_sd             =   6.0124038552285E-02
(PID.TID 0000.0001) %MON dynstat_theta_del2           =   9.0660927872111E-06
(PID.TID 0000.0001) %MON dynstat_salt_max             =   3.4403819531193E+01
(PID.TID 0000.0001) %MON dynstat_salt_min             =   3.4121282888011E+01
(PID.TID 0000.0001) %MON dynstat_salt_mean            =   3.4391236687530E+01
(PID.TID 0000.0001) %MON dynstat_salt_sd              =   2.3893271389152E-02
(PID.TID 0000.0001) %MON dynstat_salt_del2            =   3.6028069645149E-06
(PID.TID 0000.0001) %MON trAdv_CFL_u_max              =   3.7536575218982E-03
(PID.TID 0000.0001) %MON trAdv_CFL_v_max              =   6.6870459989176E-03
(PID.TID 0000.0001) %MON trAdv_CFL_w_max              =   8.5591182495289E-03
(PID.TID 0000.0001) %MON advcfl_uvel_max              =   3.6590598049634E-03
(PID.TID 0000.0001) %MON advcfl_vvel_max              =   6.5752588361290E-03
(PID.TID 0000.0001) %MON advcfl_wvel_max              =   8.6365106745753E-03
(PID.TID 0000.0001) %MON advcfl_W_hf_max              =   8.6365106745753E-03
(PID.TID 0000.0001) %MON pe_b_mean                    =   2.2245615145427E-07
(PID.TID 0000.0001) %MON ke_max                       =   8.1527754983319E-04
(PID.TID 0000.0001) %MON ke_mean                      =   4.6791164837068E-06
(PID.TID 0000.0001) %MON ke_vol                       =   2.9241705273105E+14
(PID.TID 0000.0001) %MON vort_r_min                   =  -2.3697532445399E-06
(PID.TID 0000.0001) %MON vort_r_max                   =   4.3215621061775E-06
(PID.TID 0000.0001) %MON vort_a_mean                  =  -1.4007438374831E-04
(PID.TID 0000.0001) %MON vort_a_sd                    =   1.7889742681221E-06
(PID.TID 0000.0001) %MON vort_p_mean                  =  -1.5039774459188E-04
(PID.TID 0000.0001) %MON vort_p_sd                    =   8.6874054674786E-05
(PID.TID 0000.0001) %MON surfExpan_theta_mean         =   4.1085110933429E-10
(PID.TID 0000.0001) %MON surfExpan_salt_mean          =   1.6327188912801E-10
(PID.TID 0000.0001) // =======================================================
(PID.TID 0000.0001) // End MONITOR dynamic field statistics
(PID.TID 0000.0001) // =======================================================
 cg2d: Sum(rhs),rhsMax =   8.11489764274143E-13  5.16141212988986E-02
(PID.TID 0000.0001)      cg2d_init_res =   7.79093585120805E-03
(PID.TID 0000.0001)      cg2d_iters(min,last) =      -1     195
(PID.TID 0000.0001)      cg2d_last_res =   9.79954755721807E-14
(PID.TID 0000.0001) // =======================================================
(PID.TID 0000.0001) // Begin MONITOR dynamic field statistics
(PID.TID 0000.0001) // =======================================================
(PID.TID 0000.0001) %MON time_tsnumber                =                  8650
(PID.TID 0000.0001) %MON time_secondsf                =   1.5570000000000E+07
(PID.TID 0000.0001) %MON dynstat_eta_max              =   9.8504064764218E-03
(PID.TID 0000.0001) %MON dynstat_eta_min              =  -3.3898415405697E-03
(PID.TID 0000.0001) %MON dynstat_eta_mean             =  -2.8021489021093E-16
(PID.TID 0000.0001) %MON dynstat_eta_sd               =   9.5289329266245E-04
(PID.TID 0000.0001) %MON dynstat_eta_del2             =   5.1976350219137E-06
(PID.TID 0000.0001) %MON dynstat_uvel_max             =   7.6339478824219E-03
(PID.TID 0000.0001) %MON dynstat_uvel_min             =  -1.1939954380682E-02
(PID.TID 0000.0001) %MON dynstat_uvel_mean            =   3.4123246937374E-05
(PID.TID 0000.0001) %MON dynstat_uvel_sd              =   1.2573791305869E-03
(PID.TID 0000.0001) %MON dynstat_uvel_del2            =   1.4088090370759E-06
(PID.TID 0000.0001) %MON dynstat_vvel_max             =   4.0044677109833E-02
(PID.TID 0000.0001) %MON dynstat_vvel_min             =  -1.3253451432830E-02
(PID.TID 0000.0001) %MON dynstat_vvel_mean            =  -2.5151400585150E-06
(PID.TID 0000.0001) %MON dynstat_vvel_sd              =   2.7930756695561E-03
(PID.TID 0000.0001) %MON dynstat_vvel_del2            =   5.0017743461301E-06
(PID.TID 0000.0001) %MON dynstat_wvel_max             =   4.9597788854381E-05
(PID.TID 0000.0001) %MON dynstat_wvel_min             =  -1.4359638410211E-04
(PID.TID 0000.0001) %MON dynstat_wvel_mean            =  -2.0208410647563E-09
(PID.TID 0000.0001) %MON dynstat_wvel_sd              =   5.4395810108651E-06
(PID.TID 0000.0001) %MON dynstat_wvel_del2            =   2.3583295294332E-08
(PID.TID 0000.0001) %MON dynstat_theta_max            =  -1.8906770456526E+00
(PID.TID 0000.0001) %MON dynstat_theta_min            =  -2.6009654119644E+00
(PID.TID 0000.0001) %MON dynstat_theta_mean           =  -1.9220516364704E+00
(PID.TID 0000.0001) %MON dynstat_theta_sd             =   6.0120521878656E-02
(PID.TID 0000.0001) %MON dynstat_theta_del2           =   9.0582534839949E-06
(PID.TID 0000.0001) %MON dynstat_salt_max             =   3.4403704941361E+01
(PID.TID 0000.0001) %MON dynstat_salt_min             =   3.4121437956477E+01
(PID.TID 0000.0001) %MON dynstat_salt_mean            =   3.4391236684228E+01
(PID.TID 0000.0001) %MON dynstat_salt_sd              =   2.3891871550373E-02
(PID.TID 0000.0001) %MON dynstat_salt_del2            =   3.5996859983314E-06
(PID.TID 0000.0001) %MON trAdv_CFL_u_max              =   3.6590602693859E-03
(PID.TID 0000.0001) %MON trAdv_CFL_v_max              =   6.6012469051413E-03
(PID.TID 0000.0001) %MON trAdv_CFL_w_max              =   8.6365106745753E-03
(PID.TID 0000.0001) %MON advcfl_uvel_max              =   3.5526623640390E-03
(PID.TID 0000.0001) %MON advcfl_vvel_max              =   6.4833654358612E-03
(PID.TID 0000.0001) %MON advcfl_wvel_max              =   8.6157830461268E-03
(PID.TID 0000.0001) %MON advcfl_W_hf_max              =   8.6157830461268E-03
(PID.TID 0000.0001) %MON pe_b_mean                    =   2.1111942754410E-07
(PID.TID 0000.0001) %MON ke_max                       =   8.0010908873689E-04
(PID.TID 0000.0001) %MON ke_mean                      =   4.6297159457625E-06
(PID.TID 0000.0001) %MON ke_vol                       =   2.9241705273105E+14
(PID.TID 0000.0001) %MON vort_r_min                   =  -2.3662244527763E-06
(PID.TID 0000.0001) %MON vort_r_max                   =   4.2619375538383E-06
(PID.TID 0000.0001) %MON vort_a_mean                  =  -1.4007438446152E-04
(PID.TID 0000.0001) %MON vort_a_sd                    =   1.7888639719228E-06
(PID.TID 0000.0001) %MON vort_p_mean                  =  -1.5039774546079E-04
(PID.TID 0000.0001) %MON vort_p_sd                    =   8.6877811621226E-05
(PID.TID 0000.0001) %MON surfExpan_theta_mean         =  -1.1071033003644E-09
(PID.TID 0000.0001) %MON surfExpan_salt_mean          =  -4.3996101071156E-10
(PID.TID 0000.0001) // =======================================================
(PID.TID 0000.0001) // End MONITOR dynamic field statistics
(PID.TID 0000.0001) // =======================================================
 cg2d: Sum(rhs),rhsMax =   8.12572231723152E-13  5.16212532476689E-02
(PID.TID 0000.0001)      cg2d_init_res =   7.79140295755973E-03
(PID.TID 0000.0001)      cg2d_iters(min,last) =      -1     193
(PID.TID 0000.0001)      cg2d_last_res =   9.81370943841704E-14
(PID.TID 0000.0001) // =======================================================
(PID.TID 0000.0001) // Begin MONITOR dynamic field statistics
(PID.TID 0000.0001) // =======================================================
(PID.TID 0000.0001) %MON time_tsnumber                =                  8651
(PID.TID 0000.0001) %MON time_secondsf                =   1.5571800000000E+07
(PID.TID 0000.0001) %MON dynstat_eta_max              =   9.8071315986673E-03
(PID.TID 0000.0001) %MON dynstat_eta_min              =  -3.2010958262866E-03
(PID.TID 0000.0001) %MON dynstat_eta_mean             =  -2.8030858762384E-16
(PID.TID 0000.0001) %MON dynstat_eta_sd               =   9.3065176490756E-04
(PID.TID 0000.0001) %MON dynstat_eta_del2             =   5.1998341434189E-06
(PID.TID 0000.0001) %MON dynstat_uvel_max             =   7.6658421164872E-03
(PID.TID 0000.0001) %MON dynstat_uvel_min             =  -1.1568929443808E-02
(PID.TID 0000.0001) %MON dynstat_uvel_mean            =   3.3835586960802E-05
(PID.TID 0000.0001) %MON dynstat_uvel_sd              =   1.2361159745853E-03
(PID.TID 0000.0001) %MON dynstat_uvel_del2            =   1.3533139973422E-06
(PID.TID 0000.0001) %MON dynstat_vvel_max             =   3.9477895114618E-02
(PID.TID 0000.0001) %MON dynstat_vvel_min             =  -1.3179405883467E-02
(PID.TID 0000.0001) %MON dynstat_vvel_mean            =  -1.2544097285950E-05
(PID.TID 0000.0001) %MON dynstat_vvel_sd              =   2.7831887964739E-03
(PID.TID 0000.0001) %MON dynstat_vvel_del2            =   4.9937321448717E-06
(PID.TID 0000.0001) %MON dynstat_wvel_max             =   4.8587667264038E-05
(PID.TID 0000.0001) %MON dynstat_wvel_min             =  -1.4173934490868E-04
(PID.TID 0000.0001) %MON dynstat_wvel_mean            =  -5.0031348902894E-09
(PID.TID 0000.0001) %MON dynstat_wvel_sd              =   5.3898310193081E-06
(PID.TID 0000.0001) %MON dynstat_wvel_del2            =   2.3254902667071E-08
(PID.TID 0000.0001) %MON dynstat_theta_max            =  -1.8908940146020E+00
(PID.TID 0000.0001) %MON dynstat_theta_min            =  -2.6005793256380E+00
(PID.TID 0000.0001) %MON dynstat_theta_mean           =  -1.9220516457745E+00
(PID.TID 0000.0001) %MON dynstat_theta_sd             =   6.0117005343925E-02
(PID.TID 0000.0001) %MON dynstat_theta_del2           =   9.0504392432710E-06
(PID.TID 0000.0001) %MON dynstat_salt_max             =   3.4403618717796E+01
(PID.TID 0000.0001) %MON dynstat_salt_min             =   3.4121591542561E+01
(PID.TID 0000.0001) %MON dynstat_salt_mean            =   3.4391236680968E+01
(PID.TID 0000.0001) %MON dynstat_salt_sd              =   2.3890471804514E-02
(PID.TID 0000.0001) %MON dynstat_salt_del2            =   3.5965753361138E-06
(PID.TID 0000.0001) %MON trAdv_CFL_u_max              =   3.5526628149571E-03
(PID.TID 0000.0001) %MON trAdv_CFL_v_max              =   6.5089903051748E-03
(PID.TID 0000.0001) %MON trAdv_CFL_w_max              =   8.6157830461268E-03
(PID.TID 0000.0001) %MON advcfl_uvel_max              =   3.4422661022674E-03
(PID.TID 0000.0001) %MON advcfl_vvel_max              =   6.3916015595446E-03
(PID.TID 0000.0001) %MON advcfl_wvel_max              =   8.5043606945206E-03
(PID.TID 0000.0001) %MON advcfl_W_hf_max              =   8.5043606945206E-03
(PID.TID 0000.0001) %MON pe_b_mean                    =   1.7204202173860E-07
(PID.TID 0000.0001) %MON ke_max                       =   7.8453042703650E-04
(PID.TID 0000.0001) %MON ke_mean                      =   4.5765704228067E-06
(PID.TID 0000.0001) %MON ke_vol                       =   2.9241705273105E+14
(PID.TID 0000.0001) %MON vort_r_min                   =  -2.3630270457668E-06
(PID.TID 0000.0001) %MON vort_r_max                   =   4.2060678607976E-06
(PID.TID 0000.0001) %MON vort_a_mean                  =  -1.4007438293175E-04
(PID.TID 0000.0001) %MON vort_a_sd                    =   1.7887774131739E-06
(PID.TID 0000.0001) %MON vort_p_mean                  =  -1.5039774377084E-04
(PID.TID 0000.0001) %MON vort_p_sd                    =   8.6881775113152E-05
(PID.TID 0000.0001) %MON surfExpan_theta_mean         =  -2.5603125958559E-09
(PID.TID 0000.0001) %MON surfExpan_salt_mean          =  -1.0174640864144E-09
(PID.TID 0000.0001) // =======================================================
(PID.TID 0000.0001) // End MONITOR dynamic field statistics
(PID.TID 0000.0001) // =======================================================
 cg2d: Sum(rhs),rhsMax =   8.11670175515644E-13  5.16336126310525E-02
(PID.TID 0000.0001)      cg2d_init_res =   7.68096370477596E-03
(PID.TID 0000.0001)      cg2d_iters(min,last) =      -1     193
(PID.TID 0000.0001)      cg2d_last_res =   9.16522865656852E-14
(PID.TID 0000.0001) // =======================================================
(PID.TID 0000.0001) // Begin MONITOR dynamic field statistics
(PID.TID 0000.0001) // =======================================================
(PID.TID 0000.0001) %MON time_tsnumber                =                  8652
(PID.TID 0000.0001) %MON time_secondsf                =   1.5573600000000E+07
(PID.TID 0000.0001) %MON dynstat_eta_max              =   9.8217931731974E-03
(PID.TID 0000.0001) %MON dynstat_eta_min              =  -2.9961676111197E-03
(PID.TID 0000.0001) %MON dynstat_eta_mean             =  -2.8027877481064E-16
(PID.TID 0000.0001) %MON dynstat_eta_sd               =   9.0644442456851E-04
(PID.TID 0000.0001) %MON dynstat_eta_del2             =   5.2018464811017E-06
(PID.TID 0000.0001) %MON dynstat_uvel_max             =   7.6561837911647E-03
(PID.TID 0000.0001) %MON dynstat_uvel_min             =  -1.1209404364857E-02
(PID.TID 0000.0001) %MON dynstat_uvel_mean            =   3.2661819732392E-05
(PID.TID 0000.0001) %MON dynstat_uvel_sd              =   1.2114624677625E-03
(PID.TID 0000.0001) %MON dynstat_uvel_del2            =   1.3523651025229E-06
(PID.TID 0000.0001) %MON dynstat_vvel_max             =   3.8990488501566E-02
(PID.TID 0000.0001) %MON dynstat_vvel_min             =  -1.3151037036628E-02
(PID.TID 0000.0001) %MON dynstat_vvel_mean            =  -2.0150627321148E-05
(PID.TID 0000.0001) %MON dynstat_vvel_sd              =   2.7745055222923E-03
(PID.TID 0000.0001) %MON dynstat_vvel_del2            =   4.9841205934527E-06
(PID.TID 0000.0001) %MON dynstat_wvel_max             =   4.7220530213635E-05
(PID.TID 0000.0001) %MON dynstat_wvel_min             =  -1.3858534617955E-04
(PID.TID 0000.0001) %MON dynstat_wvel_mean            =  -7.6160809550478E-09
(PID.TID 0000.0001) %MON dynstat_wvel_sd              =   5.2623622702174E-06
(PID.TID 0000.0001) %MON dynstat_wvel_del2            =   2.2643483790266E-08
(PID.TID 0000.0001) %MON dynstat_theta_max            =  -1.8910582529955E+00
(PID.TID 0000.0001) %MON dynstat_theta_min            =  -2.6001959055487E+00
(PID.TID 0000.0001) %MON dynstat_theta_mean           =  -1.9220516549546E+00
(PID.TID 0000.0001) %MON dynstat_theta_sd             =   6.0113488716635E-02
(PID.TID 0000.0001) %MON dynstat_theta_del2           =   9.0425331686623E-06
(PID.TID 0000.0001) %MON dynstat_salt_max             =   3.4403553449357E+01
(PID.TID 0000.0001) %MON dynstat_salt_min             =   3.4121744062752E+01
(PID.TID 0000.0001) %MON dynstat_salt_mean            =   3.4391236677749E+01
(PID.TID 0000.0001) %MON dynstat_salt_sd              =   2.3889072065726E-02
(PID.TID 0000.0001) %MON dynstat_salt_del2            =   3.5934285292237E-06
(PID.TID 0000.0001) %MON trAdv_CFL_u_max              =   3.4422665391735E-03
(PID.TID 0000.0001) %MON trAdv_CFL_v_max              =   6.4168637410904E-03
(PID.TID 0000.0001) %MON trAdv_CFL_w_max              =   8.5043606945206E-03
(PID.TID 0000.0001) %MON advcfl_uvel_max              =   3.3352915547781E-03
(PID.TID 0000.0001) %MON advcfl_vvel_max              =   6.3126888196665E-03
(PID.TID 0000.0001) %MON advcfl_wvel_max              =   8.3151207707730E-03
(PID.TID 0000.0001) %MON advcfl_W_hf_max              =   8.3151207707730E-03
(PID.TID 0000.0001) %MON pe_b_mean                    =   1.0947969942752E-07
(PID.TID 0000.0001) %MON ke_max                       =   7.6964564273396E-04
(PID.TID 0000.0001) %MON ke_mean                      =   4.5232543256665E-06
(PID.TID 0000.0001) %MON ke_vol                       =   2.9241705273105E+14
(PID.TID 0000.0001) %MON vort_r_min                   =  -2.3604513673116E-06
(PID.TID 0000.0001) %MON vort_r_max                   =   4.1718659748794E-06
(PID.TID 0000.0001) %MON vort_a_mean                  =  -1.4007437978502E-04
(PID.TID 0000.0001) %MON vort_a_sd                    =   1.7887179719146E-06
(PID.TID 0000.0001) %MON vort_p_mean                  =  -1.5039774027790E-04
(PID.TID 0000.0001) %MON vort_p_sd                    =   8.6885704854264E-05
(PID.TID 0000.0001) %MON surfExpan_theta_mean         =  -3.8349674906019E-09
(PID.TID 0000.0001) %MON surfExpan_salt_mean          =  -1.5240097015367E-09
(PID.TID 0000.0001) // =======================================================
(PID.TID 0000.0001) // End MONITOR dynamic field statistics
(PID.TID 0000.0001) // =======================================================
 cg2d: Sum(rhs),rhsMax =   8.15611467253063E-13  5.16518004865155E-02
(PID.TID 0000.0001)      cg2d_init_res =   7.54620519249970E-03
(PID.TID 0000.0001)      cg2d_iters(min,last) =      -1     193
(PID.TID 0000.0001)      cg2d_last_res =   9.79315319833177E-14
(PID.TID 0000.0001) // =======================================================
(PID.TID 0000.0001) // Begin MONITOR dynamic field statistics
(PID.TID 0000.0001) // =======================================================
(PID.TID 0000.0001) %MON time_tsnumber                =                  8653
(PID.TID 0000.0001) %MON time_secondsf                =   1.5575400000000E+07
(PID.TID 0000.0001) %MON dynstat_eta_max              =   9.8911399934731E-03
(PID.TID 0000.0001) %MON dynstat_eta_min              =  -2.7866563018206E-03
(PID.TID 0000.0001) %MON dynstat_eta_mean             =  -2.8037460171020E-16
(PID.TID 0000.0001) %MON dynstat_eta_sd               =   8.8663323162197E-04
(PID.TID 0000.0001) %MON dynstat_eta_del2             =   5.2035518808749E-06
(PID.TID 0000.0001) %MON dynstat_uvel_max             =   7.6135240460863E-03
(PID.TID 0000.0001) %MON dynstat_uvel_min             =  -1.0884011230770E-02
(PID.TID 0000.0001) %MON dynstat_uvel_mean            =   3.1143839883864E-05
(PID.TID 0000.0001) %MON dynstat_uvel_sd              =   1.1850340270828E-03
(PID.TID 0000.0001) %MON dynstat_uvel_del2            =   1.3888321491984E-06
(PID.TID 0000.0001) %MON dynstat_vvel_max             =   3.8619119910556E-02
(PID.TID 0000.0001) %MON dynstat_vvel_min             =  -1.3133019460964E-02
(PID.TID 0000.0001) %MON dynstat_vvel_mean            =  -2.4937237637722E-05
(PID.TID 0000.0001) %MON dynstat_vvel_sd              =   2.7674659417829E-03
(PID.TID 0000.0001) %MON dynstat_vvel_del2            =   4.9735715705615E-06
(PID.TID 0000.0001) %MON dynstat_wvel_max             =   4.5614894913252E-05
(PID.TID 0000.0001) %MON dynstat_wvel_min             =  -1.3442026545346E-04
(PID.TID 0000.0001) %MON dynstat_wvel_mean            =  -9.5241855841519E-09
(PID.TID 0000.0001) %MON dynstat_wvel_sd              =   5.0710529651369E-06
(PID.TID 0000.0001) %MON dynstat_wvel_del2            =   2.1818668006134E-08
(PID.TID 0000.0001) %MON dynstat_theta_max            =  -1.8911834392177E+00
(PID.TID 0000.0001) %MON dynstat_theta_min            =  -2.5998136475836E+00
(PID.TID 0000.0001) %MON dynstat_theta_mean           =  -1.9220516641816E+00
(PID.TID 0000.0001) %MON dynstat_theta_sd             =   6.0109972696797E-02
(PID.TID 0000.0001) %MON dynstat_theta_del2           =   9.0344398547947E-06
(PID.TID 0000.0001) %MON dynstat_salt_max             =   3.4403503700257E+01
(PID.TID 0000.0001) %MON dynstat_salt_min             =   3.4121896113981E+01
(PID.TID 0000.0001) %MON dynstat_salt_mean            =   3.4391236674504E+01
(PID.TID 0000.0001) %MON dynstat_salt_sd              =   2.3887672615357E-02
(PID.TID 0000.0001) %MON dynstat_salt_del2            =   3.5902076481154E-06
(PID.TID 0000.0001) %MON trAdv_CFL_u_max              =   3.3352919781065E-03
(PID.TID 0000.0001) %MON trAdv_CFL_v_max              =   6.3382747897155E-03
(PID.TID 0000.0001) %MON trAdv_CFL_w_max              =   8.3151207707730E-03
(PID.TID 0000.0001) %MON advcfl_uvel_max              =   3.2384727643431E-03
(PID.TID 0000.0001) %MON advcfl_vvel_max              =   6.2525630186689E-03
(PID.TID 0000.0001) %MON advcfl_wvel_max              =   8.0652159272077E-03
(PID.TID 0000.0001) %MON advcfl_W_hf_max              =   8.0652159272077E-03
(PID.TID 0000.0001) %MON pe_b_mean                    =   3.0376089790183E-08
(PID.TID 0000.0001) %MON ke_max                       =   7.5646804289452E-04
(PID.TID 0000.0001) %MON ke_mean                      =   4.4730147539321E-06
(PID.TID 0000.0001) %MON ke_vol                       =   2.9241705273105E+14
(PID.TID 0000.0001) %MON vort_r_min                   =  -2.3632773247263E-06
(PID.TID 0000.0001) %MON vort_r_max                   =   4.1522386763703E-06
(PID.TID 0000.0001) %MON vort_a_mean                  =  -1.4007437590600E-04
(PID.TID 0000.0001) %MON vort_a_sd                    =   1.7886848642706E-06
(PID.TID 0000.0001) %MON vort_p_mean                  =  -1.5039773600424E-04
(PID.TID 0000.0001) %MON vort_p_sd                    =   8.6889395533502E-05
(PID.TID 0000.0001) %MON surfExpan_theta_mean         =  -4.7669973635260E-09
(PID.TID 0000.0001) %MON surfExpan_salt_mean          =  -1.8943964832551E-09
(PID.TID 0000.0001) // =======================================================
(PID.TID 0000.0001) // End MONITOR dynamic field statistics
(PID.TID 0000.0001) // =======================================================
 cg2d: Sum(rhs),rhsMax =   8.12724887389038E-13  5.16758075621377E-02
(PID.TID 0000.0001)      cg2d_init_res =   7.45867495060843E-03
(PID.TID 0000.0001)      cg2d_iters(min,last) =      -1     194
(PID.TID 0000.0001)      cg2d_last_res =   7.86433187402016E-14
(PID.TID 0000.0001) // =======================================================
(PID.TID 0000.0001) // Begin MONITOR dynamic field statistics
(PID.TID 0000.0001) // =======================================================
(PID.TID 0000.0001) %MON time_tsnumber                =                  8654
(PID.TID 0000.0001) %MON time_secondsf                =   1.5577200000000E+07
(PID.TID 0000.0001) %MON dynstat_eta_max              =   9.9980082485020E-03
(PID.TID 0000.0001) %MON dynstat_eta_min              =  -2.5866484034566E-03
(PID.TID 0000.0001) %MON dynstat_eta_mean             =  -2.8014727900957E-16
(PID.TID 0000.0001) %MON dynstat_eta_sd               =   8.7655095358861E-04
(PID.TID 0000.0001) %MON dynstat_eta_del2             =   5.2048784321087E-06
(PID.TID 0000.0001) %MON dynstat_uvel_max             =   7.5503906913063E-03
(PID.TID 0000.0001) %MON dynstat_uvel_min             =  -1.0612028478592E-02
(PID.TID 0000.0001) %MON dynstat_uvel_mean            =   2.9693835892457E-05
(PID.TID 0000.0001) %MON dynstat_uvel_sd              =   1.1585180778547E-03
(PID.TID 0000.0001) %MON dynstat_uvel_del2            =   1.4382332853858E-06
(PID.TID 0000.0001) %MON dynstat_vvel_max             =   3.8387967993768E-02
(PID.TID 0000.0001) %MON dynstat_vvel_min             =  -1.3121838151061E-02
(PID.TID 0000.0001) %MON dynstat_vvel_mean            =  -2.6812539506201E-05
(PID.TID 0000.0001) %MON dynstat_vvel_sd              =   2.7623793513808E-03
(PID.TID 0000.0001) %MON dynstat_vvel_del2            =   4.9627394623671E-06
(PID.TID 0000.0001) %MON dynstat_wvel_max             =   4.3892786720006E-05
(PID.TID 0000.0001) %MON dynstat_wvel_min             =  -1.2957819092617E-04
(PID.TID 0000.0001) %MON dynstat_wvel_mean            =  -1.0448628664529E-08
(PID.TID 0000.0001) %MON dynstat_wvel_sd              =   4.8348263999295E-06
(PID.TID 0000.0001) %MON dynstat_wvel_del2            =   2.0859119222731E-08
(PID.TID 0000.0001) %MON dynstat_theta_max            =  -1.8912795649020E+00
(PID.TID 0000.0001) %MON dynstat_theta_min            =  -2.5994310541365E+00
(PID.TID 0000.0001) %MON dynstat_theta_mean           =  -1.9220516737317E+00
(PID.TID 0000.0001) %MON dynstat_theta_sd             =   6.0106458638679E-02
(PID.TID 0000.0001) %MON dynstat_theta_del2           =   9.0260862968361E-06
(PID.TID 0000.0001) %MON dynstat_salt_max             =   3.4403465499820E+01
(PID.TID 0000.0001) %MON dynstat_salt_min             =   3.4122048291061E+01
(PID.TID 0000.0001) %MON dynstat_salt_mean            =   3.4391236671121E+01
(PID.TID 0000.0001) %MON dynstat_salt_sd              =   2.3886273991401E-02
(PID.TID 0000.0001) %MON dynstat_salt_del2            =   3.5868836477327E-06
(PID.TID 0000.0001) %MON trAdv_CFL_u_max              =   3.2384731753829E-03
(PID.TID 0000.0001) %MON trAdv_CFL_v_max              =   6.2781220285245E-03
(PID.TID 0000.0001) %MON trAdv_CFL_w_max              =   8.0652159272077E-03
(PID.TID 0000.0001) %MON advcfl_uvel_max              =   3.1575459151672E-03
(PID.TID 0000.0001) %MON advcfl_vvel_max              =   6.2151387601682E-03
(PID.TID 0000.0001) %MON advcfl_wvel_max              =   7.7746914555700E-03
(PID.TID 0000.0001) %MON advcfl_W_hf_max              =   7.7746914555700E-03
(PID.TID 0000.0001) %MON pe_b_mean                    =  -5.6520342516831E-08
(PID.TID 0000.0001) %MON ke_max                       =   7.4584123239708E-04
(PID.TID 0000.0001) %MON ke_mean                      =   4.4286841786243E-06
(PID.TID 0000.0001) %MON ke_vol                       =   2.9241705273105E+14
(PID.TID 0000.0001) %MON vort_r_min                   =  -2.3745981293838E-06
(PID.TID 0000.0001) %MON vort_r_max                   =   4.1470232981022E-06
(PID.TID 0000.0001) %MON vort_a_mean                  =  -1.4007437207465E-04
(PID.TID 0000.0001) %MON vort_a_sd                    =   1.7886746120261E-06
(PID.TID 0000.0001) %MON vort_p_mean                  =  -1.5039773172954E-04
(PID.TID 0000.0001) %MON vort_p_sd                    =   8.6892678677521E-05
(PID.TID 0000.0001) %MON surfExpan_theta_mean         =  -5.2137927150880E-09
(PID.TID 0000.0001) %MON surfExpan_salt_mean          =  -2.0719517695415E-09
(PID.TID 0000.0001) // =======================================================
(PID.TID 0000.0001) // End MONITOR dynamic field statistics
(PID.TID 0000.0001) // =======================================================
 cg2d: Sum(rhs),rhsMax =   8.12114264725494E-13  5.17050224077169E-02
(PID.TID 0000.0001)      cg2d_init_res =   7.41426338463942E-03
(PID.TID 0000.0001)      cg2d_iters(min,last) =      -1     194
(PID.TID 0000.0001)      cg2d_last_res =   7.73852802173529E-14
(PID.TID 0000.0001) // =======================================================
(PID.TID 0000.0001) // Begin MONITOR dynamic field statistics
(PID.TID 0000.0001) // =======================================================
(PID.TID 0000.0001) %MON time_tsnumber                =                  8655
(PID.TID 0000.0001) %MON time_secondsf                =   1.5579000000000E+07
(PID.TID 0000.0001) %MON dynstat_eta_max              =   1.0129341508020E-02
(PID.TID 0000.0001) %MON dynstat_eta_min              =  -2.4149429088362E-03
(PID.TID 0000.0001) %MON dynstat_eta_mean             =  -2.8024044405081E-16
(PID.TID 0000.0001) %MON dynstat_eta_sd               =   8.7834363211720E-04
(PID.TID 0000.0001) %MON dynstat_eta_del2             =   5.2057879363631E-06
(PID.TID 0000.0001) %MON dynstat_uvel_max             =   7.4588746874382E-03
(PID.TID 0000.0001) %MON dynstat_uvel_min             =  -1.0443759651138E-02
(PID.TID 0000.0001) %MON dynstat_uvel_mean            =   2.8506185988966E-05
(PID.TID 0000.0001) %MON dynstat_uvel_sd              =   1.1335724180698E-03
(PID.TID 0000.0001) %MON dynstat_uvel_del2            =   1.4793997083342E-06
(PID.TID 0000.0001) %MON dynstat_vvel_max             =   3.8246418146886E-02
(PID.TID 0000.0001) %MON dynstat_vvel_min             =  -1.3117674195609E-02
(PID.TID 0000.0001) %MON dynstat_vvel_mean            =  -2.5958149784254E-05
(PID.TID 0000.0001) %MON dynstat_vvel_sd              =   2.7594447652521E-03
(PID.TID 0000.0001) %MON dynstat_vvel_del2            =   4.9522952972910E-06
(PID.TID 0000.0001) %MON dynstat_wvel_max             =   4.2173814606887E-05
(PID.TID 0000.0001) %MON dynstat_wvel_min             =  -1.2441694296818E-04
(PID.TID 0000.0001) %MON dynstat_wvel_mean            =  -1.0268206176693E-08
(PID.TID 0000.0001) %MON dynstat_wvel_sd              =   4.5758556960069E-06
(PID.TID 0000.0001) %MON dynstat_wvel_del2            =   1.9845968554217E-08
(PID.TID 0000.0001) %MON dynstat_theta_max            =  -1.8913538890277E+00
(PID.TID 0000.0001) %MON dynstat_theta_min            =  -2.5990469223630E+00
(PID.TID 0000.0001) %MON dynstat_theta_mean           =  -1.9220516838645E+00
(PID.TID 0000.0001) %MON dynstat_theta_sd             =   6.0102947925469E-02
(PID.TID 0000.0001) %MON dynstat_theta_del2           =   9.0174245127548E-06
(PID.TID 0000.0001) %MON dynstat_salt_max             =   3.4403435963328E+01
(PID.TID 0000.0001) %MON dynstat_salt_min             =   3.4122201072156E+01
(PID.TID 0000.0001) %MON dynstat_salt_mean            =   3.4391236667499E+01
(PID.TID 0000.0001) %MON dynstat_salt_sd              =   2.3884876739751E-02
(PID.TID 0000.0001) %MON dynstat_salt_del2            =   3.5834374100275E-06
(PID.TID 0000.0001) %MON trAdv_CFL_u_max              =   3.1575463159354E-03
(PID.TID 0000.0001) %MON trAdv_CFL_v_max              =   6.2405447884402E-03
(PID.TID 0000.0001) %MON trAdv_CFL_w_max              =   7.7746914555700E-03
(PID.TID 0000.0001) %MON advcfl_uvel_max              =   3.0969364544465E-03
(PID.TID 0000.0001) %MON advcfl_vvel_max              =   6.1922213726160E-03
(PID.TID 0000.0001) %MON advcfl_wvel_max              =   7.4650165780908E-03
(PID.TID 0000.0001) %MON advcfl_W_hf_max              =   7.4650165780908E-03
(PID.TID 0000.0001) %MON pe_b_mean                    =  -1.4198323256282E-07
(PID.TID 0000.0001) %MON ke_max                       =   7.3838093136542E-04
(PID.TID 0000.0001) %MON ke_mean                      =   4.3926157705093E-06
(PID.TID 0000.0001) %MON ke_vol                       =   2.9241705273105E+14
(PID.TID 0000.0001) %MON vort_r_min                   =  -2.3827705816771E-06
(PID.TID 0000.0001) %MON vort_r_max                   =   4.1498906141852E-06
(PID.TID 0000.0001) %MON vort_a_mean                  =  -1.4007436879795E-04
(PID.TID 0000.0001) %MON vort_a_sd                    =   1.7886825388642E-06
(PID.TID 0000.0001) %MON vort_p_mean                  =  -1.5039772802314E-04
(PID.TID 0000.0001) %MON vort_p_sd                    =   8.6895423873267E-05
(PID.TID 0000.0001) %MON surfExpan_theta_mean         =  -5.1098117610215E-09
(PID.TID 0000.0001) %MON surfExpan_salt_mean          =  -2.0306295437712E-09
(PID.TID 0000.0001) // =======================================================
(PID.TID 0000.0001) // End MONITOR dynamic field statistics
(PID.TID 0000.0001) // =======================================================
 cg2d: Sum(rhs),rhsMax =   8.12266920391380E-13  5.17381926759633E-02
(PID.TID 0000.0001)      cg2d_init_res =   7.38404797804455E-03
(PID.TID 0000.0001)      cg2d_iters(min,last) =      -1     193
(PID.TID 0000.0001)      cg2d_last_res =   9.59630449322639E-14
(PID.TID 0000.0001) // =======================================================
(PID.TID 0000.0001) // Begin MONITOR dynamic field statistics
(PID.TID 0000.0001) // =======================================================
(PID.TID 0000.0001) %MON time_tsnumber                =                  8656
(PID.TID 0000.0001) %MON time_secondsf                =   1.5580800000000E+07
(PID.TID 0000.0001) %MON dynstat_eta_max              =   1.0272494894683E-02
(PID.TID 0000.0001) %MON dynstat_eta_min              =  -2.2913377697685E-03
(PID.TID 0000.0001) %MON dynstat_eta_mean             =  -2.8021914918424E-16
(PID.TID 0000.0001) %MON dynstat_eta_sd               =   8.9011316426007E-04
(PID.TID 0000.0001) %MON dynstat_eta_del2             =   5.2062700269569E-06
(PID.TID 0000.0001) %MON dynstat_uvel_max             =   7.3464835629254E-03
(PID.TID 0000.0001) %MON dynstat_uvel_min             =  -1.0318437110437E-02
(PID.TID 0000.0001) %MON dynstat_uvel_mean            =   2.7610094970686E-05
(PID.TID 0000.0001) %MON dynstat_uvel_sd              =   1.1117166572477E-03
(PID.TID 0000.0001) %MON dynstat_uvel_del2            =   1.4993578360463E-06
(PID.TID 0000.0001) %MON dynstat_vvel_max             =   3.8196266713197E-02
(PID.TID 0000.0001) %MON dynstat_vvel_min             =  -1.3120609117855E-02
(PID.TID 0000.0001) %MON dynstat_vvel_mean            =  -2.2788942457690E-05
(PID.TID 0000.0001) %MON dynstat_vvel_sd              =   2.7587623384445E-03
(PID.TID 0000.0001) %MON dynstat_vvel_del2            =   4.9429069065453E-06
(PID.TID 0000.0001) %MON dynstat_wvel_max             =   4.1127495933294E-05
(PID.TID 0000.0001) %MON dynstat_wvel_min             =  -1.1929362883405E-04
(PID.TID 0000.0001) %MON dynstat_wvel_mean            =  -9.0479924943563E-09
(PID.TID 0000.0001) %MON dynstat_wvel_sd              =   4.3173627567044E-06
(PID.TID 0000.0001) %MON dynstat_wvel_del2            =   1.8856575258345E-08
(PID.TID 0000.0001) %MON dynstat_theta_max            =  -1.8914116448253E+00
(PID.TID 0000.0001) %MON dynstat_theta_min            =  -2.5986604005901E+00
(PID.TID 0000.0001) %MON dynstat_theta_mean           =  -1.9220516947278E+00
(PID.TID 0000.0001) %MON dynstat_theta_sd             =   6.0099441455209E-02
(PID.TID 0000.0001) %MON dynstat_theta_del2           =   9.0084329542275E-06
(PID.TID 0000.0001) %MON dynstat_salt_max             =   3.4403413011094E+01
(PID.TID 0000.0001) %MON dynstat_salt_min             =   3.4122354796353E+01
(PID.TID 0000.0001) %MON dynstat_salt_mean            =   3.4391236663581E+01
(PID.TID 0000.0001) %MON dynstat_salt_sd              =   2.3883481209988E-02
(PID.TID 0000.0001) %MON dynstat_salt_del2            =   3.5798603078463E-06
(PID.TID 0000.0001) %MON trAdv_CFL_u_max              =   3.0969368475220E-03
(PID.TID 0000.0001) %MON trAdv_CFL_v_max              =   6.2175337199875E-03
(PID.TID 0000.0001) %MON trAdv_CFL_w_max              =   7.4650165780908E-03
(PID.TID 0000.0001) %MON advcfl_uvel_max              =   3.0595124426300E-03
(PID.TID 0000.0001) %MON advcfl_vvel_max              =   6.1841016899215E-03
(PID.TID 0000.0001) %MON advcfl_wvel_max              =   7.1576177300431E-03
(PID.TID 0000.0001) %MON advcfl_W_hf_max              =   7.1576177300431E-03
(PID.TID 0000.0001) %MON pe_b_mean                    =  -2.1765992860297E-07
(PID.TID 0000.0001) %MON ke_max                       =   7.3444276651547E-04
(PID.TID 0000.0001) %MON ke_mean                      =   4.3666185509142E-06
(PID.TID 0000.0001) %MON ke_vol                       =   2.9241705273105E+14
(PID.TID 0000.0001) %MON vort_r_min                   =  -2.3873806026815E-06
(PID.TID 0000.0001) %MON vort_r_max                   =   4.1602791192519E-06
(PID.TID 0000.0001) %MON vort_a_mean                  =  -1.4007436631992E-04
(PID.TID 0000.0001) %MON vort_a_sd                    =   1.7887039178880E-06
(PID.TID 0000.0001) %MON vort_p_mean                  =  -1.5039772520249E-04
(PID.TID 0000.0001) %MON vort_p_sd                    =   8.6897537633894E-05
(PID.TID 0000.0001) %MON surfExpan_theta_mean         =  -4.4847367470504E-09
(PID.TID 0000.0001) %MON surfExpan_salt_mean          =  -1.7822256486730E-09
(PID.TID 0000.0001) // =======================================================
(PID.TID 0000.0001) // End MONITOR dynamic field statistics
(PID.TID 0000.0001) // =======================================================
 cg2d: Sum(rhs),rhsMax =   8.10129741068977E-13  5.17734273765129E-02
(PID.TID 0000.0001)      cg2d_init_res =   7.34316030433612E-03
(PID.TID 0000.0001)      cg2d_iters(min,last) =      -1     193
(PID.TID 0000.0001)      cg2d_last_res =   8.27186861985718E-14
(PID.TID 0000.0001) // =======================================================
(PID.TID 0000.0001) // Begin MONITOR dynamic field statistics
(PID.TID 0000.0001) // =======================================================
(PID.TID 0000.0001) %MON time_tsnumber                =                  8657
(PID.TID 0000.0001) %MON time_secondsf                =   1.5582600000000E+07
(PID.TID 0000.0001) %MON dynstat_eta_max              =   1.0416573543754E-02
(PID.TID 0000.0001) %MON dynstat_eta_min              =  -2.2310528851679E-03
(PID.TID 0000.0001) %MON dynstat_eta_mean             =  -2.8009137998483E-16
(PID.TID 0000.0001) %MON dynstat_eta_sd               =   9.0718015532662E-04
(PID.TID 0000.0001) %MON dynstat_eta_del2             =   5.2063418481835E-06
(PID.TID 0000.0001) %MON dynstat_uvel_max             =   7.2216930066452E-03
(PID.TID 0000.0001) %MON dynstat_uvel_min             =  -1.0238681949106E-02
(PID.TID 0000.0001) %MON dynstat_uvel_mean            =   2.6965922760655E-05
(PID.TID 0000.0001) %MON dynstat_uvel_sd              =   1.0942355889282E-03
(PID.TID 0000.0001) %MON dynstat_uvel_del2            =   1.4938817436772E-06
(PID.TID 0000.0001) %MON dynstat_vvel_max             =   3.8232794084558E-02
(PID.TID 0000.0001) %MON dynstat_vvel_min             =  -1.3130553532488E-02
(PID.TID 0000.0001) %MON dynstat_vvel_mean            =  -1.7886768261038E-05
(PID.TID 0000.0001) %MON dynstat_vvel_sd              =   2.7603283397939E-03
(PID.TID 0000.0001) %MON dynstat_vvel_del2            =   4.9352038086929E-06
(PID.TID 0000.0001) %MON dynstat_wvel_max             =   4.1255489758261E-05
(PID.TID 0000.0001) %MON dynstat_wvel_min             =  -1.1454157193793E-04
(PID.TID 0000.0001) %MON dynstat_wvel_mean            =  -7.0061236514091E-09
(PID.TID 0000.0001) %MON dynstat_wvel_sd              =   4.0810565093538E-06
(PID.TID 0000.0001) %MON dynstat_wvel_del2            =   1.7959046625583E-08
(PID.TID 0000.0001) %MON dynstat_theta_max            =  -1.8914565710558E+00
(PID.TID 0000.0001) %MON dynstat_theta_min            =  -2.5982709145435E+00
(PID.TID 0000.0001) %MON dynstat_theta_mean           =  -1.9220517063249E+00
(PID.TID 0000.0001) %MON dynstat_theta_sd             =   6.0095939441295E-02
(PID.TID 0000.0001) %MON dynstat_theta_del2           =   8.9991170363260E-06
(PID.TID 0000.0001) %MON dynstat_salt_max             =   3.4403395157331E+01
(PID.TID 0000.0001) %MON dynstat_salt_min             =   3.4122509692939E+01
(PID.TID 0000.0001) %MON dynstat_salt_mean            =   3.4391236659366E+01
(PID.TID 0000.0001) %MON dynstat_salt_sd              =   2.3882087476503E-02
(PID.TID 0000.0001) %MON dynstat_salt_del2            =   3.5761544198965E-06
(PID.TID 0000.0001) %MON trAdv_CFL_u_max              =   3.0595128309554E-03
(PID.TID 0000.0001) %MON trAdv_CFL_v_max              =   6.2093808459362E-03
(PID.TID 0000.0001) %MON trAdv_CFL_w_max              =   7.1576177300431E-03
(PID.TID 0000.0001) %MON advcfl_uvel_max              =   3.0518330500598E-03
(PID.TID 0000.0001) %MON advcfl_vvel_max              =   6.1900155919438E-03
(PID.TID 0000.0001) %MON advcfl_wvel_max              =   6.8724943162760E-03
(PID.TID 0000.0001) %MON advcfl_W_hf_max              =   6.8724943162760E-03
(PID.TID 0000.0001) %MON pe_b_mean                    =  -2.7709680392901E-07
(PID.TID 0000.0001) %MON ke_max                       =   7.3411447627116E-04
(PID.TID 0000.0001) %MON ke_mean                      =   4.3518857429109E-06
(PID.TID 0000.0001) %MON ke_vol                       =   2.9241705273105E+14
(PID.TID 0000.0001) %MON vort_r_min                   =  -2.3882446372918E-06
(PID.TID 0000.0001) %MON vort_r_max                   =   4.1770395200699E-06
(PID.TID 0000.0001) %MON vort_a_mean                  =  -1.4007436471745E-04
(PID.TID 0000.0001) %MON vort_a_sd                    =   1.7887346429608E-06
(PID.TID 0000.0001) %MON vort_p_mean                  =  -1.5039772334835E-04
(PID.TID 0000.0001) %MON vort_p_sd                    =   8.6898959807376E-05
(PID.TID 0000.0001) %MON surfExpan_theta_mean         =  -3.4479014677307E-09
(PID.TID 0000.0001) %MON surfExpan_salt_mean          =  -1.3701892491478E-09
(PID.TID 0000.0001) // =======================================================
(PID.TID 0000.0001) // End MONITOR dynamic field statistics
(PID.TID 0000.0001) // =======================================================
 cg2d: Sum(rhs),rhsMax =   8.07659494839186E-13  5.18083296554047E-02
(PID.TID 0000.0001)      cg2d_init_res =   7.27029322897072E-03
(PID.TID 0000.0001)      cg2d_iters(min,last) =      -1     192
(PID.TID 0000.0001)      cg2d_last_res =   8.97899770002186E-14
(PID.TID 0000.0001) // =======================================================
(PID.TID 0000.0001) // Begin MONITOR dynamic field statistics
(PID.TID 0000.0001) // =======================================================
(PID.TID 0000.0001) %MON time_tsnumber                =                  8658
(PID.TID 0000.0001) %MON time_secondsf                =   1.5584400000000E+07
(PID.TID 0000.0001) %MON dynstat_eta_max              =   1.0551276662633E-02
(PID.TID 0000.0001) %MON dynstat_eta_min              =  -2.2408205188143E-03
(PID.TID 0000.0001) %MON dynstat_eta_mean             =  -2.8028303378395E-16
(PID.TID 0000.0001) %MON dynstat_eta_sd               =   9.2442023518364E-04
(PID.TID 0000.0001) %MON dynstat_eta_del2             =   5.2060476745089E-06
(PID.TID 0000.0001) %MON dynstat_uvel_max             =   7.0933483522144E-03
(PID.TID 0000.0001) %MON dynstat_uvel_min             =  -1.0275076505589E-02
(PID.TID 0000.0001) %MON dynstat_uvel_mean            =   2.6536112375635E-05
(PID.TID 0000.0001) %MON dynstat_uvel_sd              =   1.0821007091272E-03
(PID.TID 0000.0001) %MON dynstat_uvel_del2            =   1.4663532423549E-06
(PID.TID 0000.0001) %MON dynstat_vvel_max             =   3.8345793842113E-02
(PID.TID 0000.0001) %MON dynstat_vvel_min             =  -1.3147118871636E-02
(PID.TID 0000.0001) %MON dynstat_vvel_mean            =  -1.1915384038583E-05
(PID.TID 0000.0001) %MON dynstat_vvel_sd              =   2.7640197654835E-03
(PID.TID 0000.0001) %MON dynstat_vvel_del2            =   4.9297305967444E-06
(PID.TID 0000.0001) %MON dynstat_wvel_max             =   4.1536817429465E-05
(PID.TID 0000.0001) %MON dynstat_wvel_min             =  -1.1044998306161E-04
(PID.TID 0000.0001) %MON dynstat_wvel_mean            =  -4.4486485868635E-09
(PID.TID 0000.0001) %MON dynstat_wvel_sd              =   3.8844575740177E-06
(PID.TID 0000.0001) %MON dynstat_wvel_del2            =   1.7207934194473E-08
(PID.TID 0000.0001) %MON dynstat_theta_max            =  -1.8914913202184E+00
(PID.TID 0000.0001) %MON dynstat_theta_min            =  -2.5978780722152E+00
(PID.TID 0000.0001) %MON dynstat_theta_mean           =  -1.9220517185373E+00
(PID.TID 0000.0001) %MON dynstat_theta_sd             =   6.0092441500122E-02
(PID.TID 0000.0001) %MON dynstat_theta_del2           =   8.9895073643497E-06
(PID.TID 0000.0001) %MON dynstat_salt_max             =   3.4403381347934E+01
(PID.TID 0000.0001) %MON dynstat_salt_min             =   3.4122665919138E+01
(PID.TID 0000.0001) %MON dynstat_salt_mean            =   3.4391236654904E+01
(PID.TID 0000.0001) %MON dynstat_salt_sd              =   2.3880695374063E-02
(PID.TID 0000.0001) %MON dynstat_salt_del2            =   3.5723318191005E-06
(PID.TID 0000.0001) %MON trAdv_CFL_u_max              =   3.0518334374101E-03
(PID.TID 0000.0001) %MON trAdv_CFL_v_max              =   6.2153189226017E-03
(PID.TID 0000.0001) %MON trAdv_CFL_w_max              =   6.8724943162760E-03
(PID.TID 0000.0001) %MON advcfl_uvel_max              =   3.0572878610064E-03
(PID.TID 0000.0001) %MON advcfl_vvel_max              =   6.2083106257728E-03
(PID.TID 0000.0001) %MON advcfl_wvel_max              =   6.6269989836967E-03
(PID.TID 0000.0001) %MON advcfl_W_hf_max              =   6.6269989836967E-03
(PID.TID 0000.0001) %MON pe_b_mean                    =  -3.1627396616129E-07
(PID.TID 0000.0001) %MON ke_max                       =   7.3722850619561E-04
(PID.TID 0000.0001) %MON ke_mean                      =   4.3489277206247E-06
(PID.TID 0000.0001) %MON ke_vol                       =   2.9241705273105E+14
(PID.TID 0000.0001) %MON vort_r_min                   =  -2.3854170577532E-06
(PID.TID 0000.0001) %MON vort_r_max                   =   4.1985794665331E-06
(PID.TID 0000.0001) %MON vort_a_mean                  =  -1.4007436399436E-04
(PID.TID 0000.0001) %MON vort_a_sd                    =   1.7887714697630E-06
(PID.TID 0000.0001) %MON vort_p_mean                  =  -1.5039772246470E-04
(PID.TID 0000.0001) %MON vort_p_sd                    =   8.6899661189476E-05
(PID.TID 0000.0001) %MON surfExpan_theta_mean         =  -2.1547170440992E-09
(PID.TID 0000.0001) %MON surfExpan_salt_mean          =  -8.5628047413403E-10
(PID.TID 0000.0001) // =======================================================
(PID.TID 0000.0001) // End MONITOR dynamic field statistics
(PID.TID 0000.0001) // =======================================================
 cg2d: Sum(rhs),rhsMax =   8.09241562649277E-13  5.18402512658058E-02
(PID.TID 0000.0001)      cg2d_init_res =   7.14769317033098E-03
(PID.TID 0000.0001)      cg2d_iters(min,last) =      -1     191
(PID.TID 0000.0001)      cg2d_last_res =   9.46682160219892E-14
(PID.TID 0000.0001) // =======================================================
(PID.TID 0000.0001) // Begin MONITOR dynamic field statistics
(PID.TID 0000.0001) // =======================================================
(PID.TID 0000.0001) %MON time_tsnumber                =                  8659
(PID.TID 0000.0001) %MON time_secondsf                =   1.5586200000000E+07
(PID.TID 0000.0001) %MON dynstat_eta_max              =   1.0667512936551E-02
(PID.TID 0000.0001) %MON dynstat_eta_min              =  -2.3179916612440E-03
(PID.TID 0000.0001) %MON dynstat_eta_mean             =  -2.8031710557046E-16
(PID.TID 0000.0001) %MON dynstat_eta_sd               =   9.3811150281068E-04
(PID.TID 0000.0001) %MON dynstat_eta_del2             =   5.2054554152316E-06
(PID.TID 0000.0001) %MON dynstat_uvel_max             =   6.9700678273827E-03
(PID.TID 0000.0001) %MON dynstat_uvel_min             =  -1.0384913433699E-02
(PID.TID 0000.0001) %MON dynstat_uvel_mean            =   2.6309510460464E-05
(PID.TID 0000.0001) %MON dynstat_uvel_sd              =   1.0759104314655E-03
(PID.TID 0000.0001) %MON dynstat_uvel_del2            =   1.4260307327184E-06
(PID.TID 0000.0001) %MON dynstat_vvel_max             =   3.8520873410300E-02
(PID.TID 0000.0001) %MON dynstat_vvel_min             =  -1.3169505332155E-02
(PID.TID 0000.0001) %MON dynstat_vvel_mean            =  -5.5359669452056E-06
(PID.TID 0000.0001) %MON dynstat_vvel_sd              =   2.7695807368155E-03
(PID.TID 0000.0001) %MON dynstat_vvel_del2            =   4.9268962849425E-06
(PID.TID 0000.0001) %MON dynstat_wvel_max             =   4.1942969534849E-05
(PID.TID 0000.0001) %MON dynstat_wvel_min             =  -1.0724762556913E-04
(PID.TID 0000.0001) %MON dynstat_wvel_mean            =  -1.7011959496296E-09
(PID.TID 0000.0001) %MON dynstat_wvel_sd              =   3.7387049044979E-06
(PID.TID 0000.0001) %MON dynstat_wvel_del2            =   1.6641476983856E-08
(PID.TID 0000.0001) %MON dynstat_theta_max            =  -1.8915177765302E+00
(PID.TID 0000.0001) %MON dynstat_theta_min            =  -2.5974816204861E+00
(PID.TID 0000.0001) %MON dynstat_theta_mean           =  -1.9220517311776E+00
(PID.TID 0000.0001) %MON dynstat_theta_sd             =   6.0088946891370E-02
(PID.TID 0000.0001) %MON dynstat_theta_del2           =   8.9796550047711E-06
(PID.TID 0000.0001) %MON dynstat_salt_max             =   3.4403370834111E+01
(PID.TID 0000.0001) %MON dynstat_salt_min             =   3.4122823577264E+01
(PID.TID 0000.0001) %MON dynstat_salt_mean            =   3.4391236650273E+01
(PID.TID 0000.0001) %MON dynstat_salt_sd              =   2.3879304594326E-02
(PID.TID 0000.0001) %MON dynstat_salt_del2            =   3.5684127326770E-06
(PID.TID 0000.0001) %MON trAdv_CFL_u_max              =   3.0572882490495E-03
(PID.TID 0000.0001) %MON trAdv_CFL_v_max              =   6.2336887422343E-03
(PID.TID 0000.0001) %MON trAdv_CFL_w_max              =   6.6269989836967E-03
(PID.TID 0000.0001) %MON advcfl_uvel_max              =   3.0899691852591E-03
(PID.TID 0000.0001) %MON advcfl_vvel_max              =   6.2366565859062E-03
(PID.TID 0000.0001) %MON advcfl_wvel_max              =   6.4348575341477E-03
(PID.TID 0000.0001) %MON advcfl_W_hf_max              =   6.4348575341477E-03
(PID.TID 0000.0001) %MON pe_b_mean                    =  -3.3366587056884E-07
(PID.TID 0000.0001) %MON ke_max                       =   7.4339107361570E-04
(PID.TID 0000.0001) %MON ke_mean                      =   4.3575290102459E-06
(PID.TID 0000.0001) %MON ke_vol                       =   2.9241705273105E+14
(PID.TID 0000.0001) %MON vort_r_min                   =  -2.3791823110988E-06
(PID.TID 0000.0001) %MON vort_r_max                   =   4.2230310297009E-06
(PID.TID 0000.0001) %MON vort_a_mean                  =  -1.4007436413044E-04
(PID.TID 0000.0001) %MON vort_a_sd                    =   1.7888119449644E-06
(PID.TID 0000.0001) %MON vort_p_mean                  =  -1.5039772253546E-04
(PID.TID 0000.0001) %MON vort_p_sd                    =   8.6899642070538E-05
(PID.TID 0000.0001) %MON surfExpan_theta_mean         =  -7.7085827798794E-10
(PID.TID 0000.0001) %MON surfExpan_salt_mean          =  -3.0633814873304E-10
(PID.TID 0000.0001) // =======================================================
(PID.TID 0000.0001) // End MONITOR dynamic field statistics
(PID.TID 0000.0001) // =======================================================
 cg2d: Sum(rhs),rhsMax =   8.11017919488677E-13  5.18666114166515E-02
(PID.TID 0000.0001)      cg2d_init_res =   6.96735799634312E-03
(PID.TID 0000.0001)      cg2d_iters(min,last) =      -1     191
(PID.TID 0000.0001)      cg2d_last_res =   9.40113660907999E-14
(PID.TID 0000.0001) // =======================================================
(PID.TID 0000.0001) // Begin MONITOR dynamic field statistics
(PID.TID 0000.0001) // =======================================================
(PID.TID 0000.0001) %MON time_tsnumber                =                  8660
(PID.TID 0000.0001) %MON time_secondsf                =   1.5588000000000E+07
(PID.TID 0000.0001) %MON dynstat_eta_max              =   1.0758094315831E-02
(PID.TID 0000.0001) %MON dynstat_eta_min              =  -2.4521479346850E-03
(PID.TID 0000.0001) %MON dynstat_eta_mean             =  -2.8034265941035E-16
(PID.TID 0000.0001) %MON dynstat_eta_sd               =   9.4664903232131E-04
(PID.TID 0000.0001) %MON dynstat_eta_del2             =   5.2046499488350E-06
(PID.TID 0000.0001) %MON dynstat_uvel_max             =   6.8596895094463E-03
(PID.TID 0000.0001) %MON dynstat_uvel_min             =  -1.0556940057468E-02
(PID.TID 0000.0001) %MON dynstat_uvel_mean            =   2.6291758128485E-05
(PID.TID 0000.0001) %MON dynstat_uvel_sd              =   1.0758512913884E-03
(PID.TID 0000.0001) %MON dynstat_uvel_del2            =   1.3857010447233E-06
(PID.TID 0000.0001) %MON dynstat_vvel_max             =   3.8740881476849E-02
(PID.TID 0000.0001) %MON dynstat_vvel_min             =  -1.3196454974841E-02
(PID.TID 0000.0001) %MON dynstat_vvel_mean            =   6.6068358072682E-07
(PID.TID 0000.0001) %MON dynstat_vvel_sd              =   2.7766215977606E-03
(PID.TID 0000.0001) %MON dynstat_vvel_del2            =   4.9269289422074E-06
(PID.TID 0000.0001) %MON dynstat_wvel_max             =   4.2437289973176E-05
(PID.TID 0000.0001) %MON dynstat_wvel_min             =  -1.0509141283427E-04
(PID.TID 0000.0001) %MON dynstat_wvel_mean            =   9.4452691028957E-10
(PID.TID 0000.0001) %MON dynstat_wvel_sd              =   3.6476784923255E-06
(PID.TID 0000.0001) %MON dynstat_wvel_del2            =   1.6280600244779E-08
(PID.TID 0000.0001) %MON dynstat_theta_max            =  -1.8915373024840E+00
(PID.TID 0000.0001) %MON dynstat_theta_min            =  -2.5970814549168E+00
(PID.TID 0000.0001) %MON dynstat_theta_mean           =  -1.9220517440437E+00
(PID.TID 0000.0001) %MON dynstat_theta_sd             =   6.0085454777462E-02
(PID.TID 0000.0001) %MON dynstat_theta_del2           =   8.9696253495586E-06
(PID.TID 0000.0001) %MON dynstat_salt_max             =   3.4403363074406E+01
(PID.TID 0000.0001) %MON dynstat_salt_min             =   3.4122982710697E+01
(PID.TID 0000.0001) %MON dynstat_salt_mean            =   3.4391236645554E+01
(PID.TID 0000.0001) %MON dynstat_salt_sd              =   2.3877914790128E-02
(PID.TID 0000.0001) %MON dynstat_salt_del2            =   3.5644230800075E-06
(PID.TID 0000.0001) %MON trAdv_CFL_u_max              =   3.0899695774503E-03
(PID.TID 0000.0001) %MON trAdv_CFL_v_max              =   6.2621505739986E-03
(PID.TID 0000.0001) %MON trAdv_CFL_w_max              =   6.4348575341477E-03
(PID.TID 0000.0001) %MON advcfl_uvel_max              =   3.1411546833267E-03
(PID.TID 0000.0001) %MON advcfl_vvel_max              =   6.2722766182606E-03
(PID.TID 0000.0001) %MON advcfl_wvel_max              =   6.3054847700563E-03
(PID.TID 0000.0001) %MON advcfl_W_hf_max              =   6.3054847700563E-03
(PID.TID 0000.0001) %MON pe_b_mean                    =  -3.2995064133964E-07
(PID.TID 0000.0001) %MON ke_max                       =   7.5202419534103E-04
(PID.TID 0000.0001) %MON ke_mean                      =   4.3767467506146E-06
(PID.TID 0000.0001) %MON ke_vol                       =   2.9241705273105E+14
(PID.TID 0000.0001) %MON vort_r_min                   =  -2.3700326240846E-06
(PID.TID 0000.0001) %MON vort_r_max                   =   4.2484222016473E-06
(PID.TID 0000.0001) %MON vort_a_mean                  =  -1.4007436508571E-04
(PID.TID 0000.0001) %MON vort_a_sd                    =   1.7888541526106E-06
(PID.TID 0000.0001) %MON vort_p_mean                  =  -1.5039772352523E-04
(PID.TID 0000.0001) %MON vort_p_sd                    =   8.6898933023957E-05
(PID.TID 0000.0001) %MON surfExpan_theta_mean         =   5.5576884565560E-10
(PID.TID 0000.0001) %MON surfExpan_salt_mean          =   2.2086024202102E-10
(PID.TID 0000.0001) // =======================================================
(PID.TID 0000.0001) // End MONITOR dynamic field statistics
(PID.TID 0000.0001) // =======================================================
(PID.TID 0000.0001) %CHECKPOINT      8660 ckptA
(PID.TID 0000.0001)   Seconds in section "ALL                    [THE_MODEL_MAIN]":
(PID.TID 0000.0001)           User time:   48.016700645908713
(PID.TID 0000.0001)         System time:  0.20396899455226958
(PID.TID 0000.0001)     Wall clock time:   69.428819894790649
(PID.TID 0000.0001)          No. starts:           1
(PID.TID 0000.0001)           No. stops:           1
(PID.TID 0000.0001)   Seconds in section "INITIALISE_FIXED       [THE_MODEL_MAIN]":
(PID.TID 0000.0001)           User time:  0.70289297960698605
(PID.TID 0000.0001)         System time:  0.10198500030674040
(PID.TID 0000.0001)     Wall clock time:   13.364760160446167
(PID.TID 0000.0001)          No. starts:           1
(PID.TID 0000.0001)           No. stops:           1
(PID.TID 0000.0001)   Seconds in section "THE_MAIN_LOOP          [THE_MODEL_MAIN]":
(PID.TID 0000.0001)           User time:   47.310809314250946
(PID.TID 0000.0001)         System time:  0.10198399424552917
(PID.TID 0000.0001)     Wall clock time:   56.060230970382690
(PID.TID 0000.0001)          No. starts:           1
(PID.TID 0000.0001)           No. stops:           1
(PID.TID 0000.0001)   Seconds in section "INITIALISE_VARIA    [THE_MAIN_LOOP]":
(PID.TID 0000.0001)           User time:  0.78388100862503052
(PID.TID 0000.0001)         System time:  5.89910000562667847E-002
(PID.TID 0000.0001)     Wall clock time:   4.1379530429840088
(PID.TID 0000.0001)          No. starts:           1
(PID.TID 0000.0001)           No. stops:           1
(PID.TID 0000.0001)   Seconds in section "MAIN LOOP           [THE_MAIN_LOOP]":
(PID.TID 0000.0001)           User time:   46.526928305625916
(PID.TID 0000.0001)         System time:  4.29929941892623901E-002
(PID.TID 0000.0001)     Wall clock time:   51.922235965728760
(PID.TID 0000.0001)          No. starts:           1
(PID.TID 0000.0001)           No. stops:           1
(PID.TID 0000.0001)   Seconds in section "MAIN_DO_LOOP        [THE_MAIN_LOOP]":
(PID.TID 0000.0001)           User time:   46.526928305625916
(PID.TID 0000.0001)         System time:  4.29929941892623901E-002
(PID.TID 0000.0001)     Wall clock time:   51.922046184539795
(PID.TID 0000.0001)          No. starts:          20
(PID.TID 0000.0001)           No. stops:          20
(PID.TID 0000.0001)   Seconds in section "FORWARD_STEP        [MAIN_DO_LOOP]":
(PID.TID 0000.0001)           User time:   46.525928854942322
(PID.TID 0000.0001)         System time:  4.29929941892623901E-002
(PID.TID 0000.0001)     Wall clock time:   51.921670913696289
(PID.TID 0000.0001)          No. starts:          20
(PID.TID 0000.0001)           No. stops:          20
(PID.TID 0000.0001)   Seconds in section "LOAD_FIELDS_DRIVER  [FORWARD_STEP]":
(PID.TID 0000.0001)           User time:  1.99937820434570313E-003
(PID.TID 0000.0001)         System time:   0.0000000000000000
(PID.TID 0000.0001)     Wall clock time:  5.61237335205078125E-004
(PID.TID 0000.0001)          No. starts:          20
(PID.TID 0000.0001)           No. stops:          20
(PID.TID 0000.0001)   Seconds in section "EXTERNAL_FLDS_LOAD [LOAD_FLDS_DRIVER]":
(PID.TID 0000.0001)           User time:   0.0000000000000000
(PID.TID 0000.0001)         System time:   0.0000000000000000
(PID.TID 0000.0001)     Wall clock time:  1.85012817382812500E-004
(PID.TID 0000.0001)          No. starts:          20
(PID.TID 0000.0001)           No. stops:          20
(PID.TID 0000.0001)   Seconds in section "DO_ATMOSPHERIC_PHYS [FORWARD_STEP]":
(PID.TID 0000.0001)           User time:   0.0000000000000000
(PID.TID 0000.0001)         System time:   0.0000000000000000
(PID.TID 0000.0001)     Wall clock time:  1.88112258911132813E-004
(PID.TID 0000.0001)          No. starts:          20
(PID.TID 0000.0001)           No. stops:          20
(PID.TID 0000.0001)   Seconds in section "DO_OCEANIC_PHYS     [FORWARD_STEP]":
(PID.TID 0000.0001)           User time:  0.87286627292633057
(PID.TID 0000.0001)         System time:  9.99003648757934570E-004
(PID.TID 0000.0001)     Wall clock time:  0.87861704826354980
(PID.TID 0000.0001)          No. starts:          20
(PID.TID 0000.0001)           No. stops:          20
(PID.TID 0000.0001)   Seconds in section "SHELFICE_THERMODYNAMICS [DO_OCEANIC_PHYS]":
(PID.TID 0000.0001)           User time:  0.13297355175018311
(PID.TID 0000.0001)         System time:  9.99003648757934570E-004
(PID.TID 0000.0001)     Wall clock time:  0.13486814498901367
(PID.TID 0000.0001)          No. starts:          20
(PID.TID 0000.0001)           No. stops:          20
(PID.TID 0000.0001)   Seconds in section "THERMODYNAMICS      [FORWARD_STEP]":
(PID.TID 0000.0001)           User time:   9.3825798034667969
(PID.TID 0000.0001)         System time:  1.00000202655792236E-003
(PID.TID 0000.0001)     Wall clock time:   9.4044122695922852
(PID.TID 0000.0001)          No. starts:          20
(PID.TID 0000.0001)           No. stops:          20
(PID.TID 0000.0001)   Seconds in section "DYNAMICS            [FORWARD_STEP]":
(PID.TID 0000.0001)           User time:   17.197380065917969
(PID.TID 0000.0001)         System time:  9.99987125396728516E-004
(PID.TID 0000.0001)     Wall clock time:   17.235301971435547
(PID.TID 0000.0001)          No. starts:          20
(PID.TID 0000.0001)           No. stops:          20
(PID.TID 0000.0001)   Seconds in section "UPDATE_SURF_DR      [FORWARD_STEP]":
(PID.TID 0000.0001)           User time:  2.29992866516113281E-002
(PID.TID 0000.0001)         System time:   0.0000000000000000
(PID.TID 0000.0001)     Wall clock time:  2.28424072265625000E-002
(PID.TID 0000.0001)          No. starts:          20
(PID.TID 0000.0001)           No. stops:          20
(PID.TID 0000.0001)   Seconds in section "UPDATE_CG2D         [FORWARD_STEP]":
(PID.TID 0000.0001)           User time:  0.35694336891174316
(PID.TID 0000.0001)         System time:   0.0000000000000000
(PID.TID 0000.0001)     Wall clock time:  0.36042213439941406
(PID.TID 0000.0001)          No. starts:          20
(PID.TID 0000.0001)           No. stops:          20
(PID.TID 0000.0001)   Seconds in section "SOLVE_FOR_PRESSURE  [FORWARD_STEP]":
(PID.TID 0000.0001)           User time:   8.9136474132537842
(PID.TID 0000.0001)         System time:   0.0000000000000000
(PID.TID 0000.0001)     Wall clock time:   8.9288227558135986
(PID.TID 0000.0001)          No. starts:          20
(PID.TID 0000.0001)           No. stops:          20
(PID.TID 0000.0001)   Seconds in section "MOM_CORRECTION_STEP [FORWARD_STEP]":
(PID.TID 0000.0001)           User time:  0.74788427352905273
(PID.TID 0000.0001)         System time:   0.0000000000000000
(PID.TID 0000.0001)     Wall clock time:  0.75113034248352051
(PID.TID 0000.0001)          No. starts:          20
(PID.TID 0000.0001)           No. stops:          20
(PID.TID 0000.0001)   Seconds in section "INTEGR_CONTINUITY   [FORWARD_STEP]":
(PID.TID 0000.0001)           User time:   1.0358362197875977
(PID.TID 0000.0001)         System time:   0.0000000000000000
(PID.TID 0000.0001)     Wall clock time:   1.0425767898559570
(PID.TID 0000.0001)          No. starts:          20
(PID.TID 0000.0001)           No. stops:          20
(PID.TID 0000.0001)   Seconds in section "CALC_SURF_DR      [FORWARD_STEP]":
(PID.TID 0000.0001)           User time:  4.89947795867919922E-002
(PID.TID 0000.0001)         System time:   0.0000000000000000
(PID.TID 0000.0001)     Wall clock time:  4.52806949615478516E-002
(PID.TID 0000.0001)          No. starts:          20
(PID.TID 0000.0001)           No. stops:          20
(PID.TID 0000.0001)   Seconds in section "TRC_CORRECTION_STEP [FORWARD_STEP]":
(PID.TID 0000.0001)           User time:   2.0846869945526123
(PID.TID 0000.0001)         System time:   0.0000000000000000
(PID.TID 0000.0001)     Wall clock time:   2.0839087963104248
(PID.TID 0000.0001)          No. starts:          20
(PID.TID 0000.0001)           No. stops:          20
(PID.TID 0000.0001)   Seconds in section "BLOCKING_EXCHANGES  [FORWARD_STEP]":
(PID.TID 0000.0001)           User time:  0.50992035865783691
(PID.TID 0000.0001)         System time:   0.0000000000000000
(PID.TID 0000.0001)     Wall clock time:  0.51488804817199707
(PID.TID 0000.0001)          No. starts:          20
(PID.TID 0000.0001)           No. stops:          20
(PID.TID 0000.0001)   Seconds in section "DO_STATEVARS_TAVE   [FORWARD_STEP]":
(PID.TID 0000.0001)           User time:  9.99450683593750000E-004
(PID.TID 0000.0001)         System time:   0.0000000000000000
(PID.TID 0000.0001)     Wall clock time:  2.14099884033203125E-004
(PID.TID 0000.0001)          No. starts:          20
(PID.TID 0000.0001)           No. stops:          20
(PID.TID 0000.0001)   Seconds in section "MONITOR             [FORWARD_STEP]":
(PID.TID 0000.0001)           User time:   4.9552512168884277
(PID.TID 0000.0001)         System time:  2.00000405311584473E-003
(PID.TID 0000.0001)     Wall clock time:   4.9697895050048828
(PID.TID 0000.0001)          No. starts:          20
(PID.TID 0000.0001)           No. stops:          20
(PID.TID 0000.0001)   Seconds in section "DO_THE_MODEL_IO     [FORWARD_STEP]":
(PID.TID 0000.0001)           User time:  0.26995849609375000
(PID.TID 0000.0001)         System time:  2.99949944019317627E-002
(PID.TID 0000.0001)     Wall clock time:   5.5509324073791504
(PID.TID 0000.0001)          No. starts:          20
(PID.TID 0000.0001)           No. stops:          20
(PID.TID 0000.0001)   Seconds in section "DO_WRITE_PICKUP     [FORWARD_STEP]":
(PID.TID 0000.0001)           User time:  0.12098312377929688
(PID.TID 0000.0001)         System time:  6.99900090694427490E-003
(PID.TID 0000.0001)     Wall clock time:  0.12813520431518555
(PID.TID 0000.0001)          No. starts:          20
(PID.TID 0000.0001)           No. stops:          20
(PID.TID 0000.0001) // ======================================================
(PID.TID 0000.0001) // Tile <-> Tile communication statistics
(PID.TID 0000.0001) // ======================================================
(PID.TID 0000.0001) // o Tile number: 000001
(PID.TID 0000.0001) //         No. X exchanges =              0
(PID.TID 0000.0001) //            Max. X spins =              0
(PID.TID 0000.0001) //            Min. X spins =     1000000000
(PID.TID 0000.0001) //          Total. X spins =              0
(PID.TID 0000.0001) //            Avg. X spins =       0.00E+00
(PID.TID 0000.0001) //         No. Y exchanges =              0
(PID.TID 0000.0001) //            Max. Y spins =              0
(PID.TID 0000.0001) //            Min. Y spins =     1000000000
(PID.TID 0000.0001) //          Total. Y spins =              0
(PID.TID 0000.0001) //            Avg. Y spins =       0.00E+00
(PID.TID 0000.0001) // o Tile number: 000002
(PID.TID 0000.0001) //         No. X exchanges =              0
(PID.TID 0000.0001) //            Max. X spins =              0
(PID.TID 0000.0001) //            Min. X spins =     1000000000
(PID.TID 0000.0001) //          Total. X spins =              0
(PID.TID 0000.0001) //            Avg. X spins =       0.00E+00
(PID.TID 0000.0001) //         No. Y exchanges =              0
(PID.TID 0000.0001) //            Max. Y spins =              0
(PID.TID 0000.0001) //            Min. Y spins =     1000000000
(PID.TID 0000.0001) //          Total. Y spins =              0
(PID.TID 0000.0001) //            Avg. Y spins =       0.00E+00
(PID.TID 0000.0001) // o Tile number: 000003
(PID.TID 0000.0001) //         No. X exchanges =              0
(PID.TID 0000.0001) //            Max. X spins =              0
(PID.TID 0000.0001) //            Min. X spins =     1000000000
(PID.TID 0000.0001) //          Total. X spins =              0
(PID.TID 0000.0001) //            Avg. X spins =       0.00E+00
(PID.TID 0000.0001) //         No. Y exchanges =              0
(PID.TID 0000.0001) //            Max. Y spins =              0
(PID.TID 0000.0001) //            Min. Y spins =     1000000000
(PID.TID 0000.0001) //          Total. Y spins =              0
(PID.TID 0000.0001) //            Avg. Y spins =       0.00E+00
(PID.TID 0000.0001) // o Tile number: 000004
(PID.TID 0000.0001) //         No. X exchanges =              0
(PID.TID 0000.0001) //            Max. X spins =              0
(PID.TID 0000.0001) //            Min. X spins =     1000000000
(PID.TID 0000.0001) //          Total. X spins =              0
(PID.TID 0000.0001) //            Avg. X spins =       0.00E+00
(PID.TID 0000.0001) //         No. Y exchanges =              0
(PID.TID 0000.0001) //            Max. Y spins =              0
(PID.TID 0000.0001) //            Min. Y spins =     1000000000
(PID.TID 0000.0001) //          Total. Y spins =              0
(PID.TID 0000.0001) //            Avg. Y spins =       0.00E+00
(PID.TID 0000.0001) // o Tile number: 000005
(PID.TID 0000.0001) //         No. X exchanges =              0
(PID.TID 0000.0001) //            Max. X spins =              0
(PID.TID 0000.0001) //            Min. X spins =     1000000000
(PID.TID 0000.0001) //          Total. X spins =              0
(PID.TID 0000.0001) //            Avg. X spins =       0.00E+00
(PID.TID 0000.0001) //         No. Y exchanges =              0
(PID.TID 0000.0001) //            Max. Y spins =              0
(PID.TID 0000.0001) //            Min. Y spins =     1000000000
(PID.TID 0000.0001) //          Total. Y spins =              0
(PID.TID 0000.0001) //            Avg. Y spins =       0.00E+00
(PID.TID 0000.0001) // o Tile number: 000006
(PID.TID 0000.0001) //         No. X exchanges =              0
(PID.TID 0000.0001) //            Max. X spins =              0
(PID.TID 0000.0001) //            Min. X spins =     1000000000
(PID.TID 0000.0001) //          Total. X spins =              0
(PID.TID 0000.0001) //            Avg. X spins =       0.00E+00
(PID.TID 0000.0001) //         No. Y exchanges =              0
(PID.TID 0000.0001) //            Max. Y spins =              0
(PID.TID 0000.0001) //            Min. Y spins =     1000000000
(PID.TID 0000.0001) //          Total. Y spins =              0
(PID.TID 0000.0001) //            Avg. Y spins =       0.00E+00
(PID.TID 0000.0001) // o Tile number: 000007
(PID.TID 0000.0001) //         No. X exchanges =              0
(PID.TID 0000.0001) //            Max. X spins =              0
(PID.TID 0000.0001) //            Min. X spins =     1000000000
(PID.TID 0000.0001) //          Total. X spins =              0
(PID.TID 0000.0001) //            Avg. X spins =       0.00E+00
(PID.TID 0000.0001) //         No. Y exchanges =              0
(PID.TID 0000.0001) //            Max. Y spins =              0
(PID.TID 0000.0001) //            Min. Y spins =     1000000000
(PID.TID 0000.0001) //          Total. Y spins =              0
(PID.TID 0000.0001) //            Avg. Y spins =       0.00E+00
(PID.TID 0000.0001) // o Tile number: 000008
(PID.TID 0000.0001) //         No. X exchanges =              0
(PID.TID 0000.0001) //            Max. X spins =              0
(PID.TID 0000.0001) //            Min. X spins =     1000000000
(PID.TID 0000.0001) //          Total. X spins =              0
(PID.TID 0000.0001) //            Avg. X spins =       0.00E+00
(PID.TID 0000.0001) //         No. Y exchanges =              0
(PID.TID 0000.0001) //            Max. Y spins =              0
(PID.TID 0000.0001) //            Min. Y spins =     1000000000
(PID.TID 0000.0001) //          Total. Y spins =              0
(PID.TID 0000.0001) //            Avg. Y spins =       0.00E+00
(PID.TID 0000.0001) // o Thread number: 000001
(PID.TID 0000.0001) //            No. barriers =          27198
(PID.TID 0000.0001) //      Max. barrier spins =              1
(PID.TID 0000.0001) //      Min. barrier spins =              1
(PID.TID 0000.0001) //     Total barrier spins =          27198
(PID.TID 0000.0001) //      Avg. barrier spins =       1.00E+00
PROGRAM MAIN: Execution ended Normally
