(PID.TID 0000.0001) 
(PID.TID 0000.0001) // ======================================================
(PID.TID 0000.0001) //                      MITgcm UV
(PID.TID 0000.0001) //                      =========
(PID.TID 0000.0001) // ======================================================
(PID.TID 0000.0001) // execution environment starting up...
(PID.TID 0000.0001) 
(PID.TID 0000.0001) // MITgcmUV version:  checkpoint65
(PID.TID 0000.0001) // Build user:        jmc
(PID.TID 0000.0001) // Build host:        baudelaire
(PID.TID 0000.0001) // Build date:        Thu Jul 24 17:37:16 EDT 2014
(PID.TID 0000.0001) 
(PID.TID 0000.0001) // =======================================================
(PID.TID 0000.0001) // Execution Environment parameter file "eedata"
(PID.TID 0000.0001) // =======================================================
(PID.TID 0000.0001) ># Example "eedata" file
(PID.TID 0000.0001) ># Lines beginning "#" are comments
(PID.TID 0000.0001) ># nTx - No. threads per process in X
(PID.TID 0000.0001) ># nTy - No. threads per process in Y
(PID.TID 0000.0001) > &EEPARMS
(PID.TID 0000.0001) > /
(PID.TID 0000.0001) ># Note: Some systems use & as the
(PID.TID 0000.0001) ># namelist terminator. Other systems
(PID.TID 0000.0001) ># use a / character (as shown here).
(PID.TID 0000.0001) 
(PID.TID 0000.0001) // =======================================================
(PID.TID 0000.0001) // Computational Grid Specification ( see files "SIZE.h" )
(PID.TID 0000.0001) //                                  ( and "eedata"       )
(PID.TID 0000.0001) // =======================================================
(PID.TID 0000.0001)      nPx =    1 ; /* No. processes in X */
(PID.TID 0000.0001)      nPy =    1 ; /* No. processes in Y */
(PID.TID 0000.0001)      nSx =    2 ; /* No. tiles in X per process */
(PID.TID 0000.0001)      nSy =    4 ; /* No. tiles in Y per process */
(PID.TID 0000.0001)      sNx =   25 ; /* Tile size in X */
(PID.TID 0000.0001)      sNy =   25 ; /* Tile size in Y */
(PID.TID 0000.0001)      OLx =    3 ; /* Tile overlap distance in X */
(PID.TID 0000.0001)      OLy =    3 ; /* Tile overlap distance in Y */
(PID.TID 0000.0001)      nTx =    1 ; /* No. threads in X per process */
(PID.TID 0000.0001)      nTy =    1 ; /* No. threads in Y per process */
(PID.TID 0000.0001)       Nr =   30 ; /* No. levels in the vertical   */
(PID.TID 0000.0001)       Nx =   50 ; /* Total domain size in X ( = nPx*nSx*sNx ) */
(PID.TID 0000.0001)       Ny =  100 ; /* Total domain size in Y ( = nPy*nSy*sNy ) */
(PID.TID 0000.0001)   nTiles =    8 ; /* Total no. tiles per process ( = nSx*nSy ) */
(PID.TID 0000.0001)   nProcs =    1 ; /* Total no. processes ( = nPx*nPy ) */
(PID.TID 0000.0001) nThreads =    1 ; /* Total no. threads per process ( = nTx*nTy ) */
(PID.TID 0000.0001) usingMPI =    F ; /* Flag used to control whether MPI is in use */
(PID.TID 0000.0001)                   /*  note: To execute a program with MPI calls */
(PID.TID 0000.0001)                   /*  it must be launched appropriately e.g     */
(PID.TID 0000.0001)                   /*  "mpirun -np 64 ......"                    */
(PID.TID 0000.0001) useCoupler=    F ;/* Flag used to control communications with   */
(PID.TID 0000.0001)                   /*  other model components, through a coupler */
(PID.TID 0000.0001) debugMode =    F ; /* print debug msg. (sequence of S/R calls)  */
(PID.TID 0000.0001) printMapIncludesZeros=    F ; /* print zeros in Std.Output maps */
(PID.TID 0000.0001) maxLengthPrt1D=   65 /* maxLength of 1D array printed to StdOut */
(PID.TID 0000.0001) 
(PID.TID 0000.0001) // ======================================================
(PID.TID 0000.0001) // Mapping of tiles to threads
(PID.TID 0000.0001) // ======================================================
(PID.TID 0000.0001) // -o- Thread   1, tiles (   1:   2,   1:   4)
(PID.TID 0000.0001) 
(PID.TID 0000.0001) // ======================================================
(PID.TID 0000.0001) // Tile <-> Tile connectvity table
(PID.TID 0000.0001) // ======================================================
(PID.TID 0000.0001) // Tile number: 000001 (process no. = 000000)
(PID.TID 0000.0001) //        WEST: Tile = 000002, Process = 000000, Comm = put
(PID.TID 0000.0001) //                bi = 000002, bj = 000001
(PID.TID 0000.0001) //        EAST: Tile = 000002, Process = 000000, Comm = put
(PID.TID 0000.0001) //                bi = 000002, bj = 000001
(PID.TID 0000.0001) //       SOUTH: Tile = 000007, Process = 000000, Comm = put
(PID.TID 0000.0001) //                bi = 000001, bj = 000004
(PID.TID 0000.0001) //       NORTH: Tile = 000003, Process = 000000, Comm = put
(PID.TID 0000.0001) //                bi = 000001, bj = 000002
(PID.TID 0000.0001) // Tile number: 000002 (process no. = 000000)
(PID.TID 0000.0001) //        WEST: Tile = 000001, Process = 000000, Comm = put
(PID.TID 0000.0001) //                bi = 000001, bj = 000001
(PID.TID 0000.0001) //        EAST: Tile = 000001, Process = 000000, Comm = put
(PID.TID 0000.0001) //                bi = 000001, bj = 000001
(PID.TID 0000.0001) //       SOUTH: Tile = 000008, Process = 000000, Comm = put
(PID.TID 0000.0001) //                bi = 000002, bj = 000004
(PID.TID 0000.0001) //       NORTH: Tile = 000004, Process = 000000, Comm = put
(PID.TID 0000.0001) //                bi = 000002, bj = 000002
(PID.TID 0000.0001) // Tile number: 000003 (process no. = 000000)
(PID.TID 0000.0001) //        WEST: Tile = 000004, Process = 000000, Comm = put
(PID.TID 0000.0001) //                bi = 000002, bj = 000002
(PID.TID 0000.0001) //        EAST: Tile = 000004, Process = 000000, Comm = put
(PID.TID 0000.0001) //                bi = 000002, bj = 000002
(PID.TID 0000.0001) //       SOUTH: Tile = 000001, Process = 000000, Comm = put
(PID.TID 0000.0001) //                bi = 000001, bj = 000001
(PID.TID 0000.0001) //       NORTH: Tile = 000005, Process = 000000, Comm = put
(PID.TID 0000.0001) //                bi = 000001, bj = 000003
(PID.TID 0000.0001) // Tile number: 000004 (process no. = 000000)
(PID.TID 0000.0001) //        WEST: Tile = 000003, Process = 000000, Comm = put
(PID.TID 0000.0001) //                bi = 000001, bj = 000002
(PID.TID 0000.0001) //        EAST: Tile = 000003, Process = 000000, Comm = put
(PID.TID 0000.0001) //                bi = 000001, bj = 000002
(PID.TID 0000.0001) //       SOUTH: Tile = 000002, Process = 000000, Comm = put
(PID.TID 0000.0001) //                bi = 000002, bj = 000001
(PID.TID 0000.0001) //       NORTH: Tile = 000006, Process = 000000, Comm = put
(PID.TID 0000.0001) //                bi = 000002, bj = 000003
(PID.TID 0000.0001) // Tile number: 000005 (process no. = 000000)
(PID.TID 0000.0001) //        WEST: Tile = 000006, Process = 000000, Comm = put
(PID.TID 0000.0001) //                bi = 000002, bj = 000003
(PID.TID 0000.0001) //        EAST: Tile = 000006, Process = 000000, Comm = put
(PID.TID 0000.0001) //                bi = 000002, bj = 000003
(PID.TID 0000.0001) //       SOUTH: Tile = 000003, Process = 000000, Comm = put
(PID.TID 0000.0001) //                bi = 000001, bj = 000002
(PID.TID 0000.0001) //       NORTH: Tile = 000007, Process = 000000, Comm = put
(PID.TID 0000.0001) //                bi = 000001, bj = 000004
(PID.TID 0000.0001) // Tile number: 000006 (process no. = 000000)
(PID.TID 0000.0001) //        WEST: Tile = 000005, Process = 000000, Comm = put
(PID.TID 0000.0001) //                bi = 000001, bj = 000003
(PID.TID 0000.0001) //        EAST: Tile = 000005, Process = 000000, Comm = put
(PID.TID 0000.0001) //                bi = 000001, bj = 000003
(PID.TID 0000.0001) //       SOUTH: Tile = 000004, Process = 000000, Comm = put
(PID.TID 0000.0001) //                bi = 000002, bj = 000002
(PID.TID 0000.0001) //       NORTH: Tile = 000008, Process = 000000, Comm = put
(PID.TID 0000.0001) //                bi = 000002, bj = 000004
(PID.TID 0000.0001) // Tile number: 000007 (process no. = 000000)
(PID.TID 0000.0001) //        WEST: Tile = 000008, Process = 000000, Comm = put
(PID.TID 0000.0001) //                bi = 000002, bj = 000004
(PID.TID 0000.0001) //        EAST: Tile = 000008, Process = 000000, Comm = put
(PID.TID 0000.0001) //                bi = 000002, bj = 000004
(PID.TID 0000.0001) //       SOUTH: Tile = 000005, Process = 000000, Comm = put
(PID.TID 0000.0001) //                bi = 000001, bj = 000003
(PID.TID 0000.0001) //       NORTH: Tile = 000001, Process = 000000, Comm = put
(PID.TID 0000.0001) //                bi = 000001, bj = 000001
(PID.TID 0000.0001) // Tile number: 000008 (process no. = 000000)
(PID.TID 0000.0001) //        WEST: Tile = 000007, Process = 000000, Comm = put
(PID.TID 0000.0001) //                bi = 000001, bj = 000004
(PID.TID 0000.0001) //        EAST: Tile = 000007, Process = 000000, Comm = put
(PID.TID 0000.0001) //                bi = 000001, bj = 000004
(PID.TID 0000.0001) //       SOUTH: Tile = 000006, Process = 000000, Comm = put
(PID.TID 0000.0001) //                bi = 000002, bj = 000003
(PID.TID 0000.0001) //       NORTH: Tile = 000002, Process = 000000, Comm = put
(PID.TID 0000.0001) //                bi = 000002, bj = 000001
(PID.TID 0000.0001) 
(PID.TID 0000.0001)  INI_PARMS: opening model parameter file "data"
(PID.TID 0000.0001)  OPEN_COPY_DATA_FILE: opening file data
(PID.TID 0000.0001) // =======================================================
(PID.TID 0000.0001) // Parameter file "data"
(PID.TID 0000.0001) // =======================================================
(PID.TID 0000.0001) ># ====================
(PID.TID 0000.0001) ># | Model parameters |
(PID.TID 0000.0001) ># ====================
(PID.TID 0000.0001) >#
(PID.TID 0000.0001) ># Continuous equation parameters
(PID.TID 0000.0001) > &PARM01
(PID.TID 0000.0001) > Tref = 30*-1.9,
(PID.TID 0000.0001) > Sref = 30*34.4,
(PID.TID 0000.0001) > viscAz=1.E-3,
(PID.TID 0000.0001) > viscAh=600.0,
(PID.TID 0000.0001) > no_slip_sides=.FALSE.,
(PID.TID 0000.0001) > no_slip_bottom=.FALSE.,
(PID.TID 0000.0001) > diffKhT=100.0,
(PID.TID 0000.0001) > diffKzT=5.E-5,
(PID.TID 0000.0001) > diffKhS=100.0,
(PID.TID 0000.0001) > diffKzS=5.E-5,
(PID.TID 0000.0001) > bottomDragQuadratic=2.5E-3,
(PID.TID 0000.0001) > eosType='JMD95Z',
(PID.TID 0000.0001) > HeatCapacity_cp = 3974.0,
(PID.TID 0000.0001) > rhoConst=1030.,
(PID.TID 0000.0001) > gravity=9.81,
(PID.TID 0000.0001) > convertFW2Salt = 33.4,
(PID.TID 0000.0001) > implicitFreeSurface=.TRUE.,
(PID.TID 0000.0001) > exactConserv=.TRUE.,
(PID.TID 0000.0001) > hFacMin=0.10,
(PID.TID 0000.0001) > nonHydrostatic=.FALSE.,
(PID.TID 0000.0001) > useCDScheme = .TRUE.,
(PID.TID 0000.0001) >#ph(
(PID.TID 0000.0001) > implicitDiffusion=.TRUE.,
(PID.TID 0000.0001) ># ivdc_kappa = 7200.,
(PID.TID 0000.0001) > staggerTimeStep=.TRUE.,
(PID.TID 0000.0001) > vectorInvariantMomentum=.TRUE.,
(PID.TID 0000.0001) > nonlinFreeSurf=2,
(PID.TID 0000.0001) > hFacInf=0.05,
(PID.TID 0000.0001) > hFacSup=2.0,
(PID.TID 0000.0001) >#ph)
(PID.TID 0000.0001) > readBinaryPrec=64,
(PID.TID 0000.0001) > useSingleCpuIO=.TRUE.,
(PID.TID 0000.0001) > /
(PID.TID 0000.0001) >
(PID.TID 0000.0001) ># Elliptic solver parameters
(PID.TID 0000.0001) > &PARM02
(PID.TID 0000.0001) > cg2dMaxIters=1000,
(PID.TID 0000.0001) > cg2dTargetResidual=1.E-13,
(PID.TID 0000.0001) > /
(PID.TID 0000.0001) >
(PID.TID 0000.0001) ># Time stepping parameters
(PID.TID 0000.0001) > &PARM03
(PID.TID 0000.0001) > nIter0=8640,
(PID.TID 0000.0001) > nTimeSteps=10,
(PID.TID 0000.0001) > deltaT=1800.0,
(PID.TID 0000.0001) > abEps=0.1,
(PID.TID 0000.0001) > cAdjFreq = 1.,
(PID.TID 0000.0001) > tauCD = 400000.,
(PID.TID 0000.0001) > pChkptFreq=0.0,
(PID.TID 0000.0001) > chkptFreq=0.0,
(PID.TID 0000.0001) > dumpFreq=0.0,
(PID.TID 0000.0001) > taveFreq=0.0,
(PID.TID 0000.0001) > monitorFreq=1.,
(PID.TID 0000.0001) > monitorSelect=2,
(PID.TID 0000.0001) > adjMonitorFreq=1800.,
(PID.TID 0000.0001) > /
(PID.TID 0000.0001) >
(PID.TID 0000.0001) ># Gridding parameters
(PID.TID 0000.0001) > &PARM04
(PID.TID 0000.0001) > usingSphericalPolarGrid=.TRUE.,
(PID.TID 0000.0001) > ygOrigin = -80.0,
(PID.TID 0000.0001) > delX=50*0.3,
(PID.TID 0000.0001) > delY=100*0.1,
(PID.TID 0000.0001) > delZ=30*30.0,
(PID.TID 0000.0001) > /
(PID.TID 0000.0001) >
(PID.TID 0000.0001) ># Input datasets
(PID.TID 0000.0001) > &PARM05
(PID.TID 0000.0001) > bathyFile='bathy.box',
(PID.TID 0000.0001) > /
(PID.TID 0000.0001) 
(PID.TID 0000.0001)  INI_PARMS ; starts to read PARM01
(PID.TID 0000.0001)  INI_PARMS ; read PARM01 : OK
(PID.TID 0000.0001)  INI_PARMS ; starts to read PARM02
(PID.TID 0000.0001)  INI_PARMS ; read PARM02 : OK
(PID.TID 0000.0001)  INI_PARMS ; starts to read PARM03
(PID.TID 0000.0001)  INI_PARMS ; read PARM03 : OK
(PID.TID 0000.0001)  INI_PARMS ; starts to read PARM04
(PID.TID 0000.0001)  INI_PARMS ; read PARM04 : OK
(PID.TID 0000.0001)  INI_PARMS ; starts to read PARM05
(PID.TID 0000.0001)  INI_PARMS ; read PARM05 : OK
(PID.TID 0000.0001)  INI_PARMS: finished reading file "data"
(PID.TID 0000.0001)  PACKAGES_BOOT: opening data.pkg
(PID.TID 0000.0001)  OPEN_COPY_DATA_FILE: opening file data.pkg
(PID.TID 0000.0001) // =======================================================
(PID.TID 0000.0001) // Parameter file "data.pkg"
(PID.TID 0000.0001) // =======================================================
(PID.TID 0000.0001) ># Packages
(PID.TID 0000.0001) > &PACKAGES
(PID.TID 0000.0001) > useMNC=.TRUE.,
(PID.TID 0000.0001) > useShelfIce=.TRUE.,
(PID.TID 0000.0001) > useGrdchk=.TRUE.,
(PID.TID 0000.0001) > /
(PID.TID 0000.0001) 
(PID.TID 0000.0001)  PACKAGES_BOOT: finished reading data.pkg
(PID.TID 0000.0001)  PACKAGES_BOOT: On/Off package Summary
 --------  pkgs with a standard "usePKG" On/Off switch in "data.pkg":  --------
 pkg/grdchk               compiled   and   used ( useGrdchk                = T )
 pkg/shelfice             compiled   and   used ( useShelfIce              = T )
 pkg/diagnostics          compiled but not used ( useDiagnostics           = F )
 pkg/mnc                  compiled   and   used ( useMNC                   = T )
 -------- pkgs without standard "usePKG" On/Off switch in "data.pkg":  --------
 pkg/generic_advdiff      compiled   and   used ( useGAD                   = T )
 pkg/mom_common           compiled   and   used ( momStepping              = T )
 pkg/mom_vecinv           compiled   and   used ( +vectorInvariantMomentum = T )
 pkg/mom_fluxform         compiled but not used ( & not vectorInvariantMom = F )
 pkg/cd_code              compiled   and   used ( useCDscheme              = T )
 pkg/monitor              compiled   and   used ( monitorFreq > 0.         = T )
 pkg/debug                compiled but not used ( debugMode                = F )
 pkg/rw                   compiled   and   used
 pkg/mdsio                compiled   and   used
 pkg/autodiff             compiled   and   used
 pkg/cost                 compiled   and   used
 pkg/ctrl                 compiled   and   used
(PID.TID 0000.0001)  PACKAGES_BOOT: End of package Summary
(PID.TID 0000.0001) 
(PID.TID 0000.0001)  MNC_READPARMS: opening file 'data.mnc'
(PID.TID 0000.0001)  OPEN_COPY_DATA_FILE: opening file data.mnc
(PID.TID 0000.0001) // =======================================================
(PID.TID 0000.0001) // Parameter file "data.mnc"
(PID.TID 0000.0001) // =======================================================
(PID.TID 0000.0001) ># Example "data.mnc" file
(PID.TID 0000.0001) ># Lines beginning "#" are comments
(PID.TID 0000.0001) > &MNC_01
(PID.TID 0000.0001) ># mnc_echo_gvtypes=.FALSE.,
(PID.TID 0000.0001) ># mnc_use_indir=.FALSE.,
(PID.TID 0000.0001) > mnc_use_outdir=.TRUE.,
(PID.TID 0000.0001) > mnc_outdir_str='mnc_test_',
(PID.TID 0000.0001) >#mnc_outdir_date=.TRUE.,
(PID.TID 0000.0001) > monitor_mnc=.FALSE.,
(PID.TID 0000.0001) >#snapshot_mnc=.FALSE.,
(PID.TID 0000.0001) >#timeave_mnc=.FALSE.,
(PID.TID 0000.0001) > pickup_read_mnc=.FALSE.,
(PID.TID 0000.0001) > pickup_write_mnc=.FALSE.,
(PID.TID 0000.0001) > /
(PID.TID 0000.0001) ># Note: Some systems use & as the
(PID.TID 0000.0001) ># namelist terminator. Other systems
(PID.TID 0000.0001) ># use a / character (as shown here).
(PID.TID 0000.0001) 
(PID.TID 0000.0001)  MNC_READPARMS: finished reading data.mnc
(PID.TID 0000.0001)  SHELFICE_READPARMS: opening data.shelfice
(PID.TID 0000.0001)  OPEN_COPY_DATA_FILE: opening file data.shelfice
(PID.TID 0000.0001) // =======================================================
(PID.TID 0000.0001) // Parameter file "data.shelfice"
(PID.TID 0000.0001) // =======================================================
(PID.TID 0000.0001) ># ===================================
(PID.TID 0000.0001) ># | Parameters for SHELFICE package |
(PID.TID 0000.0001) ># ===================================
(PID.TID 0000.0001) > &SHELFICE_PARM01
(PID.TID 0000.0001) > SHELFICEboundaryLayer = .TRUE.,
(PID.TID 0000.0001) > SHELFICEtopoFile='icetopo.exp1',
(PID.TID 0000.0001) > SHELFICEloadAnomalyFile = 'phi0surf.exp1.jmd95z',
(PID.TID 0000.0001) > useISOMIPTD = .TRUE.,
(PID.TID 0000.0001) > no_slip_shelfice = .false.,
(PID.TID 0000.0001) > SHELFICEwriteState = .TRUE.,
(PID.TID 0000.0001) > /
(PID.TID 0000.0001) 
(PID.TID 0000.0001)  SHELFICE_READPARMS: finished reading data.shelfice
(PID.TID 0000.0001) AUTODIFF_READPARMS: opening data.autodiff
(PID.TID 0000.0001)  OPEN_COPY_DATA_FILE: opening file data.autodiff
(PID.TID 0000.0001) // =======================================================
(PID.TID 0000.0001) // Parameter file "data.autodiff"
(PID.TID 0000.0001) // =======================================================
(PID.TID 0000.0001) ># =========================
(PID.TID 0000.0001) ># pkg AUTODIFF parameters :
(PID.TID 0000.0001) ># =========================
(PID.TID 0000.0001) >#  inAdExact :: get an exact adjoint (no approximation) (def=.True.)
(PID.TID 0000.0001) >#
(PID.TID 0000.0001) > &AUTODIFF_PARM01
(PID.TID 0000.0001) ># inAdExact = .FALSE.,
(PID.TID 0000.0001) > /
(PID.TID 0000.0001) 
(PID.TID 0000.0001) AUTODIFF_READPARMS: finished reading data.autodiff
(PID.TID 0000.0001) // ===================================
(PID.TID 0000.0001) // AUTODIFF parameters :
(PID.TID 0000.0001) // ===================================
(PID.TID 0000.0001) inAdExact = /* get an exact adjoint (no approximation) */
(PID.TID 0000.0001)                   T
(PID.TID 0000.0001)     ;
(PID.TID 0000.0001) useKPPinAdMode = /* use KPP in adjoint mode */
(PID.TID 0000.0001)                   F
(PID.TID 0000.0001)     ;
(PID.TID 0000.0001) useGMRediInAdMode = /* use GMRedi in adjoint mode */
(PID.TID 0000.0001)                   F
(PID.TID 0000.0001)     ;
(PID.TID 0000.0001) useSEAICEinAdMode = /* use SEAICE in adjoint mode */
(PID.TID 0000.0001)                   F
(PID.TID 0000.0001)     ;
(PID.TID 0000.0001) useGGL90inAdMode = /* use GGL90 in adjoint mode */
(PID.TID 0000.0001)                   F
(PID.TID 0000.0001)     ;
(PID.TID 0000.0001) useSALT_PLUMEinAdMode = /* use SALT_PLUME in adjoint mode */
(PID.TID 0000.0001)                   F
(PID.TID 0000.0001)     ;
(PID.TID 0000.0001) dumpAdVarExch = /* control adexch before dumpinp */
(PID.TID 0000.0001)                       2
(PID.TID 0000.0001)     ;
(PID.TID 0000.0001) mon_AdVarExch = /* control adexch before monitor */
(PID.TID 0000.0001)                       2
(PID.TID 0000.0001)     ;
(PID.TID 0000.0001) viscFacInAd = /* viscosity factor for adjoint */
(PID.TID 0000.0001)                 1.000000000000000E+00
(PID.TID 0000.0001)     ;
(PID.TID 0000.0001) 
(PID.TID 0000.0001) OPTIM_READPARMS: opening data.optim
(PID.TID 0000.0001)  OPEN_COPY_DATA_FILE: opening file data.optim
(PID.TID 0000.0001) // =======================================================
(PID.TID 0000.0001) // Parameter file "data.optim"
(PID.TID 0000.0001) // =======================================================
(PID.TID 0000.0001) > &OPTIM
(PID.TID 0000.0001) > optimcycle=0,
(PID.TID 0000.0001) > /
(PID.TID 0000.0001) 
(PID.TID 0000.0001) OPTIM_READPARMS: finished reading data.optim
(PID.TID 0000.0001) CTRL_READPARMS: opening data.ctrl
(PID.TID 0000.0001)  OPEN_COPY_DATA_FILE: opening file data.ctrl
(PID.TID 0000.0001) // =======================================================
(PID.TID 0000.0001) // Parameter file "data.ctrl"
(PID.TID 0000.0001) // =======================================================
(PID.TID 0000.0001) >#
(PID.TID 0000.0001) >#
(PID.TID 0000.0001) ># *********************
(PID.TID 0000.0001) ># ECCO controlvariables
(PID.TID 0000.0001) ># *********************
(PID.TID 0000.0001) > &CTRL_NML
(PID.TID 0000.0001) > xx_theta_file      ='xx_theta',
(PID.TID 0000.0001) > xx_salt_file       ='xx_salt',
(PID.TID 0000.0001) >#
(PID.TID 0000.0001) > xx_hfluxstartdate1 = 19790101,
(PID.TID 0000.0001) > xx_hfluxstartdate2 = 000000,
(PID.TID 0000.0001) > xx_hfluxperiod     = 864000.0,
(PID.TID 0000.0001) > xx_hflux_file      = 'xx_hfl',
(PID.TID 0000.0001) >#
(PID.TID 0000.0001) > xx_sfluxstartdate1 = 19790101,
(PID.TID 0000.0001) > xx_sfluxstartdate2 = 000000,
(PID.TID 0000.0001) > xx_sfluxperiod     = 864000.0,
(PID.TID 0000.0001) > xx_sflux_file      = 'xx_sfl',
(PID.TID 0000.0001) >#
(PID.TID 0000.0001) > xx_tauustartdate1 = 19790101,
(PID.TID 0000.0001) > xx_tauustartdate2 = 000000,
(PID.TID 0000.0001) > xx_tauuperiod     = 864000.0,
(PID.TID 0000.0001) > xx_tauu_file      = 'xx_tauu',
(PID.TID 0000.0001) >#
(PID.TID 0000.0001) > xx_tauvstartdate1 = 19790101,
(PID.TID 0000.0001) > xx_tauvstartdate2 = 000000,
(PID.TID 0000.0001) > xx_tauvperiod     = 864000.0,
(PID.TID 0000.0001) > xx_tauv_file      = 'xx_tauv',
(PID.TID 0000.0001) >#
(PID.TID 0000.0001) > xx_atempstartdate1 = 19790101,
(PID.TID 0000.0001) > xx_atempstartdate2 = 000000,
(PID.TID 0000.0001) > xx_atempperiod     = 864000.0,
(PID.TID 0000.0001) > xx_atemp_file      = 'xx_atemp',
(PID.TID 0000.0001) >#
(PID.TID 0000.0001) > xx_aqhstartdate1 = 19790101,
(PID.TID 0000.0001) > xx_aqhstartdate2 = 000000,
(PID.TID 0000.0001) > xx_aqhperiod     = 864000.0,
(PID.TID 0000.0001) > xx_aqh_file      = 'xx_aqh',
(PID.TID 0000.0001) >#
(PID.TID 0000.0001) > xx_precipstartdate1 = 19790101,
(PID.TID 0000.0001) > xx_precipstartdate2 = 000000,
(PID.TID 0000.0001) > xx_precipperiod     = 864000.0,
(PID.TID 0000.0001) > xx_precip_file      = 'xx_precip',
(PID.TID 0000.0001) >#
(PID.TID 0000.0001) > xx_swdownstartdate1 = 19790101,
(PID.TID 0000.0001) > xx_swdownstartdate2 = 000000,
(PID.TID 0000.0001) > xx_swdownperiod     = 864000.0,
(PID.TID 0000.0001) > xx_swdown_file      = 'xx_swdown',
(PID.TID 0000.0001) >#
(PID.TID 0000.0001) > xx_uwindstartdate1 = 19790101,
(PID.TID 0000.0001) > xx_uwindstartdate2 = 000000,
(PID.TID 0000.0001) > xx_uwindperiod     = 864000.0,
(PID.TID 0000.0001) > xx_uwind_file      = 'xx_uwind',
(PID.TID 0000.0001) >#
(PID.TID 0000.0001) > xx_vwindstartdate1 = 19790101,
(PID.TID 0000.0001) > xx_vwindstartdate2 = 000000,
(PID.TID 0000.0001) > xx_vwindperiod     = 864000.0,
(PID.TID 0000.0001) > xx_vwind_file      = 'xx_vwind',
(PID.TID 0000.0001) >#
(PID.TID 0000.0001) > xx_sststartdate1 = 19790101,
(PID.TID 0000.0001) > xx_sststartdate2 = 000000,
(PID.TID 0000.0001) > xx_sstperiod     = 864000.0,
(PID.TID 0000.0001) > xx_sst_file      = 'xx_sst',
(PID.TID 0000.0001) >#
(PID.TID 0000.0001) > xx_sssstartdate1 = 19790101,
(PID.TID 0000.0001) > xx_sssstartdate2 = 000000,
(PID.TID 0000.0001) > xx_sssperiod     = 864000.0,
(PID.TID 0000.0001) > xx_sss_file      = 'xx_sss',
(PID.TID 0000.0001) > /
(PID.TID 0000.0001) >#
(PID.TID 0000.0001) ># *********************
(PID.TID 0000.0001) ># names for ctrl_pack/unpack
(PID.TID 0000.0001) ># *********************
(PID.TID 0000.0001) > &CTRL_PACKNAMES
(PID.TID 0000.0001) > /
(PID.TID 0000.0001) 
(PID.TID 0000.0001) CTRL_READPARMS: finished reading data.ctrl
(PID.TID 0000.0001) useSmoothCorrel2DinAdMode = /* use ctrlSmoothCorrel2D in adjoint mode */
(PID.TID 0000.0001)                   F
(PID.TID 0000.0001)     ;
(PID.TID 0000.0001) COST_READPARMS: opening data.cost
(PID.TID 0000.0001)  OPEN_COPY_DATA_FILE: opening file data.cost
(PID.TID 0000.0001) // =======================================================
(PID.TID 0000.0001) // Parameter file "data.cost"
(PID.TID 0000.0001) // =======================================================
(PID.TID 0000.0001) >#
(PID.TID 0000.0001) >#
(PID.TID 0000.0001) ># ******************
(PID.TID 0000.0001) ># cost function
(PID.TID 0000.0001) ># ******************
(PID.TID 0000.0001) > &COST_NML
(PID.TID 0000.0001) >#revert to default 1 month
(PID.TID 0000.0001) ># lastinterval=7776000.,
(PID.TID 0000.0001) > mult_test=1.,
(PID.TID 0000.0001) > /
(PID.TID 0000.0001) 
(PID.TID 0000.0001) COST_READPARMS: finished reading data.cost
(PID.TID 0000.0001) GRDCHK_READPARMS: opening data.grdchk
(PID.TID 0000.0001)  OPEN_COPY_DATA_FILE: opening file data.grdchk
(PID.TID 0000.0001) // =======================================================
(PID.TID 0000.0001) // Parameter file "data.grdchk"
(PID.TID 0000.0001) // =======================================================
(PID.TID 0000.0001) ># *******************
(PID.TID 0000.0001) ># ECCO gradient check
(PID.TID 0000.0001) ># *******************
(PID.TID 0000.0001) > &GRDCHK_NML
(PID.TID 0000.0001) > grdchk_eps       = 1.d-2,
(PID.TID 0000.0001) >  iglopos         = 20,
(PID.TID 0000.0001) >  jglopos         = 24,
(PID.TID 0000.0001) >  kglopos         = 20,
(PID.TID 0000.0001) ># nbeg             = 1,
(PID.TID 0000.0001) > nstep            = 1,
(PID.TID 0000.0001) > nend             = 4,
(PID.TID 0000.0001) > grdchkvarindex   = 1,
(PID.TID 0000.0001) > /
(PID.TID 0000.0001) 
(PID.TID 0000.0001) GRDCHK_READPARMS: finished reading data.grdchk
(PID.TID 0000.0001) 
(PID.TID 0000.0001) // =======================================================
(PID.TID 0000.0001) // Gradient check configuration  >>> START <<<
(PID.TID 0000.0001) // =======================================================
(PID.TID 0000.0001) 
(PID.TID 0000.0001)   eps:                              0.100E-01
(PID.TID 0000.0001)   First location:                           0
(PID.TID 0000.0001)   Last location:                            4
(PID.TID 0000.0001)   Increment:                                1
(PID.TID 0000.0001)   grdchkWhichProc:                          0
(PID.TID 0000.0001)   iLocTile =       1  ,    jLocTile =       1
(PID.TID 0000.0001) 
(PID.TID 0000.0001) // =======================================================
(PID.TID 0000.0001) // Gradient check configuration  >>> END <<<
(PID.TID 0000.0001) // =======================================================
(PID.TID 0000.0001) 
(PID.TID 0000.0001) SET_PARMS: done
(PID.TID 0000.0001) Enter INI_VERTICAL_GRID: setInterFDr=    T ; setCenterDr=    F
(PID.TID 0000.0001) %MON XC_max                       =   1.4850000000000E+01
(PID.TID 0000.0001) %MON XC_min                       =   1.5000000000000E-01
(PID.TID 0000.0001) %MON XC_mean                      =   7.5000000000000E+00
(PID.TID 0000.0001) %MON XC_sd                        =   4.3292609068985E+00
(PID.TID 0000.0001) %MON XG_max                       =   1.4700000000000E+01
(PID.TID 0000.0001) %MON XG_min                       =   1.1102230246252E-16
(PID.TID 0000.0001) %MON XG_mean                      =   7.3500000000000E+00
(PID.TID 0000.0001) %MON XG_sd                        =   4.3292609068985E+00
(PID.TID 0000.0001) %MON DXC_max                      =   1.1380125394806E+04
(PID.TID 0000.0001) %MON DXC_min                      =   5.8203914905589E+03
(PID.TID 0000.0001) %MON DXC_mean                     =   8.6215028627207E+03
(PID.TID 0000.0001) %MON DXC_sd                       =   1.6219001271572E+03
(PID.TID 0000.0001) %MON DXF_max                      =   1.1380125394806E+04
(PID.TID 0000.0001) %MON DXF_min                      =   5.8203914905589E+03
(PID.TID 0000.0001) %MON DXF_mean                     =   8.6215028627207E+03
(PID.TID 0000.0001) %MON DXF_sd                       =   1.6219001271572E+03
(PID.TID 0000.0001) %MON DXG_max                      =   1.1352761512017E+04
(PID.TID 0000.0001) %MON DXG_min                      =   5.7917296935586E+03
(PID.TID 0000.0001) %MON DXG_mean                     =   8.5934208253080E+03
(PID.TID 0000.0001) %MON DXG_sd                       =   1.6222785520817E+03
(PID.TID 0000.0001) %MON DXV_max                      =   1.1352761512017E+04
(PID.TID 0000.0001) %MON DXV_min                      =   5.7917296935586E+03
(PID.TID 0000.0001) %MON DXV_mean                     =   8.5934208253080E+03
(PID.TID 0000.0001) %MON DXV_sd                       =   1.6222785520817E+03
(PID.TID 0000.0001) %MON YC_max                       =  -7.0050000000001E+01
(PID.TID 0000.0001) %MON YC_min                       =  -7.9950000000000E+01
(PID.TID 0000.0001) %MON YC_mean                      =  -7.5000000000000E+01
(PID.TID 0000.0001) %MON YC_sd                        =   2.8866070047720E+00
(PID.TID 0000.0001) %MON YG_max                       =  -7.0100000000001E+01
(PID.TID 0000.0001) %MON YG_min                       =  -8.0000000000000E+01
(PID.TID 0000.0001) %MON YG_mean                      =  -7.5050000000000E+01
(PID.TID 0000.0001) %MON YG_sd                        =   2.8866070047721E+00
(PID.TID 0000.0001) %MON DYC_max                      =   1.1117747335204E+04
(PID.TID 0000.0001) %MON DYC_min                      =   1.1117747335204E+04
(PID.TID 0000.0001) %MON DYC_mean                     =   1.1117747335204E+04
(PID.TID 0000.0001) %MON DYC_sd                       =   4.1836756281555E-11
(PID.TID 0000.0001) %MON DYF_max                      =   1.1117747335204E+04
(PID.TID 0000.0001) %MON DYF_min                      =   1.1117747335204E+04
(PID.TID 0000.0001) %MON DYF_mean                     =   1.1117747335204E+04
(PID.TID 0000.0001) %MON DYF_sd                       =   4.1836756281555E-11
(PID.TID 0000.0001) %MON DYG_max                      =   1.1117747335204E+04
(PID.TID 0000.0001) %MON DYG_min                      =   1.1117747335204E+04
(PID.TID 0000.0001) %MON DYG_mean                     =   1.1117747335204E+04
(PID.TID 0000.0001) %MON DYG_sd                       =   4.1836756281555E-11
(PID.TID 0000.0001) %MON DYU_max                      =   1.1117747335204E+04
(PID.TID 0000.0001) %MON DYU_min                      =   1.1117747335204E+04
(PID.TID 0000.0001) %MON DYU_mean                     =   1.1117747335204E+04
(PID.TID 0000.0001) %MON DYU_sd                       =   4.1836756281555E-11
(PID.TID 0000.0001) %MON RA_max                       =   1.2652134272379E+08
(PID.TID 0000.0001) %MON RA_min                       =   6.4709633770803E+07
(PID.TID 0000.0001) %MON RA_mean                      =   9.5851678311587E+07
(PID.TID 0000.0001) %MON RA_sd                        =   1.8031873527992E+07
(PID.TID 0000.0001) %MON RAW_max                      =   1.2652134272379E+08
(PID.TID 0000.0001) %MON RAW_min                      =   6.4709633770803E+07
(PID.TID 0000.0001) %MON RAW_mean                     =   9.5851678311587E+07
(PID.TID 0000.0001) %MON RAW_sd                       =   1.8031873527992E+07
(PID.TID 0000.0001) %MON RAS_max                      =   1.2621711802744E+08
(PID.TID 0000.0001) %MON RAS_min                      =   6.4390979194019E+07
(PID.TID 0000.0001) %MON RAS_mean                     =   9.5539469354603E+07
(PID.TID 0000.0001) %MON RAS_sd                       =   1.8036080760153E+07
(PID.TID 0000.0001) %MON RAZ_max                      =   1.2621711802744E+08
(PID.TID 0000.0001) %MON RAZ_min                      =   6.4390979194019E+07
(PID.TID 0000.0001) %MON RAZ_mean                     =   9.5539469354603E+07
(PID.TID 0000.0001) %MON RAZ_sd                       =   1.8036080760153E+07
(PID.TID 0000.0001) %MON AngleCS_max                  =   1.0000000000000E+00
(PID.TID 0000.0001) %MON AngleCS_min                  =   1.0000000000000E+00
(PID.TID 0000.0001) %MON AngleCS_mean                 =   1.0000000000000E+00
(PID.TID 0000.0001) %MON AngleCS_sd                   =   0.0000000000000E+00
(PID.TID 0000.0001) %MON AngleSN_max                  =   0.0000000000000E+00
(PID.TID 0000.0001) %MON AngleSN_min                  =   0.0000000000000E+00
(PID.TID 0000.0001) %MON AngleSN_mean                 =   0.0000000000000E+00
(PID.TID 0000.0001) %MON AngleSN_sd                   =   0.0000000000000E+00
(PID.TID 0000.0001) GAD_INIT_FIXED: GAD_OlMinSize=  1  0  1
(PID.TID 0000.0001) 
(PID.TID 0000.0001) // ===================================
(PID.TID 0000.0001) // GAD parameters :
(PID.TID 0000.0001) // ===================================
(PID.TID 0000.0001) tempAdvScheme =   /* Temp. Horiz.Advection scheme selector */
(PID.TID 0000.0001)                       2
(PID.TID 0000.0001)     ;
(PID.TID 0000.0001) tempVertAdvScheme =   /* Temp. Vert. Advection scheme selector */
(PID.TID 0000.0001)                       2
(PID.TID 0000.0001)     ;
(PID.TID 0000.0001) tempMultiDimAdvec =   /* use Muti-Dim Advec method for Temp */
(PID.TID 0000.0001)                   F
(PID.TID 0000.0001)     ;
(PID.TID 0000.0001) tempSOM_Advection = /* use 2nd Order Moment Advection for Temp */
(PID.TID 0000.0001)                   F
(PID.TID 0000.0001)     ;
(PID.TID 0000.0001) AdamsBashforthGt = /* apply Adams-Bashforth extrapolation on Gt */
(PID.TID 0000.0001)                   T
(PID.TID 0000.0001)     ;
(PID.TID 0000.0001) AdamsBashforth_T = /* apply Adams-Bashforth extrapolation on Temp */
(PID.TID 0000.0001)                   F
(PID.TID 0000.0001)     ;
(PID.TID 0000.0001) saltAdvScheme =   /* Salt. Horiz.advection scheme selector */
(PID.TID 0000.0001)                       2
(PID.TID 0000.0001)     ;
(PID.TID 0000.0001) saltVertAdvScheme =   /* Salt. Vert. Advection scheme selector */
(PID.TID 0000.0001)                       2
(PID.TID 0000.0001)     ;
(PID.TID 0000.0001) saltMultiDimAdvec =   /* use Muti-Dim Advec method for Salt */
(PID.TID 0000.0001)                   F
(PID.TID 0000.0001)     ;
(PID.TID 0000.0001) saltSOM_Advection = /* use 2nd Order Moment Advection for Salt */
(PID.TID 0000.0001)                   F
(PID.TID 0000.0001)     ;
(PID.TID 0000.0001) AdamsBashforthGs = /* apply Adams-Bashforth extrapolation on Gs */
(PID.TID 0000.0001)                   T
(PID.TID 0000.0001)     ;
(PID.TID 0000.0001) AdamsBashforth_S = /* apply Adams-Bashforth extrapolation on Salt */
(PID.TID 0000.0001)                   F
(PID.TID 0000.0001)     ;
(PID.TID 0000.0001) // ===================================
(PID.TID 0000.0001) ctrl-wet 1:    nvarlength =       306201
(PID.TID 0000.0001) ctrl-wet 2: surface wet C =            0
(PID.TID 0000.0001) ctrl-wet 3: surface wet W =            0
(PID.TID 0000.0001) ctrl-wet 4: surface wet S =            0
(PID.TID 0000.0001) ctrl-wet 4a:surface wet V =            0
(PID.TID 0000.0001) ctrl-wet 5: 3D wet points =         7200
(PID.TID 0000.0001) ctrl-wet 6: no recs for i =     1           1
(PID.TID 0000.0001) ctrl-wet 6: no recs for i =     2           1
(PID.TID 0000.0001) ctrl-wet 6: no recs for i =     3           0
(PID.TID 0000.0001) ctrl-wet 6: no recs for i =     4           0
(PID.TID 0000.0001) ctrl-wet 6: no recs for i =     5           0
(PID.TID 0000.0001) ctrl-wet 6: no recs for i =     6           0
(PID.TID 0000.0001) ctrl-wet 6: no recs for i =     7           0
(PID.TID 0000.0001) ctrl-wet 6: no recs for i =     8           0
(PID.TID 0000.0001) ctrl-wet 6: no recs for i =     9           0
(PID.TID 0000.0001) ctrl-wet 6: no recs for i =    10           0
(PID.TID 0000.0001) ctrl-wet 6: no recs for i =    11           0
(PID.TID 0000.0001) ctrl-wet 6: no recs for i =    12           0
(PID.TID 0000.0001) ctrl-wet 6: no recs for i =    13           0
(PID.TID 0000.0001) ctrl-wet 6: no recs for i =    14           0
(PID.TID 0000.0001) ctrl-wet 6: no recs for i =    15           1
(PID.TID 0000.0001) ctrl-wet 6: no recs for i =    16           0
(PID.TID 0000.0001) ctrl-wet 6: no recs for i =    17           0
(PID.TID 0000.0001) ctrl-wet 6: no recs for i =    18           0
(PID.TID 0000.0001) ctrl-wet 6: no recs for i =    19           0
(PID.TID 0000.0001) ctrl-wet 6: no recs for i =    20           0
(PID.TID 0000.0001) ctrl-wet 6: no recs for i =    21           0
(PID.TID 0000.0001) ctrl-wet 6: no recs for i =    22           0
(PID.TID 0000.0001) ctrl-wet 6: no recs for i =    23           0
(PID.TID 0000.0001) ctrl-wet 6: no recs for i =    24           0
(PID.TID 0000.0001) ctrl-wet 6: no recs for i =    25           0
(PID.TID 0000.0001) ctrl-wet 6: no recs for i =    26           0
(PID.TID 0000.0001) ctrl-wet 6: no recs for i =    27           0
(PID.TID 0000.0001) ctrl-wet 6: no recs for i =    28           0
(PID.TID 0000.0001) ctrl-wet 6: no recs for i =    29           0
(PID.TID 0000.0001) ctrl-wet 6: no recs for i =    30           0
(PID.TID 0000.0001) ctrl-wet 6: no recs for i =    31           0
(PID.TID 0000.0001) ctrl-wet 6: no recs for i =    32           0
(PID.TID 0000.0001) ctrl-wet 6: no recs for i =    33           0
(PID.TID 0000.0001) ctrl-wet 6: no recs for i =    34           0
(PID.TID 0000.0001) ctrl-wet 6: no recs for i =    35           0
(PID.TID 0000.0001) ctrl-wet 6: no recs for i =    36           0
(PID.TID 0000.0001) ctrl-wet 6: no recs for i =    37           0
(PID.TID 0000.0001) ctrl-wet 6: no recs for i =    38           0
(PID.TID 0000.0001) ctrl-wet 6: no recs for i =    39           0
(PID.TID 0000.0001) ctrl-wet 6: no recs for i =    40           0
(PID.TID 0000.0001) ctrl-wet 6: no recs for i =    41           0
(PID.TID 0000.0001) ctrl-wet 6: no recs for i =    42           0
(PID.TID 0000.0001) ctrl-wet 6: no recs for i =    43           0
(PID.TID 0000.0001) ctrl-wet 6: no recs for i =    44           0
(PID.TID 0000.0001) ctrl-wet 6: no recs for i =    45           1
(PID.TID 0000.0001) ctrl-wet 6: no recs for i =    46           0
(PID.TID 0000.0001) ctrl-wet 6: no recs for i =    47           0
(PID.TID 0000.0001) ctrl-wet 6: no recs for i =    48           0
(PID.TID 0000.0001) ctrl-wet 6: no recs for i =    49           0
(PID.TID 0000.0001) ctrl-wet 6: no recs for i =    50           0
(PID.TID 0000.0001) ctrl-wet 6: no recs for i =    51           0
(PID.TID 0000.0001) ctrl-wet 6: no recs for i =    52           0
(PID.TID 0000.0001) ctrl-wet 6: no recs for i =    53           0
(PID.TID 0000.0001) ctrl-wet 6: no recs for i =    54           0
(PID.TID 0000.0001) ctrl-wet 6: no recs for i =    55           0
(PID.TID 0000.0001) ctrl-wet 6: no recs for i =    56           0
(PID.TID 0000.0001) ctrl-wet 6: no recs for i =    57           0
(PID.TID 0000.0001) ctrl-wet 6: no recs for i =    58           0
(PID.TID 0000.0001) ctrl-wet 6: no recs for i =    59           0
(PID.TID 0000.0001) ctrl-wet 6: no recs for i =    60           0
(PID.TID 0000.0001) ctrl-wet 7: flux         14400
(PID.TID 0000.0001) ctrl-wet 8: atmos        14400
(PID.TID 0000.0001) ctrl-wet -------------------------------------------------
(PID.TID 0000.0001) ctrl-wet 13: global nvarlength for Nr =   30      306201
(PID.TID 0000.0001) ctrl-wet -------------------------------------------------
(PID.TID 0000.0001) ctrl-wet 14: global nWet C/S/W/V k=    1           0           0           0           0
(PID.TID 0000.0001) ctrl-wet 14: global nWet C/S/W/V k=    2           0           0           0           0
(PID.TID 0000.0001) ctrl-wet 14: global nWet C/S/W/V k=    3           0           0           0           0
(PID.TID 0000.0001) ctrl-wet 14: global nWet C/S/W/V k=    4           0           0           0           0
(PID.TID 0000.0001) ctrl-wet 14: global nWet C/S/W/V k=    5           0           0           0           0
(PID.TID 0000.0001) ctrl-wet 14: global nWet C/S/W/V k=    6           0           0           0           0
(PID.TID 0000.0001) ctrl-wet 14: global nWet C/S/W/V k=    7        2989        2940        2928           0
(PID.TID 0000.0001) ctrl-wet 14: global nWet C/S/W/V k=    8        3087        3038        3024           0
(PID.TID 0000.0001) ctrl-wet 14: global nWet C/S/W/V k=    9        3185        3136        3120           0
(PID.TID 0000.0001) ctrl-wet 14: global nWet C/S/W/V k=   10        3332        3283        3264           0
(PID.TID 0000.0001) ctrl-wet 14: global nWet C/S/W/V k=   11        3430        3381        3360           0
(PID.TID 0000.0001) ctrl-wet 14: global nWet C/S/W/V k=   12        3577        3528        3504           0
(PID.TID 0000.0001) ctrl-wet 14: global nWet C/S/W/V k=   13        3675        3626        3600           0
(PID.TID 0000.0001) ctrl-wet 14: global nWet C/S/W/V k=   14        3773        3724        3696           0
(PID.TID 0000.0001) ctrl-wet 14: global nWet C/S/W/V k=   15        3920        3871        3840           0
(PID.TID 0000.0001) ctrl-wet 14: global nWet C/S/W/V k=   16        4018        3969        3936           0
(PID.TID 0000.0001) ctrl-wet 14: global nWet C/S/W/V k=   17        4165        4116        4080           0
(PID.TID 0000.0001) ctrl-wet 14: global nWet C/S/W/V k=   18        4263        4214        4176           0
(PID.TID 0000.0001) ctrl-wet 14: global nWet C/S/W/V k=   19        4361        4312        4272           0
(PID.TID 0000.0001) ctrl-wet 14: global nWet C/S/W/V k=   20        4508        4459        4416           0
(PID.TID 0000.0001) ctrl-wet 14: global nWet C/S/W/V k=   21        4606        4557        4512           0
(PID.TID 0000.0001) ctrl-wet 14: global nWet C/S/W/V k=   22        4753        4704        4656           0
(PID.TID 0000.0001) ctrl-wet 14: global nWet C/S/W/V k=   23        4851        4802        4752           0
(PID.TID 0000.0001) ctrl-wet 14: global nWet C/S/W/V k=   24        4851        4802        4752           0
(PID.TID 0000.0001) ctrl-wet 14: global nWet C/S/W/V k=   25        4851        4802        4752           0
(PID.TID 0000.0001) ctrl-wet 14: global nWet C/S/W/V k=   26        4851        4802        4752           0
(PID.TID 0000.0001) ctrl-wet 14: global nWet C/S/W/V k=   27        4851        4802        4752           0
(PID.TID 0000.0001) ctrl-wet 14: global nWet C/S/W/V k=   28        4851        4802        4752           0
(PID.TID 0000.0001) ctrl-wet 14: global nWet C/S/W/V k=   29        4851        4802        4752           0
(PID.TID 0000.0001) ctrl-wet 14: global nWet C/S/W/V k=   30        4851        4802        4752           0
(PID.TID 0000.0001) ctrl-wet -------------------------------------------------
(PID.TID 0000.0001) ctrl-wet -------------------------------------------------
(PID.TID 0000.0001) ctrl-wet -------------------------------------------------
(PID.TID 0000.0001) ctrl-wet 17a:surface wet I =          576
(PID.TID 0000.0001) ctrl-wet 17b: global nWet I k=    1        4851
(PID.TID 0000.0001) ctrl-wet 17b: global nWet I k=    2           0
(PID.TID 0000.0001) ctrl-wet 17b: global nWet I k=    3           0
(PID.TID 0000.0001) ctrl-wet 17b: global nWet I k=    4           0
(PID.TID 0000.0001) ctrl-wet 17b: global nWet I k=    5           0
(PID.TID 0000.0001) ctrl-wet 17b: global nWet I k=    6           0
(PID.TID 0000.0001) ctrl-wet 17b: global nWet I k=    7        2989
(PID.TID 0000.0001) ctrl-wet 17b: global nWet I k=    8        3087
(PID.TID 0000.0001) ctrl-wet 17b: global nWet I k=    9        3185
(PID.TID 0000.0001) ctrl-wet 17b: global nWet I k=   10        3332
(PID.TID 0000.0001) ctrl-wet 17b: global nWet I k=   11        3430
(PID.TID 0000.0001) ctrl-wet 17b: global nWet I k=   12        3577
(PID.TID 0000.0001) ctrl-wet 17b: global nWet I k=   13        3675
(PID.TID 0000.0001) ctrl-wet 17b: global nWet I k=   14        3773
(PID.TID 0000.0001) ctrl-wet 17b: global nWet I k=   15        3920
(PID.TID 0000.0001) ctrl-wet 17b: global nWet I k=   16        4018
(PID.TID 0000.0001) ctrl-wet 17b: global nWet I k=   17        4165
(PID.TID 0000.0001) ctrl-wet 17b: global nWet I k=   18        4263
(PID.TID 0000.0001) ctrl-wet 17b: global nWet I k=   19        4361
(PID.TID 0000.0001) ctrl-wet 17b: global nWet I k=   20        4508
(PID.TID 0000.0001) ctrl-wet 17b: global nWet I k=   21        4606
(PID.TID 0000.0001) ctrl-wet 17b: global nWet I k=   22        4753
(PID.TID 0000.0001) ctrl-wet 17b: global nWet I k=   23        4851
(PID.TID 0000.0001) ctrl-wet 17b: global nWet I k=   24        4851
(PID.TID 0000.0001) ctrl-wet 17b: global nWet I k=   25        4851
(PID.TID 0000.0001) ctrl-wet 17b: global nWet I k=   26        4851
(PID.TID 0000.0001) ctrl-wet 17b: global nWet I k=   27        4851
(PID.TID 0000.0001) ctrl-wet 17b: global nWet I k=   28        4851
(PID.TID 0000.0001) ctrl-wet 17b: global nWet I k=   29        4851
(PID.TID 0000.0001) ctrl-wet 17b: global nWet I k=   30        4851
(PID.TID 0000.0001) ctrl-wet 17c: global SUM(K) shifwflx         4851
(PID.TID 0000.0001) ctrl-wet -------------------------------------------------
(PID.TID 0000.0001) ctrl_init: no. of control variables:            4
(PID.TID 0000.0001) ctrl_init: control vector length:          306201
(PID.TID 0000.0001) %MON fCori_max                    =  -1.3709057042516E-04
(PID.TID 0000.0001) %MON fCori_min                    =  -1.4360464034757E-04
(PID.TID 0000.0001) %MON fCori_mean                   =  -1.4069429304698E-04
(PID.TID 0000.0001) %MON fCori_sd                     =   1.9069739624987E-06
(PID.TID 0000.0001) %MON fCoriG_max                   =  -1.3713394327439E-04
(PID.TID 0000.0001) %MON fCoriG_min                   =  -1.4362679550910E-04
(PID.TID 0000.0001) %MON fCoriG_mean                  =  -1.4072713798624E-04
(PID.TID 0000.0001) %MON fCoriG_sd                    =   1.9008093726821E-06
(PID.TID 0000.0001) %MON fCoriCos_max                 =   4.9761447480159E-05
(PID.TID 0000.0001) %MON fCoriCos_min                 =   2.5450607565678E-05
(PID.TID 0000.0001) %MON fCoriCos_mean                =   3.7698922201606E-05
(PID.TID 0000.0001) %MON fCoriCos_sd                  =   7.0920218535055E-06
(PID.TID 0000.0001) INI_CG2D: CG2D normalisation factor =  1.0404366262810520E-03
(PID.TID 0000.0001) 
(PID.TID 0000.0001) // =======================================================
(PID.TID 0000.0001) // Model configuration
(PID.TID 0000.0001) // =======================================================
(PID.TID 0000.0001) //
(PID.TID 0000.0001) // "Physical" paramters ( PARM01 in namelist )
(PID.TID 0000.0001) //
(PID.TID 0000.0001) buoyancyRelation = /* Type of relation to get Buoyancy */
(PID.TID 0000.0001)               'OCEANIC'
(PID.TID 0000.0001)     ;
(PID.TID 0000.0001) fluidIsAir   =  /* fluid major constituent is Air */
(PID.TID 0000.0001)                   F
(PID.TID 0000.0001)     ;
(PID.TID 0000.0001) fluidIsWater =  /* fluid major constituent is Water */
(PID.TID 0000.0001)                   T
(PID.TID 0000.0001)     ;
(PID.TID 0000.0001) usingPCoords =  /* use p (or p*) vertical coordinate */
(PID.TID 0000.0001)                   F
(PID.TID 0000.0001)     ;
(PID.TID 0000.0001) usingZCoords =  /* use z (or z*) vertical coordinate */
(PID.TID 0000.0001)                   T
(PID.TID 0000.0001)     ;
(PID.TID 0000.0001) tRef =   /* Reference temperature profile ( oC or K ) */
(PID.TID 0000.0001)    30 @ -1.900000000000000E+00              /* K =  1: 30 */
(PID.TID 0000.0001)     ;
(PID.TID 0000.0001) sRef =   /* Reference salinity profile ( psu ) */
(PID.TID 0000.0001)    30 @  3.440000000000000E+01              /* K =  1: 30 */
(PID.TID 0000.0001)     ;
(PID.TID 0000.0001) useStrainTensionVisc= /* Use StrainTension Form of Viscous Operator */
(PID.TID 0000.0001)                   F
(PID.TID 0000.0001)     ;
(PID.TID 0000.0001) useVariableVisc = /* Use variable horizontal viscosity */
(PID.TID 0000.0001)                   F
(PID.TID 0000.0001)     ;
(PID.TID 0000.0001) useHarmonicVisc = /* Use harmonic horizontal viscosity */
(PID.TID 0000.0001)                   T
(PID.TID 0000.0001)     ;
(PID.TID 0000.0001) useBiharmonicVisc= /* Use biharmonic horiz.  viscosity */
(PID.TID 0000.0001)                   F
(PID.TID 0000.0001)     ;
(PID.TID 0000.0001) useSmag3D = /* Use isotropic 3-D Smagorinsky viscosity */
(PID.TID 0000.0001)                   F
(PID.TID 0000.0001)     ;
(PID.TID 0000.0001) viscAh  =   /* Lateral harmonic viscosity ( m^2/s ) */
(PID.TID 0000.0001)                 6.000000000000000E+02
(PID.TID 0000.0001)     ;
(PID.TID 0000.0001) viscA4  =   /* Lateral biharmonic viscosity ( m^4/s ) */
(PID.TID 0000.0001)                 0.000000000000000E+00
(PID.TID 0000.0001)     ;
(PID.TID 0000.0001) no_slip_sides =  /* Viscous BCs: No-slip sides */
(PID.TID 0000.0001)                   F
(PID.TID 0000.0001)     ;
(PID.TID 0000.0001) sideDragFactor = /* side-drag scaling factor (non-dim) */
(PID.TID 0000.0001)                 2.000000000000000E+00
(PID.TID 0000.0001)     ;
(PID.TID 0000.0001) viscArNr = /* vertical profile of vertical viscosity ( m^2/s )*/
(PID.TID 0000.0001)    30 @  1.000000000000000E-03              /* K =  1: 30 */
(PID.TID 0000.0001)     ;
(PID.TID 0000.0001) no_slip_bottom =  /* Viscous BCs: No-slip bottom */
(PID.TID 0000.0001)                   F
(PID.TID 0000.0001)     ;
(PID.TID 0000.0001) bottomDragLinear = /* linear bottom-drag coefficient ( m/s ) */
(PID.TID 0000.0001)                 0.000000000000000E+00
(PID.TID 0000.0001)     ;
(PID.TID 0000.0001) bottomDragQuadratic = /* quadratic bottom-drag coefficient (-) */
(PID.TID 0000.0001)                 2.500000000000000E-03
(PID.TID 0000.0001)     ;
(PID.TID 0000.0001) diffKhT =   /* Laplacian diffusion of heat laterally ( m^2/s ) */
(PID.TID 0000.0001)                 1.000000000000000E+02
(PID.TID 0000.0001)     ;
(PID.TID 0000.0001) diffK4T =   /* Biharmonic diffusion of heat laterally ( m^4/s ) */
(PID.TID 0000.0001)                 0.000000000000000E+00
(PID.TID 0000.0001)     ;
(PID.TID 0000.0001) diffKhS =   /* Laplacian diffusion of salt laterally ( m^2/s ) */
(PID.TID 0000.0001)                 1.000000000000000E+02
(PID.TID 0000.0001)     ;
(PID.TID 0000.0001) diffK4S =   /* Biharmonic diffusion of salt laterally ( m^4/s ) */
(PID.TID 0000.0001)                 0.000000000000000E+00
(PID.TID 0000.0001)     ;
(PID.TID 0000.0001) diffKrNrT = /* vertical profile of vertical diffusion of Temp ( m^2/s )*/
(PID.TID 0000.0001)    30 @  5.000000000000000E-05              /* K =  1: 30 */
(PID.TID 0000.0001)     ;
(PID.TID 0000.0001) diffKrNrS = /* vertical profile of vertical diffusion of Salt ( m^2/s )*/
(PID.TID 0000.0001)    30 @  5.000000000000000E-05              /* K =  1: 30 */
(PID.TID 0000.0001)     ;
(PID.TID 0000.0001) diffKrBL79surf = /* Surface diffusion for Bryan and Lewis 79 ( m^2/s ) */
(PID.TID 0000.0001)                 0.000000000000000E+00
(PID.TID 0000.0001)     ;
(PID.TID 0000.0001) diffKrBL79deep = /* Deep diffusion for Bryan and Lewis 1979 ( m^2/s ) */
(PID.TID 0000.0001)                 0.000000000000000E+00
(PID.TID 0000.0001)     ;
(PID.TID 0000.0001) diffKrBL79scl = /* Depth scale for Bryan and Lewis 1979 ( m ) */
(PID.TID 0000.0001)                 2.000000000000000E+02
(PID.TID 0000.0001)     ;
(PID.TID 0000.0001) diffKrBL79Ho = /* Turning depth for Bryan and Lewis 1979 ( m ) */
(PID.TID 0000.0001)                -2.000000000000000E+03
(PID.TID 0000.0001)     ;
(PID.TID 0000.0001) ivdc_kappa = /* Implicit Vertical Diffusivity for Convection ( m^2/s) */
(PID.TID 0000.0001)                 0.000000000000000E+00
(PID.TID 0000.0001)     ;
(PID.TID 0000.0001) hMixCriteria=  /* Criteria for mixed-layer diagnostic */
(PID.TID 0000.0001)                -8.000000000000000E-01
(PID.TID 0000.0001)     ;
(PID.TID 0000.0001) dRhoSmall =  /* Parameter for mixed-layer diagnostic */
(PID.TID 0000.0001)                 1.000000000000000E-06
(PID.TID 0000.0001)     ;
(PID.TID 0000.0001) hMixSmooth=  /* Smoothing parameter for mixed-layer diagnostic */
(PID.TID 0000.0001)                 0.000000000000000E+00
(PID.TID 0000.0001)     ;
(PID.TID 0000.0001) eosType =  /* Type of Equation of State */
(PID.TID 0000.0001)               'JMD95Z'
(PID.TID 0000.0001)     ;
(PID.TID 0000.0001) HeatCapacity_Cp =  /* Specific heat capacity ( J/kg/K ) */
(PID.TID 0000.0001)                 3.974000000000000E+03
(PID.TID 0000.0001)     ;
(PID.TID 0000.0001) celsius2K = /* 0 degree Celsius converted to Kelvin ( K ) */
(PID.TID 0000.0001)                 2.731500000000000E+02
(PID.TID 0000.0001)     ;
(PID.TID 0000.0001) rhoConst  = /* Reference density (Boussinesq)  ( kg/m^3 ) */
(PID.TID 0000.0001)                 1.030000000000000E+03
(PID.TID 0000.0001)     ;
(PID.TID 0000.0001) rhoFacC = /* normalized Reference density @ cell-Center (-) */
(PID.TID 0000.0001)    30 @  1.000000000000000E+00              /* K =  1: 30 */
(PID.TID 0000.0001)     ;
(PID.TID 0000.0001) rhoFacF = /* normalized Reference density @ W-Interface (-) */
(PID.TID 0000.0001)    31 @  1.000000000000000E+00              /* K =  1: 31 */
(PID.TID 0000.0001)     ;
(PID.TID 0000.0001) rhoConstFresh = /* Fresh-water reference density ( kg/m^3 ) */
(PID.TID 0000.0001)                 1.030000000000000E+03
(PID.TID 0000.0001)     ;
(PID.TID 0000.0001) gravity =   /* Gravitational acceleration ( m/s^2 ) */
(PID.TID 0000.0001)                 9.810000000000000E+00
(PID.TID 0000.0001)     ;
(PID.TID 0000.0001) gBaro =   /* Barotropic gravity ( m/s^2 ) */
(PID.TID 0000.0001)                 9.810000000000000E+00
(PID.TID 0000.0001)     ;
(PID.TID 0000.0001) rotationPeriod =   /* Rotation Period ( s ) */
(PID.TID 0000.0001)                 8.616400000000000E+04
(PID.TID 0000.0001)     ;
(PID.TID 0000.0001) omega =   /* Angular velocity ( rad/s ) */
(PID.TID 0000.0001)                 7.292123516990375E-05
(PID.TID 0000.0001)     ;
(PID.TID 0000.0001) f0 =   /* Reference coriolis parameter ( 1/s ) */
(PID.TID 0000.0001)                 1.000000000000000E-04
(PID.TID 0000.0001)     ;
(PID.TID 0000.0001) beta =   /* Beta ( 1/(m.s) ) */
(PID.TID 0000.0001)                 9.999999999999999E-12
(PID.TID 0000.0001)     ;
(PID.TID 0000.0001) fPrime =   /* Second coriolis parameter ( 1/s ) */
(PID.TID 0000.0001)                 0.000000000000000E+00
(PID.TID 0000.0001)     ;
(PID.TID 0000.0001) rigidLid =   /* Rigid lid on/off flag */
(PID.TID 0000.0001)                   F
(PID.TID 0000.0001)     ;
(PID.TID 0000.0001) implicitFreeSurface =   /* Implicit free surface on/off flag */
(PID.TID 0000.0001)                   T
(PID.TID 0000.0001)     ;
(PID.TID 0000.0001) freeSurfFac =   /* Implicit free surface factor */
(PID.TID 0000.0001)                 1.000000000000000E+00
(PID.TID 0000.0001)     ;
(PID.TID 0000.0001) implicSurfPress =  /* Surface Pressure implicit factor (0-1)*/
(PID.TID 0000.0001)                 1.000000000000000E+00
(PID.TID 0000.0001)     ;
(PID.TID 0000.0001) implicDiv2Dflow =  /* Barot. Flow Div. implicit factor (0-1)*/
(PID.TID 0000.0001)                 1.000000000000000E+00
(PID.TID 0000.0001)     ;
(PID.TID 0000.0001) uniformLin_PhiSurf = /* use uniform Bo_surf on/off flag*/
(PID.TID 0000.0001)                   T
(PID.TID 0000.0001)     ;
(PID.TID 0000.0001) uniformFreeSurfLev = /* free-surface level-index is uniform */
(PID.TID 0000.0001)                   F
(PID.TID 0000.0001)     ;
(PID.TID 0000.0001) hFacMin =   /* minimum partial cell factor (hFac) */
(PID.TID 0000.0001)                 1.000000000000000E-01
(PID.TID 0000.0001)     ;
(PID.TID 0000.0001) hFacMinDr = /* minimum partial cell thickness ( m) */
(PID.TID 0000.0001)                 0.000000000000000E+00
(PID.TID 0000.0001)     ;
(PID.TID 0000.0001) exactConserv =  /* Exact Volume Conservation on/off flag*/
(PID.TID 0000.0001)                   T
(PID.TID 0000.0001)     ;
(PID.TID 0000.0001) linFSConserveTr = /* Tracer correction for Lin Free Surface on/off flag*/
(PID.TID 0000.0001)                   F
(PID.TID 0000.0001)     ;
(PID.TID 0000.0001) nonlinFreeSurf = /* Non-linear Free Surf. options (-1,0,1,2,3)*/
(PID.TID 0000.0001)                       2
(PID.TID 0000.0001)      -1,0= Off ; 1,2,3= On, 2=+rescale gU,gV, 3=+update cg2d solv.
(PID.TID 0000.0001)     ;
(PID.TID 0000.0001) hFacInf =   /* lower threshold for hFac (nonlinFreeSurf only)*/
(PID.TID 0000.0001)                 5.000000000000000E-02
(PID.TID 0000.0001)     ;
(PID.TID 0000.0001) hFacSup =   /* upper threshold for hFac (nonlinFreeSurf only)*/
(PID.TID 0000.0001)                 2.000000000000000E+00
(PID.TID 0000.0001)     ;
(PID.TID 0000.0001) select_rStar = /* r* Vertical coord. options (=0 r coord.; >0 uses r*)*/
(PID.TID 0000.0001)                       0
(PID.TID 0000.0001)     ;
(PID.TID 0000.0001) useRealFreshWaterFlux = /* Real Fresh Water Flux on/off flag*/
(PID.TID 0000.0001)                   F
(PID.TID 0000.0001)     ;
(PID.TID 0000.0001) temp_EvPrRn = /* Temp. of Evap/Prec/R (UNSET=use local T)(oC)*/
(PID.TID 0000.0001)                 1.234567000000000E+05
(PID.TID 0000.0001)     ;
(PID.TID 0000.0001) salt_EvPrRn = /* Salin. of Evap/Prec/R (UNSET=use local S)(psu)*/
(PID.TID 0000.0001)                 0.000000000000000E+00
(PID.TID 0000.0001)     ;
(PID.TID 0000.0001) selectAddFluid = /* option for mass source/sink of fluid (=0: off) */
(PID.TID 0000.0001)                       0
(PID.TID 0000.0001)     ;
(PID.TID 0000.0001) temp_addMass = /* Temp. of addMass array (UNSET=use local T)(oC)*/
(PID.TID 0000.0001)                 1.234567000000000E+05
(PID.TID 0000.0001)     ;
(PID.TID 0000.0001) salt_addMass = /* Salin. of addMass array (UNSET=use local S)(psu)*/
(PID.TID 0000.0001)                 0.000000000000000E+00
(PID.TID 0000.0001)     ;
(PID.TID 0000.0001) convertFW2Salt = /* convert F.W. Flux to Salt Flux (-1=use local S)(psu)*/
(PID.TID 0000.0001)                 3.340000000000000E+01
(PID.TID 0000.0001)     ;
(PID.TID 0000.0001) use3Dsolver = /* use 3-D pressure solver on/off flag */
(PID.TID 0000.0001)                   F
(PID.TID 0000.0001)     ;
(PID.TID 0000.0001) nonHydrostatic =  /* Non-Hydrostatic on/off flag */
(PID.TID 0000.0001)                   F
(PID.TID 0000.0001)     ;
(PID.TID 0000.0001) nh_Am2 = /* Non-Hydrostatic terms scaling factor */
(PID.TID 0000.0001)                 1.000000000000000E+00
(PID.TID 0000.0001)     ;
(PID.TID 0000.0001) implicitNHPress = /* Non-Hyd Pressure implicit factor (0-1)*/
(PID.TID 0000.0001)                 1.000000000000000E+00
(PID.TID 0000.0001)     ;
(PID.TID 0000.0001) selectNHfreeSurf = /* Non-Hyd (free-)Surface option */
(PID.TID 0000.0001)                       0
(PID.TID 0000.0001)     ;
(PID.TID 0000.0001) quasiHydrostatic = /* Quasi-Hydrostatic on/off flag */
(PID.TID 0000.0001)                   F
(PID.TID 0000.0001)     ;
(PID.TID 0000.0001) calc_wVelocity = /* vertical velocity calculation on/off flag */
(PID.TID 0000.0001)                   T
(PID.TID 0000.0001)     ;
(PID.TID 0000.0001) momStepping =  /* Momentum equation on/off flag */
(PID.TID 0000.0001)                   T
(PID.TID 0000.0001)     ;
(PID.TID 0000.0001) vectorInvariantMomentum= /* Vector-Invariant Momentum on/off */
(PID.TID 0000.0001)                   T
(PID.TID 0000.0001)     ;
(PID.TID 0000.0001) momAdvection =  /* Momentum advection on/off flag */
(PID.TID 0000.0001)                   T
(PID.TID 0000.0001)     ;
(PID.TID 0000.0001) momViscosity =  /* Momentum viscosity on/off flag */
(PID.TID 0000.0001)                   T
(PID.TID 0000.0001)     ;
(PID.TID 0000.0001) momImplVertAdv= /* Momentum implicit vert. advection on/off*/
(PID.TID 0000.0001)                   F
(PID.TID 0000.0001)     ;
(PID.TID 0000.0001) implicitViscosity = /* Implicit viscosity on/off flag */
(PID.TID 0000.0001)                   F
(PID.TID 0000.0001)     ;
(PID.TID 0000.0001) metricTerms =  /* metric-Terms on/off flag */
(PID.TID 0000.0001)                   T
(PID.TID 0000.0001)     ;
(PID.TID 0000.0001) useNHMTerms = /* Non-Hydrostatic Metric-Terms on/off */
(PID.TID 0000.0001)                   F
(PID.TID 0000.0001)     ;
(PID.TID 0000.0001) selectCoriMap = /* Coriolis Map options (0,1,2,3)*/
(PID.TID 0000.0001)                       2
(PID.TID 0000.0001)     0= f-Plane ; 1= Beta-Plane ; 2= Spherical ; 3= read from file
(PID.TID 0000.0001)     ;
(PID.TID 0000.0001) use3dCoriolis = /* 3-D Coriolis on/off flag */
(PID.TID 0000.0001)                   F
(PID.TID 0000.0001)     ;
(PID.TID 0000.0001) useCoriolis =  /* Coriolis on/off flag */
(PID.TID 0000.0001)                   T
(PID.TID 0000.0001)     ;
(PID.TID 0000.0001) useCDscheme =  /* CD scheme on/off flag */
(PID.TID 0000.0001)                   T
(PID.TID 0000.0001)     ;
(PID.TID 0000.0001) useEnergyConservingCoriolis= /* Flx-Form Coriolis scheme flag */
(PID.TID 0000.0001)                   F
(PID.TID 0000.0001)     ;
(PID.TID 0000.0001) useJamartWetPoints= /* Coriolis WetPoints method flag */
(PID.TID 0000.0001)                   F
(PID.TID 0000.0001)     ;
(PID.TID 0000.0001) useJamartMomAdv= /* V.I Non-linear terms Jamart flag */
(PID.TID 0000.0001)                   F
(PID.TID 0000.0001)     ;
(PID.TID 0000.0001) useAbsVorticity= /* V.I Works with f+zeta in Coriolis */
(PID.TID 0000.0001)                   F
(PID.TID 0000.0001)     ;
(PID.TID 0000.0001) selectVortScheme= /* V.I Scheme selector for Vorticity-Term */
(PID.TID 0000.0001)                       1
(PID.TID 0000.0001)    = 0 : enstrophy (Shallow-Water Eq.) conserving scheme by Sadourny, JAS 75
(PID.TID 0000.0001)    = 1 : same as 0 with modified hFac
(PID.TID 0000.0001)    = 2 : energy conserving scheme (used by Sadourny in JAS 75 paper)
(PID.TID 0000.0001)    = 3 : energy (general) and enstrophy (2D, nonDiv.) conserving scheme
(PID.TID 0000.0001)          from Sadourny (Burridge & Haseler, ECMWF Rep.4, 1977)
(PID.TID 0000.0001)     ;
(PID.TID 0000.0001) upwindVorticity= /* V.I Upwind bias vorticity flag */
(PID.TID 0000.0001)                   F
(PID.TID 0000.0001)     ;
(PID.TID 0000.0001) highOrderVorticity= /* V.I High order vort. advect. flag */
(PID.TID 0000.0001)                   F
(PID.TID 0000.0001)     ;
(PID.TID 0000.0001) upwindShear= /* V.I Upwind vertical Shear advection flag */
(PID.TID 0000.0001)                   F
(PID.TID 0000.0001)     ;
(PID.TID 0000.0001) selectKEscheme= /* V.I Kinetic Energy scheme selector */
(PID.TID 0000.0001)                       0
(PID.TID 0000.0001)     ;
(PID.TID 0000.0001) momForcing =  /* Momentum forcing on/off flag */
(PID.TID 0000.0001)                   T
(PID.TID 0000.0001)     ;
(PID.TID 0000.0001) momPressureForcing =  /* Momentum pressure term on/off flag */
(PID.TID 0000.0001)                   T
(PID.TID 0000.0001)     ;
(PID.TID 0000.0001) implicitIntGravWave= /* Implicit Internal Gravity Wave flag */
(PID.TID 0000.0001)                   F
(PID.TID 0000.0001)     ;
(PID.TID 0000.0001) staggerTimeStep =    /* Stagger time stepping on/off flag */
(PID.TID 0000.0001)                   T
(PID.TID 0000.0001)     ;
(PID.TID 0000.0001) doResetHFactors = /* reset thickness factors @ each time-step */
(PID.TID 0000.0001)                   T
(PID.TID 0000.0001)     ;
(PID.TID 0000.0001) multiDimAdvection =  /* enable/disable Multi-Dim Advection */
(PID.TID 0000.0001)                   T
(PID.TID 0000.0001)     ;
(PID.TID 0000.0001) useMultiDimAdvec =   /* Multi-Dim Advection is/is-not used */
(PID.TID 0000.0001)                   F
(PID.TID 0000.0001)     ;
(PID.TID 0000.0001) implicitDiffusion = /* Implicit Diffusion on/off flag */
(PID.TID 0000.0001)                   T
(PID.TID 0000.0001)     ;
(PID.TID 0000.0001) tempStepping =  /* Temperature equation on/off flag */
(PID.TID 0000.0001)                   T
(PID.TID 0000.0001)     ;
(PID.TID 0000.0001) tempAdvection = /* Temperature advection on/off flag */
(PID.TID 0000.0001)                   T
(PID.TID 0000.0001)     ;
(PID.TID 0000.0001) tempImplVertAdv = /* Temp. implicit vert. advection on/off */
(PID.TID 0000.0001)                   F
(PID.TID 0000.0001)     ;
(PID.TID 0000.0001) tempForcing  =  /* Temperature forcing on/off flag */
(PID.TID 0000.0001)                   T
(PID.TID 0000.0001)     ;
(PID.TID 0000.0001) doThetaClimRelax = /* apply SST relaxation on/off flag */
(PID.TID 0000.0001)                   F
(PID.TID 0000.0001)     ;
(PID.TID 0000.0001) tempIsActiveTr = /* Temp. is a dynamically Active Tracer */
(PID.TID 0000.0001)                   T
(PID.TID 0000.0001)     ;
(PID.TID 0000.0001) saltStepping =  /* Salinity equation on/off flag */
(PID.TID 0000.0001)                   T
(PID.TID 0000.0001)     ;
(PID.TID 0000.0001) saltAdvection = /* Salinity advection on/off flag */
(PID.TID 0000.0001)                   T
(PID.TID 0000.0001)     ;
(PID.TID 0000.0001) saltImplVertAdv = /* Sali. implicit vert. advection on/off */
(PID.TID 0000.0001)                   F
(PID.TID 0000.0001)     ;
(PID.TID 0000.0001) saltForcing  =  /* Salinity forcing on/off flag */
(PID.TID 0000.0001)                   T
(PID.TID 0000.0001)     ;
(PID.TID 0000.0001) doSaltClimRelax = /* apply SSS relaxation on/off flag */
(PID.TID 0000.0001)                   F
(PID.TID 0000.0001)     ;
(PID.TID 0000.0001) saltIsActiveTr = /* Salt  is a dynamically Active Tracer */
(PID.TID 0000.0001)                   T
(PID.TID 0000.0001)     ;
(PID.TID 0000.0001)  readBinaryPrec = /* Precision used for reading binary files */
(PID.TID 0000.0001)                      64
(PID.TID 0000.0001)     ;
(PID.TID 0000.0001) writeBinaryPrec = /* Precision used for writing binary files */
(PID.TID 0000.0001)                      32
(PID.TID 0000.0001)     ;
(PID.TID 0000.0001)  globalFiles = /* write "global" (=not per tile) files */
(PID.TID 0000.0001)                   F
(PID.TID 0000.0001)     ;
(PID.TID 0000.0001)  useSingleCpuIO = /* only master MPI process does I/O */
(PID.TID 0000.0001)                   T
(PID.TID 0000.0001)     ;
(PID.TID 0000.0001)  useSingleCpuInput = /* only master process reads input */
(PID.TID 0000.0001)                   T
(PID.TID 0000.0001)     ;
(PID.TID 0000.0001) /* debLev[*]  : level of debug & auxiliary message printing */
(PID.TID 0000.0001) debLevZero =  0 ; /* level of disabled aux. msg printing */
(PID.TID 0000.0001)    debLevA =  1 ; /* level of minimum  aux. msg printing */
(PID.TID 0000.0001)    debLevB =  2 ; /* level of low aux. print (report read-file opening)*/
(PID.TID 0000.0001)    debLevC =  3 ; /* level of moderate debug prt (most pkgs debug msg) */
(PID.TID 0000.0001)    debLevD =  4 ; /* level of enhanced debug prt (add DEBUG_STATS prt) */
(PID.TID 0000.0001)    debLevE =  5 ; /* level of extensive debug printing */
(PID.TID 0000.0001) debugLevel =  /* select debug printing level */
(PID.TID 0000.0001)                       1
(PID.TID 0000.0001)     ;
(PID.TID 0000.0001) //
(PID.TID 0000.0001) // Elliptic solver(s) paramters ( PARM02 in namelist )
(PID.TID 0000.0001) //
(PID.TID 0000.0001) cg2dMaxIters =   /* Upper limit on 2d con. grad iterations  */
(PID.TID 0000.0001)                    1000
(PID.TID 0000.0001)     ;
(PID.TID 0000.0001) cg2dChkResFreq =   /* 2d con. grad convergence test frequency */
(PID.TID 0000.0001)                       1
(PID.TID 0000.0001)     ;
(PID.TID 0000.0001) cg2dUseMinResSol= /* use cg2d last-iter(=0) / min-resid.(=1) solution */
(PID.TID 0000.0001)                       0
(PID.TID 0000.0001)     ;
(PID.TID 0000.0001) cg2dTargetResidual =   /* 2d con. grad target residual  */
(PID.TID 0000.0001)                 1.000000000000000E-13
(PID.TID 0000.0001)     ;
(PID.TID 0000.0001) cg2dTargetResWunit =   /* CG2d target residual [W units] */
(PID.TID 0000.0001)                -1.000000000000000E+00
(PID.TID 0000.0001)     ;
(PID.TID 0000.0001) cg2dPreCondFreq =   /* Freq. for updating cg2d preconditioner */
(PID.TID 0000.0001)                       1
(PID.TID 0000.0001)     ;
(PID.TID 0000.0001) useSRCGSolver =  /* use single reduction CG solver(s) */
(PID.TID 0000.0001)                   F
(PID.TID 0000.0001)     ;
(PID.TID 0000.0001) printResidualFreq = /* Freq. for printing CG residual */
(PID.TID 0000.0001)                       0
(PID.TID 0000.0001)     ;
(PID.TID 0000.0001) //
(PID.TID 0000.0001) // Time stepping paramters ( PARM03 in namelist )
(PID.TID 0000.0001) //
(PID.TID 0000.0001) deltaTMom =   /* Momentum equation timestep ( s ) */
(PID.TID 0000.0001)                 1.800000000000000E+03
(PID.TID 0000.0001)     ;
(PID.TID 0000.0001) deltaTFreeSurf = /* FreeSurface equation timestep ( s ) */
(PID.TID 0000.0001)                 1.800000000000000E+03
(PID.TID 0000.0001)     ;
(PID.TID 0000.0001) dTtracerLev =  /* Tracer equation timestep ( s ) */
(PID.TID 0000.0001)    30 @  1.800000000000000E+03              /* K =  1: 30 */
(PID.TID 0000.0001)     ;
(PID.TID 0000.0001) deltaTClock  =   /* Model clock timestep ( s ) */
(PID.TID 0000.0001)                 1.800000000000000E+03
(PID.TID 0000.0001)     ;
(PID.TID 0000.0001) cAdjFreq =   /* Convective adjustment interval ( s ) */
(PID.TID 0000.0001)                 1.000000000000000E+00
(PID.TID 0000.0001)     ;
(PID.TID 0000.0001) momForcingOutAB = /* =1: take Momentum Forcing out of Adams-Bash. stepping */
(PID.TID 0000.0001)                       0
(PID.TID 0000.0001)     ;
(PID.TID 0000.0001) tracForcingOutAB = /* =1: take T,S,pTr Forcing out of Adams-Bash. stepping */
(PID.TID 0000.0001)                       0
(PID.TID 0000.0001)     ;
(PID.TID 0000.0001) momDissip_In_AB = /* put Dissipation Tendency in Adams-Bash. stepping */
(PID.TID 0000.0001)                   T
(PID.TID 0000.0001)     ;
(PID.TID 0000.0001) doAB_onGtGs = /* apply AB on Tendencies (rather than on T,S)*/
(PID.TID 0000.0001)                   T
(PID.TID 0000.0001)     ;
(PID.TID 0000.0001) abEps =   /* Adams-Bashforth-2 stabilizing weight */
(PID.TID 0000.0001)                 1.000000000000000E-01
(PID.TID 0000.0001)     ;
(PID.TID 0000.0001) tauCD =   /* CD coupling time-scale ( s ) */
(PID.TID 0000.0001)                 4.000000000000000E+05
(PID.TID 0000.0001)     ;
(PID.TID 0000.0001) rCD =   /* Normalised CD coupling parameter */
(PID.TID 0000.0001)                 9.955000000000001E-01
(PID.TID 0000.0001)     ;
(PID.TID 0000.0001) epsAB_CD = /* AB-2 stabilizing weight for CD-scheme*/
(PID.TID 0000.0001)                 1.000000000000000E-01
(PID.TID 0000.0001)     ;
(PID.TID 0000.0001) pickupStrictlyMatch= /* stop if pickup do not strictly match */
(PID.TID 0000.0001)                   T
(PID.TID 0000.0001)     ;
(PID.TID 0000.0001) nIter0   =   /* Run starting timestep number */
(PID.TID 0000.0001)                    8640
(PID.TID 0000.0001)     ;
(PID.TID 0000.0001) nTimeSteps = /* Number of timesteps */
(PID.TID 0000.0001)                      10
(PID.TID 0000.0001)     ;
(PID.TID 0000.0001) nEndIter =   /* Run ending timestep number */
(PID.TID 0000.0001)                    8650
(PID.TID 0000.0001)     ;
(PID.TID 0000.0001) baseTime =   /* Model base time ( s ) */
(PID.TID 0000.0001)                 0.000000000000000E+00
(PID.TID 0000.0001)     ;
(PID.TID 0000.0001) startTime =  /* Run start time ( s ) */
(PID.TID 0000.0001)                 1.555200000000000E+07
(PID.TID 0000.0001)     ;
(PID.TID 0000.0001) endTime  =   /* Integration ending time ( s ) */
(PID.TID 0000.0001)                 1.557000000000000E+07
(PID.TID 0000.0001)     ;
(PID.TID 0000.0001) pChkPtFreq = /* Permanent restart/pickup file interval ( s ) */
(PID.TID 0000.0001)                 0.000000000000000E+00
(PID.TID 0000.0001)     ;
(PID.TID 0000.0001) chkPtFreq  = /* Rolling restart/pickup file interval ( s ) */
(PID.TID 0000.0001)                 0.000000000000000E+00
(PID.TID 0000.0001)     ;
(PID.TID 0000.0001) pickup_write_mdsio =   /* Model IO flag. */
(PID.TID 0000.0001)                   T
(PID.TID 0000.0001)     ;
(PID.TID 0000.0001) pickup_read_mdsio =   /* Model IO flag. */
(PID.TID 0000.0001)                   T
(PID.TID 0000.0001)     ;
(PID.TID 0000.0001) pickup_write_mnc =   /* Model IO flag. */
(PID.TID 0000.0001)                   F
(PID.TID 0000.0001)     ;
(PID.TID 0000.0001) pickup_read_mnc =   /* Model IO flag. */
(PID.TID 0000.0001)                   F
(PID.TID 0000.0001)     ;
(PID.TID 0000.0001) pickup_write_immed =   /* Model IO flag. */
(PID.TID 0000.0001)                   F
(PID.TID 0000.0001)     ;
(PID.TID 0000.0001) writePickupAtEnd =   /* Model IO flag. */
(PID.TID 0000.0001)                   T
(PID.TID 0000.0001)     ;
(PID.TID 0000.0001) dumpFreq =   /* Model state write out interval ( s ). */
(PID.TID 0000.0001)                 0.000000000000000E+00
(PID.TID 0000.0001)     ;
(PID.TID 0000.0001) dumpInitAndLast= /* write out Initial & Last iter. model state */
(PID.TID 0000.0001)                   T
(PID.TID 0000.0001)     ;
(PID.TID 0000.0001) snapshot_mdsio =   /* Model IO flag. */
(PID.TID 0000.0001)                   F
(PID.TID 0000.0001)     ;
(PID.TID 0000.0001) snapshot_mnc =   /* Model IO flag. */
(PID.TID 0000.0001)                   T
(PID.TID 0000.0001)     ;
(PID.TID 0000.0001) monitorFreq =   /* Monitor output interval ( s ). */
(PID.TID 0000.0001)                 1.000000000000000E+00
(PID.TID 0000.0001)     ;
(PID.TID 0000.0001) monitorSelect = /* select group of variables to monitor */
(PID.TID 0000.0001)                       2
(PID.TID 0000.0001)     ;
(PID.TID 0000.0001) monitor_stdio =   /* Model IO flag. */
(PID.TID 0000.0001)                   T
(PID.TID 0000.0001)     ;
(PID.TID 0000.0001) monitor_mnc =   /* Model IO flag. */
(PID.TID 0000.0001)                   F
(PID.TID 0000.0001)     ;
(PID.TID 0000.0001) externForcingPeriod =   /* forcing period (s) */
(PID.TID 0000.0001)                 0.000000000000000E+00
(PID.TID 0000.0001)     ;
(PID.TID 0000.0001) externForcingCycle =   /* period of the cyle (s). */
(PID.TID 0000.0001)                 0.000000000000000E+00
(PID.TID 0000.0001)     ;
(PID.TID 0000.0001) tauThetaClimRelax =   /* relaxation time scale (s) */
(PID.TID 0000.0001)                 0.000000000000000E+00
(PID.TID 0000.0001)     ;
(PID.TID 0000.0001) tauSaltClimRelax =   /* relaxation time scale (s) */
(PID.TID 0000.0001)                 0.000000000000000E+00
(PID.TID 0000.0001)     ;
(PID.TID 0000.0001) latBandClimRelax =   /* max. Lat. where relaxation */
(PID.TID 0000.0001)                 1.800000000000000E+02
(PID.TID 0000.0001)     ;
(PID.TID 0000.0001) //
(PID.TID 0000.0001) // Gridding paramters ( PARM04 in namelist )
(PID.TID 0000.0001) //
(PID.TID 0000.0001) usingCartesianGrid = /* Cartesian coordinates flag ( True/False ) */
(PID.TID 0000.0001)                   F
(PID.TID 0000.0001)     ;
(PID.TID 0000.0001) usingCylindricalGrid = /* Cylindrical coordinates flag ( True/False ) */
(PID.TID 0000.0001)                   F
(PID.TID 0000.0001)     ;
(PID.TID 0000.0001) usingSphericalPolarGrid = /* Spherical coordinates flag ( True/False ) */
(PID.TID 0000.0001)                   T
(PID.TID 0000.0001)     ;
(PID.TID 0000.0001) usingCurvilinearGrid = /* Curvilinear coordinates flag ( True/False ) */
(PID.TID 0000.0001)                   F
(PID.TID 0000.0001)     ;
(PID.TID 0000.0001) selectSigmaCoord = /* Hybrid-Sigma Vert. Coordinate option */
(PID.TID 0000.0001)                       0
(PID.TID 0000.0001)     ;
(PID.TID 0000.0001) Ro_SeaLevel = /* r(1) ( units of r ==  m ) */
(PID.TID 0000.0001)                 0.000000000000000E+00
(PID.TID 0000.0001)     ;
(PID.TID 0000.0001) rSigmaBnd = /* r/sigma transition ( units of r ==  m ) */
(PID.TID 0000.0001)                 1.234567000000000E+05
(PID.TID 0000.0001)     ;
(PID.TID 0000.0001) rkSign =   /* index orientation relative to vertical coordinate */
(PID.TID 0000.0001)                -1.000000000000000E+00
(PID.TID 0000.0001)     ;
(PID.TID 0000.0001) gravitySign = /* gravity orientation relative to vertical coordinate */
(PID.TID 0000.0001)                -1.000000000000000E+00
(PID.TID 0000.0001)     ;
(PID.TID 0000.0001) mass2rUnit = /* convert mass per unit area [kg/m2] to r-units [m] */
(PID.TID 0000.0001)                 9.708737864077669E-04
(PID.TID 0000.0001)     ;
(PID.TID 0000.0001) rUnit2mass = /* convert r-units [m] to mass per unit area [kg/m2] */
(PID.TID 0000.0001)                 1.030000000000000E+03
(PID.TID 0000.0001)     ;
(PID.TID 0000.0001) drC =   /* C spacing ( units of r ) */
(PID.TID 0000.0001)                 1.500000000000000E+01,      /* K =  1 */
(PID.TID 0000.0001)    29 @  3.000000000000000E+01,             /* K =  2: 30 */
(PID.TID 0000.0001)                 1.500000000000000E+01       /* K = 31 */
(PID.TID 0000.0001)     ;
(PID.TID 0000.0001) drF =   /* W spacing ( units of r ) */
(PID.TID 0000.0001)    30 @  3.000000000000000E+01              /* K =  1: 30 */
(PID.TID 0000.0001)     ;
(PID.TID 0000.0001) delX = /* U spacing ( m - cartesian, degrees - spherical ) */
(PID.TID 0000.0001)    50 @  3.000000000000000E-01              /* I =  1: 50 */
(PID.TID 0000.0001)     ;
(PID.TID 0000.0001) delY = /* V spacing ( m - cartesian, degrees - spherical ) */
(PID.TID 0000.0001)   100 @  1.000000000000000E-01              /* J =  1:100 */
(PID.TID 0000.0001)     ;
(PID.TID 0000.0001) xgOrigin = /* X-axis origin of West  edge (cartesian: m, lat-lon: deg) */
(PID.TID 0000.0001)                 0.000000000000000E+00
(PID.TID 0000.0001)     ;
(PID.TID 0000.0001) ygOrigin = /* Y-axis origin of South edge (cartesian: m, lat-lon: deg) */
(PID.TID 0000.0001)                -8.000000000000000E+01
(PID.TID 0000.0001)     ;
(PID.TID 0000.0001) rSphere =  /* Radius ( ignored - cartesian, m - spherical ) */
(PID.TID 0000.0001)                 6.370000000000000E+06
(PID.TID 0000.0001)     ;
(PID.TID 0000.0001) deepAtmosphere = /* Deep/Shallow Atmosphere flag (True/False) */
(PID.TID 0000.0001)                   F
(PID.TID 0000.0001)     ;
(PID.TID 0000.0001) xC =  /* xC(:,1,:,1) : P-point X coord ( deg. or m if cartesian) */
(PID.TID 0000.0001)                 1.500000000000001E-01,      /* I =  1 */
(PID.TID 0000.0001)                 4.500000000000001E-01,      /* I =  2 */
(PID.TID 0000.0001)                 7.500000000000002E-01,      /* I =  3 */
(PID.TID 0000.0001)                 1.050000000000000E+00,      /* I =  4 */
(PID.TID 0000.0001)                 1.350000000000000E+00,      /* I =  5 */
(PID.TID 0000.0001)                 1.650000000000000E+00,      /* I =  6 */
(PID.TID 0000.0001)                 1.950000000000000E+00,      /* I =  7 */
(PID.TID 0000.0001)                 2.250000000000000E+00,      /* I =  8 */
(PID.TID 0000.0001)                 2.550000000000000E+00,      /* I =  9 */
(PID.TID 0000.0001)                 2.850000000000000E+00,      /* I = 10 */
(PID.TID 0000.0001)                 3.149999999999999E+00,      /* I = 11 */
(PID.TID 0000.0001)                 3.449999999999999E+00,      /* I = 12 */
(PID.TID 0000.0001)                 3.749999999999999E+00,      /* I = 13 */
(PID.TID 0000.0001)                 4.049999999999999E+00,      /* I = 14 */
(PID.TID 0000.0001)                 4.350000000000000E+00,      /* I = 15 */
(PID.TID 0000.0001)                 4.649999999999999E+00,      /* I = 16 */
(PID.TID 0000.0001)                 4.949999999999999E+00,      /* I = 17 */
(PID.TID 0000.0001)                 5.249999999999998E+00,      /* I = 18 */
(PID.TID 0000.0001)                 5.549999999999999E+00,      /* I = 19 */
(PID.TID 0000.0001)                 5.849999999999998E+00,      /* I = 20 */
(PID.TID 0000.0001)                 6.149999999999999E+00,      /* I = 21 */
(PID.TID 0000.0001)                 6.449999999999998E+00,      /* I = 22 */
(PID.TID 0000.0001)                 6.749999999999998E+00,      /* I = 23 */
(PID.TID 0000.0001)                 7.049999999999997E+00,      /* I = 24 */
(PID.TID 0000.0001)                 7.349999999999997E+00,      /* I = 25 */
(PID.TID 0000.0001)                 7.649999999999997E+00,      /* I = 26 */
(PID.TID 0000.0001)                 7.949999999999998E+00,      /* I = 27 */
(PID.TID 0000.0001)                 8.249999999999998E+00,      /* I = 28 */
(PID.TID 0000.0001)                 8.549999999999999E+00,      /* I = 29 */
(PID.TID 0000.0001)                 8.850000000000000E+00,      /* I = 30 */
(PID.TID 0000.0001)                 9.150000000000000E+00,      /* I = 31 */
(PID.TID 0000.0001)                 9.450000000000001E+00,      /* I = 32 */
(PID.TID 0000.0001)                 9.750000000000002E+00,      /* I = 33 */
(PID.TID 0000.0001)                 1.005000000000000E+01,      /* I = 34 */
(PID.TID 0000.0001)                 1.035000000000000E+01,      /* I = 35 */
(PID.TID 0000.0001)                 1.065000000000000E+01,      /* I = 36 */
(PID.TID 0000.0001)                 1.095000000000001E+01,      /* I = 37 */
(PID.TID 0000.0001)                 1.125000000000001E+01,      /* I = 38 */
(PID.TID 0000.0001)                 1.155000000000000E+01,      /* I = 39 */
(PID.TID 0000.0001)                 1.185000000000001E+01,      /* I = 40 */
(PID.TID 0000.0001)                 1.215000000000001E+01,      /* I = 41 */
(PID.TID 0000.0001)                 1.245000000000001E+01,      /* I = 42 */
(PID.TID 0000.0001)                 1.275000000000001E+01,      /* I = 43 */
(PID.TID 0000.0001)                 1.305000000000001E+01,      /* I = 44 */
(PID.TID 0000.0001)                 1.335000000000001E+01,      /* I = 45 */
(PID.TID 0000.0001)                 1.365000000000001E+01,      /* I = 46 */
(PID.TID 0000.0001)                 1.395000000000001E+01,      /* I = 47 */
(PID.TID 0000.0001)                 1.425000000000001E+01,      /* I = 48 */
(PID.TID 0000.0001)                 1.455000000000001E+01,      /* I = 49 */
(PID.TID 0000.0001)                 1.485000000000001E+01       /* I = 50 */
(PID.TID 0000.0001)     ;
(PID.TID 0000.0001) yC =  /* yC(1,:,1,:) : P-point Y coord ( deg. or m if cartesian) */
(PID.TID 0000.0001)                -7.995000000000000E+01,      /* J =  1 */
(PID.TID 0000.0001)                -7.985000000000001E+01,      /* J =  2 */
(PID.TID 0000.0001)                -7.975000000000001E+01,      /* J =  3 */
(PID.TID 0000.0001)      . . .
(PID.TID 0000.0001)                -7.775000000000013E+01,      /* J = 23 */
(PID.TID 0000.0001)                -7.765000000000013E+01,      /* J = 24 */
(PID.TID 0000.0001)                -7.755000000000014E+01,      /* J = 25 */
(PID.TID 0000.0001)                -7.745000000000014E+01,      /* J = 26 */
(PID.TID 0000.0001)                -7.735000000000015E+01,      /* J = 27 */
(PID.TID 0000.0001)                -7.725000000000016E+01,      /* J = 28 */
(PID.TID 0000.0001)      . . .
(PID.TID 0000.0001)                -7.525000000000027E+01,      /* J = 48 */
(PID.TID 0000.0001)                -7.515000000000028E+01,      /* J = 49 */
(PID.TID 0000.0001)                -7.505000000000028E+01,      /* J = 50 */
(PID.TID 0000.0001)                -7.495000000000029E+01,      /* J = 51 */
(PID.TID 0000.0001)                -7.485000000000029E+01,      /* J = 52 */
(PID.TID 0000.0001)                -7.475000000000030E+01,      /* J = 53 */
(PID.TID 0000.0001)      . . .
(PID.TID 0000.0001)                -7.275000000000041E+01,      /* J = 73 */
(PID.TID 0000.0001)                -7.265000000000042E+01,      /* J = 74 */
(PID.TID 0000.0001)                -7.255000000000042E+01,      /* J = 75 */
(PID.TID 0000.0001)                -7.245000000000043E+01,      /* J = 76 */
(PID.TID 0000.0001)                -7.235000000000043E+01,      /* J = 77 */
(PID.TID 0000.0001)                -7.225000000000044E+01,      /* J = 78 */
(PID.TID 0000.0001)      . . .
(PID.TID 0000.0001)                -7.025000000000055E+01,      /* J = 98 */
(PID.TID 0000.0001)                -7.015000000000056E+01,      /* J = 99 */
(PID.TID 0000.0001)                -7.005000000000057E+01       /* J =100 */
(PID.TID 0000.0001)     ;
(PID.TID 0000.0001) rcoord = /* P-point R coordinate (  units of r ) */
(PID.TID 0000.0001)                -1.500000000000000E+01,      /* K =  1 */
(PID.TID 0000.0001)                -4.500000000000000E+01,      /* K =  2 */
(PID.TID 0000.0001)                -7.500000000000000E+01,      /* K =  3 */
(PID.TID 0000.0001)                -1.050000000000000E+02,      /* K =  4 */
(PID.TID 0000.0001)                -1.350000000000000E+02,      /* K =  5 */
(PID.TID 0000.0001)                -1.650000000000000E+02,      /* K =  6 */
(PID.TID 0000.0001)                -1.950000000000000E+02,      /* K =  7 */
(PID.TID 0000.0001)                -2.250000000000000E+02,      /* K =  8 */
(PID.TID 0000.0001)                -2.550000000000000E+02,      /* K =  9 */
(PID.TID 0000.0001)                -2.850000000000000E+02,      /* K = 10 */
(PID.TID 0000.0001)                -3.150000000000000E+02,      /* K = 11 */
(PID.TID 0000.0001)                -3.450000000000000E+02,      /* K = 12 */
(PID.TID 0000.0001)                -3.750000000000000E+02,      /* K = 13 */
(PID.TID 0000.0001)                -4.050000000000000E+02,      /* K = 14 */
(PID.TID 0000.0001)                -4.350000000000000E+02,      /* K = 15 */
(PID.TID 0000.0001)                -4.650000000000000E+02,      /* K = 16 */
(PID.TID 0000.0001)                -4.950000000000000E+02,      /* K = 17 */
(PID.TID 0000.0001)                -5.250000000000000E+02,      /* K = 18 */
(PID.TID 0000.0001)                -5.550000000000000E+02,      /* K = 19 */
(PID.TID 0000.0001)                -5.850000000000000E+02,      /* K = 20 */
(PID.TID 0000.0001)                -6.150000000000000E+02,      /* K = 21 */
(PID.TID 0000.0001)                -6.450000000000000E+02,      /* K = 22 */
(PID.TID 0000.0001)                -6.750000000000000E+02,      /* K = 23 */
(PID.TID 0000.0001)                -7.050000000000000E+02,      /* K = 24 */
(PID.TID 0000.0001)                -7.350000000000000E+02,      /* K = 25 */
(PID.TID 0000.0001)                -7.650000000000000E+02,      /* K = 26 */
(PID.TID 0000.0001)                -7.950000000000000E+02,      /* K = 27 */
(PID.TID 0000.0001)                -8.250000000000000E+02,      /* K = 28 */
(PID.TID 0000.0001)                -8.550000000000000E+02,      /* K = 29 */
(PID.TID 0000.0001)                -8.850000000000000E+02       /* K = 30 */
(PID.TID 0000.0001)     ;
(PID.TID 0000.0001) rF =   /* W-Interf. R coordinate (  units of r ) */
(PID.TID 0000.0001)                 0.000000000000000E+00,      /* K =  1 */
(PID.TID 0000.0001)                -3.000000000000000E+01,      /* K =  2 */
(PID.TID 0000.0001)                -6.000000000000000E+01,      /* K =  3 */
(PID.TID 0000.0001)                -9.000000000000000E+01,      /* K =  4 */
(PID.TID 0000.0001)                -1.200000000000000E+02,      /* K =  5 */
(PID.TID 0000.0001)                -1.500000000000000E+02,      /* K =  6 */
(PID.TID 0000.0001)                -1.800000000000000E+02,      /* K =  7 */
(PID.TID 0000.0001)                -2.100000000000000E+02,      /* K =  8 */
(PID.TID 0000.0001)                -2.400000000000000E+02,      /* K =  9 */
(PID.TID 0000.0001)                -2.700000000000000E+02,      /* K = 10 */
(PID.TID 0000.0001)                -3.000000000000000E+02,      /* K = 11 */
(PID.TID 0000.0001)                -3.300000000000000E+02,      /* K = 12 */
(PID.TID 0000.0001)                -3.600000000000000E+02,      /* K = 13 */
(PID.TID 0000.0001)                -3.900000000000000E+02,      /* K = 14 */
(PID.TID 0000.0001)                -4.200000000000000E+02,      /* K = 15 */
(PID.TID 0000.0001)                -4.500000000000000E+02,      /* K = 16 */
(PID.TID 0000.0001)                -4.800000000000000E+02,      /* K = 17 */
(PID.TID 0000.0001)                -5.100000000000000E+02,      /* K = 18 */
(PID.TID 0000.0001)                -5.400000000000000E+02,      /* K = 19 */
(PID.TID 0000.0001)                -5.700000000000000E+02,      /* K = 20 */
(PID.TID 0000.0001)                -6.000000000000000E+02,      /* K = 21 */
(PID.TID 0000.0001)                -6.300000000000000E+02,      /* K = 22 */
(PID.TID 0000.0001)                -6.600000000000000E+02,      /* K = 23 */
(PID.TID 0000.0001)                -6.900000000000000E+02,      /* K = 24 */
(PID.TID 0000.0001)                -7.200000000000000E+02,      /* K = 25 */
(PID.TID 0000.0001)                -7.500000000000000E+02,      /* K = 26 */
(PID.TID 0000.0001)                -7.800000000000000E+02,      /* K = 27 */
(PID.TID 0000.0001)                -8.100000000000000E+02,      /* K = 28 */
(PID.TID 0000.0001)                -8.400000000000000E+02,      /* K = 29 */
(PID.TID 0000.0001)                -8.700000000000000E+02,      /* K = 30 */
(PID.TID 0000.0001)                -9.000000000000000E+02       /* K = 31 */
(PID.TID 0000.0001)     ;
(PID.TID 0000.0001) deepFacC = /* deep-model grid factor @ cell-Center (-) */
(PID.TID 0000.0001)    30 @  1.000000000000000E+00              /* K =  1: 30 */
(PID.TID 0000.0001)     ;
(PID.TID 0000.0001) deepFacF = /* deep-model grid factor @ W-Interface (-) */
(PID.TID 0000.0001)    31 @  1.000000000000000E+00              /* K =  1: 31 */
(PID.TID 0000.0001)     ;
(PID.TID 0000.0001) rVel2wUnit = /* convert units: rVel -> wSpeed (=1 if z-coord)*/
(PID.TID 0000.0001)    31 @  1.000000000000000E+00              /* K =  1: 31 */
(PID.TID 0000.0001)     ;
(PID.TID 0000.0001) wUnit2rVel = /* convert units: wSpeed -> rVel (=1 if z-coord)*/
(PID.TID 0000.0001)    31 @  1.000000000000000E+00              /* K =  1: 31 */
(PID.TID 0000.0001)     ;
(PID.TID 0000.0001) dBdrRef = /* Vertical grad. of reference buoyancy [(m/s/r)^2] */
(PID.TID 0000.0001)    30 @  0.000000000000000E+00              /* K =  1: 30 */
(PID.TID 0000.0001)     ;
(PID.TID 0000.0001) rotateGrid = /* use rotated grid ( True/False ) */
(PID.TID 0000.0001)                   F
(PID.TID 0000.0001)     ;
(PID.TID 0000.0001) phiEuler = /* Euler angle, rotation about original z-coordinate [rad] */
(PID.TID 0000.0001)                 0.000000000000000E+00
(PID.TID 0000.0001)     ;
(PID.TID 0000.0001) thetaEuler = /* Euler angle, rotation about new x-coordinate [rad] */
(PID.TID 0000.0001)                 0.000000000000000E+00
(PID.TID 0000.0001)     ;
(PID.TID 0000.0001) psiEuler = /* Euler angle, rotation about new z-coordinate [rad] */
(PID.TID 0000.0001)                 0.000000000000000E+00
(PID.TID 0000.0001)     ;
(PID.TID 0000.0001) dxF =  /* dxF(:,1,:,1) ( units: m ) */
(PID.TID 0000.0001)    50 @  5.820391490558872E+03              /* I =  1: 50 */
(PID.TID 0000.0001)     ;
(PID.TID 0000.0001) dxF =  /* dxF(1,:,1,:) ( units: m ) */
(PID.TID 0000.0001)                 5.820391490558872E+03,      /* J =  1 */
(PID.TID 0000.0001)                 5.877701765291692E+03,      /* J =  2 */
(PID.TID 0000.0001)                 5.934994135525598E+03,      /* J =  3 */
(PID.TID 0000.0001)      . . .
(PID.TID 0000.0001)                 7.076813247621209E+03,      /* J = 23 */
(PID.TID 0000.0001)                 7.133689397375063E+03,      /* J = 24 */
(PID.TID 0000.0001)                 7.190543816673855E+03,      /* J = 25 */
(PID.TID 0000.0001)                 7.247376332329164E+03,      /* J = 26 */
(PID.TID 0000.0001)                 7.304186771219292E+03,      /* J = 27 */
(PID.TID 0000.0001)                 7.360974960289787E+03,      /* J = 28 */
(PID.TID 0000.0001)      . . .
(PID.TID 0000.0001)                 8.491800393599013E+03,      /* J = 48 */
(PID.TID 0000.0001)                 8.548081485571185E+03,      /* J = 49 */
(PID.TID 0000.0001)                 8.604336538604706E+03,      /* J = 50 */
(PID.TID 0000.0001)                 8.660565381336924E+03,      /* J = 51 */
(PID.TID 0000.0001)                 8.716767842485036E+03,      /* J = 52 */
(PID.TID 0000.0001)                 8.772943750846600E+03,      /* J = 53 */
(PID.TID 0000.0001)      . . .
(PID.TID 0000.0001)                 9.890622914885218E+03,      /* J = 73 */
(PID.TID 0000.0001)                 9.946201814818334E+03,      /* J = 74 */
(PID.TID 0000.0001)                 1.000175041689580E+04,      /* J = 75 */
(PID.TID 0000.0001)                 1.005726855190695E+04,      /* J = 76 */
(PID.TID 0000.0001)                 1.011275605073392E+04,      /* J = 77 */
(PID.TID 0000.0001)                 1.016821274435215E+04,      /* J = 78 */
(PID.TID 0000.0001)      . . .
(PID.TID 0000.0001)                 1.127061807330668E+04,      /* J = 98 */
(PID.TID 0000.0001)                 1.132538898360582E+04,      /* J = 99 */
(PID.TID 0000.0001)                 1.138012539480601E+04       /* J =100 */
(PID.TID 0000.0001)     ;
(PID.TID 0000.0001) dyF =  /* dyF(:,1,:,1) ( units: m ) */
(PID.TID 0000.0001)    50 @  1.111774733520388E+04              /* I =  1: 50 */
(PID.TID 0000.0001)     ;
(PID.TID 0000.0001) dyF =  /* dyF(1,:,1,:) ( units: m ) */
(PID.TID 0000.0001)   100 @  1.111774733520388E+04              /* J =  1:100 */
(PID.TID 0000.0001)     ;
(PID.TID 0000.0001) dxG =  /* dxG(:,1,:,1) ( units: m ) */
(PID.TID 0000.0001)    50 @  5.791729693558576E+03              /* I =  1: 50 */
(PID.TID 0000.0001)     ;
(PID.TID 0000.0001) dxG =  /* dxG(1,:,1,:) ( units: m ) */
(PID.TID 0000.0001)                 5.791729693558576E+03,      /* J =  1 */
(PID.TID 0000.0001)                 5.849048855077854E+03,      /* J =  2 */
(PID.TID 0000.0001)                 5.906350199379949E+03,      /* J =  3 */
(PID.TID 0000.0001)      . . .
(PID.TID 0000.0001)                 7.048367077963129E+03,      /* J = 23 */
(PID.TID 0000.0001)                 7.105254027978149E+03,      /* J = 24 */
(PID.TID 0000.0001)                 7.162119334157175E+03,      /* J = 25 */
(PID.TID 0000.0001)                 7.218962823278620E+03,      /* J = 26 */
(PID.TID 0000.0001)                 7.275784322187360E+03,      /* J = 27 */
(PID.TID 0000.0001)                 7.332583657795253E+03,      /* J = 28 */
(PID.TID 0000.0001)      . . .
(PID.TID 0000.0001)                 8.463650136583461E+03,      /* J = 48 */
(PID.TID 0000.0001)                 8.519944183739159E+03,      /* J = 49 */
(PID.TID 0000.0001)                 8.576212277667308E+03,      /* J = 50 */
(PID.TID 0000.0001)                 8.632454246965530E+03,      /* J = 51 */
(PID.TID 0000.0001)                 8.688669920311038E+03,      /* J = 52 */
(PID.TID 0000.0001)                 8.744859126461139E+03,      /* J = 53 */
(PID.TID 0000.0001)      . . .
(PID.TID 0000.0001)                 9.862822156126382E+03,      /* J = 73 */
(PID.TID 0000.0001)                 9.918416141504455E+03,      /* J = 74 */
(PID.TID 0000.0001)                 9.973979913666863E+03,      /* J = 75 */
(PID.TID 0000.0001)                 1.002951330335672E+04,      /* J = 76 */
(PID.TID 0000.0001)                 1.008501614140969E+04,      /* J = 77 */
(PID.TID 0000.0001)                 1.014048825875450E+04,      /* J = 78 */
(PID.TID 0000.0001)      . . .
(PID.TID 0000.0001)                 1.124321973312895E+04,      /* J = 98 */
(PID.TID 0000.0001)                 1.129800783041847E+04,      /* J = 99 */
(PID.TID 0000.0001)                 1.135276151201679E+04       /* J =100 */
(PID.TID 0000.0001)     ;
(PID.TID 0000.0001) dyG =  /* dyG(:,1,:,1) ( units: m ) */
(PID.TID 0000.0001)    50 @  1.111774733520388E+04              /* I =  1: 50 */
(PID.TID 0000.0001)     ;
(PID.TID 0000.0001) dyG =  /* dyG(1,:,1,:) ( units: m ) */
(PID.TID 0000.0001)   100 @  1.111774733520388E+04              /* J =  1:100 */
(PID.TID 0000.0001)     ;
(PID.TID 0000.0001) dxC =  /* dxC(:,1,:,1) ( units: m ) */
(PID.TID 0000.0001)    50 @  5.820391490558872E+03              /* I =  1: 50 */
(PID.TID 0000.0001)     ;
(PID.TID 0000.0001) dxC =  /* dxC(1,:,1,:) ( units: m ) */
(PID.TID 0000.0001)                 5.820391490558872E+03,      /* J =  1 */
(PID.TID 0000.0001)                 5.877701765291692E+03,      /* J =  2 */
(PID.TID 0000.0001)                 5.934994135525598E+03,      /* J =  3 */
(PID.TID 0000.0001)      . . .
(PID.TID 0000.0001)                 7.076813247621209E+03,      /* J = 23 */
(PID.TID 0000.0001)                 7.133689397375063E+03,      /* J = 24 */
(PID.TID 0000.0001)                 7.190543816673855E+03,      /* J = 25 */
(PID.TID 0000.0001)                 7.247376332329164E+03,      /* J = 26 */
(PID.TID 0000.0001)                 7.304186771219292E+03,      /* J = 27 */
(PID.TID 0000.0001)                 7.360974960289787E+03,      /* J = 28 */
(PID.TID 0000.0001)      . . .
(PID.TID 0000.0001)                 8.491800393599013E+03,      /* J = 48 */
(PID.TID 0000.0001)                 8.548081485571185E+03,      /* J = 49 */
(PID.TID 0000.0001)                 8.604336538604706E+03,      /* J = 50 */
(PID.TID 0000.0001)                 8.660565381336924E+03,      /* J = 51 */
(PID.TID 0000.0001)                 8.716767842485036E+03,      /* J = 52 */
(PID.TID 0000.0001)                 8.772943750846600E+03,      /* J = 53 */
(PID.TID 0000.0001)      . . .
(PID.TID 0000.0001)                 9.890622914885218E+03,      /* J = 73 */
(PID.TID 0000.0001)                 9.946201814818334E+03,      /* J = 74 */
(PID.TID 0000.0001)                 1.000175041689580E+04,      /* J = 75 */
(PID.TID 0000.0001)                 1.005726855190695E+04,      /* J = 76 */
(PID.TID 0000.0001)                 1.011275605073392E+04,      /* J = 77 */
(PID.TID 0000.0001)                 1.016821274435215E+04,      /* J = 78 */
(PID.TID 0000.0001)      . . .
(PID.TID 0000.0001)                 1.127061807330668E+04,      /* J = 98 */
(PID.TID 0000.0001)                 1.132538898360582E+04,      /* J = 99 */
(PID.TID 0000.0001)                 1.138012539480601E+04       /* J =100 */
(PID.TID 0000.0001)     ;
(PID.TID 0000.0001) dyC =  /* dyC(:,1,:,1) ( units: m ) */
(PID.TID 0000.0001)    50 @  1.111774733520388E+04              /* I =  1: 50 */
(PID.TID 0000.0001)     ;
(PID.TID 0000.0001) dyC =  /* dyC(1,:,1,:) ( units: m ) */
(PID.TID 0000.0001)   100 @  1.111774733520388E+04              /* J =  1:100 */
(PID.TID 0000.0001)     ;
(PID.TID 0000.0001) dxV =  /* dxV(:,1,:,1) ( units: m ) */
(PID.TID 0000.0001)    50 @  5.791729693558576E+03              /* I =  1: 50 */
(PID.TID 0000.0001)     ;
(PID.TID 0000.0001) dxV =  /* dxV(1,:,1,:) ( units: m ) */
(PID.TID 0000.0001)                 5.791729693558576E+03,      /* J =  1 */
(PID.TID 0000.0001)                 5.849048855077854E+03,      /* J =  2 */
(PID.TID 0000.0001)                 5.906350199379949E+03,      /* J =  3 */
(PID.TID 0000.0001)      . . .
(PID.TID 0000.0001)                 7.048367077963129E+03,      /* J = 23 */
(PID.TID 0000.0001)                 7.105254027978149E+03,      /* J = 24 */
(PID.TID 0000.0001)                 7.162119334157175E+03,      /* J = 25 */
(PID.TID 0000.0001)                 7.218962823278620E+03,      /* J = 26 */
(PID.TID 0000.0001)                 7.275784322187360E+03,      /* J = 27 */
(PID.TID 0000.0001)                 7.332583657795253E+03,      /* J = 28 */
(PID.TID 0000.0001)      . . .
(PID.TID 0000.0001)                 8.463650136583461E+03,      /* J = 48 */
(PID.TID 0000.0001)                 8.519944183739159E+03,      /* J = 49 */
(PID.TID 0000.0001)                 8.576212277667308E+03,      /* J = 50 */
(PID.TID 0000.0001)                 8.632454246965530E+03,      /* J = 51 */
(PID.TID 0000.0001)                 8.688669920311038E+03,      /* J = 52 */
(PID.TID 0000.0001)                 8.744859126461139E+03,      /* J = 53 */
(PID.TID 0000.0001)      . . .
(PID.TID 0000.0001)                 9.862822156126382E+03,      /* J = 73 */
(PID.TID 0000.0001)                 9.918416141504455E+03,      /* J = 74 */
(PID.TID 0000.0001)                 9.973979913666863E+03,      /* J = 75 */
(PID.TID 0000.0001)                 1.002951330335672E+04,      /* J = 76 */
(PID.TID 0000.0001)                 1.008501614140969E+04,      /* J = 77 */
(PID.TID 0000.0001)                 1.014048825875450E+04,      /* J = 78 */
(PID.TID 0000.0001)      . . .
(PID.TID 0000.0001)                 1.124321973312895E+04,      /* J = 98 */
(PID.TID 0000.0001)                 1.129800783041847E+04,      /* J = 99 */
(PID.TID 0000.0001)                 1.135276151201679E+04       /* J =100 */
(PID.TID 0000.0001)     ;
(PID.TID 0000.0001) dyU =  /* dyU(:,1,:,1) ( units: m ) */
(PID.TID 0000.0001)    50 @  1.111774733520388E+04              /* I =  1: 50 */
(PID.TID 0000.0001)     ;
(PID.TID 0000.0001) dyU =  /* dyU(1,:,1,:) ( units: m ) */
(PID.TID 0000.0001)   100 @  1.111774733520388E+04              /* J =  1:100 */
(PID.TID 0000.0001)     ;
(PID.TID 0000.0001) rA  =  /* rA (:,1,:,1) ( units: m^2 ) */
(PID.TID 0000.0001)    50 @  6.470963377080289E+07              /* I =  1: 50 */
(PID.TID 0000.0001)     ;
(PID.TID 0000.0001) rA  =  /* rA (1,:,1,:) ( units: m^2 ) */
(PID.TID 0000.0001)                 6.470963377080289E+07,      /* J =  1 */
(PID.TID 0000.0001)                 6.534679484410104E+07,      /* J =  2 */
(PID.TID 0000.0001)                 6.598375685977945E+07,      /* J =  3 */
(PID.TID 0000.0001)      . . .
(PID.TID 0000.0001)                 7.867821163932665E+07,      /* J = 23 */
(PID.TID 0000.0001)                 7.931054622142966E+07,      /* J = 24 */
(PID.TID 0000.0001)                 7.994263920984067E+07,      /* J = 25 */
(PID.TID 0000.0001)                 8.057448867913349E+07,      /* J = 26 */
(PID.TID 0000.0001)                 8.120609270456599E+07,      /* J = 27 */
(PID.TID 0000.0001)                 8.183744936212724E+07,      /* J = 28 */
(PID.TID 0000.0001)      . . .
(PID.TID 0000.0001)                 9.440967921416211E+07,      /* J = 48 */
(PID.TID 0000.0001)                 9.503539809503193E+07,      /* J = 49 */
(PID.TID 0000.0001)                 9.566082748163140E+07,      /* J = 50 */
(PID.TID 0000.0001)                 9.628596546870193E+07,      /* J = 51 */
(PID.TID 0000.0001)                 9.691081015209354E+07,      /* J = 52 */
(PID.TID 0000.0001)                 9.753535962826957E+07,      /* J = 53 */
(PID.TID 0000.0001)      . . .
(PID.TID 0000.0001)                 1.099614325987181E+08,      /* J = 73 */
(PID.TID 0000.0001)                 1.105793446869293E+08,      /* J = 74 */
(PID.TID 0000.0001)                 1.111969199312560E+08,      /* J = 75 */
(PID.TID 0000.0001)                 1.118141564504991E+08,      /* J = 76 */
(PID.TID 0000.0001)                 1.124310523644033E+08,      /* J = 77 */
(PID.TID 0000.0001)                 1.130476057938687E+08,      /* J = 78 */
(PID.TID 0000.0001)      . . .
(PID.TID 0000.0001)                 1.253038681465364E+08,      /* J = 98 */
(PID.TID 0000.0001)                 1.259127972112936E+08,      /* J = 99 */
(PID.TID 0000.0001)                 1.265213427237870E+08       /* J =100 */
(PID.TID 0000.0001)     ;
(PID.TID 0000.0001) rAw =  /* rAw(:,1,:,1) ( units: m^2 ) */
(PID.TID 0000.0001)    50 @  6.470963377080289E+07              /* I =  1: 50 */
(PID.TID 0000.0001)     ;
(PID.TID 0000.0001) rAw =  /* rAw(1,:,1,:) ( units: m^2 ) */
(PID.TID 0000.0001)                 6.470963377080289E+07,      /* J =  1 */
(PID.TID 0000.0001)                 6.534679484410104E+07,      /* J =  2 */
(PID.TID 0000.0001)                 6.598375685977945E+07,      /* J =  3 */
(PID.TID 0000.0001)      . . .
(PID.TID 0000.0001)                 7.867821163932665E+07,      /* J = 23 */
(PID.TID 0000.0001)                 7.931054622142966E+07,      /* J = 24 */
(PID.TID 0000.0001)                 7.994263920984067E+07,      /* J = 25 */
(PID.TID 0000.0001)                 8.057448867913349E+07,      /* J = 26 */
(PID.TID 0000.0001)                 8.120609270456599E+07,      /* J = 27 */
(PID.TID 0000.0001)                 8.183744936212724E+07,      /* J = 28 */
(PID.TID 0000.0001)      . . .
(PID.TID 0000.0001)                 9.440967921416211E+07,      /* J = 48 */
(PID.TID 0000.0001)                 9.503539809503193E+07,      /* J = 49 */
(PID.TID 0000.0001)                 9.566082748163140E+07,      /* J = 50 */
(PID.TID 0000.0001)                 9.628596546870193E+07,      /* J = 51 */
(PID.TID 0000.0001)                 9.691081015209354E+07,      /* J = 52 */
(PID.TID 0000.0001)                 9.753535962826957E+07,      /* J = 53 */
(PID.TID 0000.0001)      . . .
(PID.TID 0000.0001)                 1.099614325987181E+08,      /* J = 73 */
(PID.TID 0000.0001)                 1.105793446869293E+08,      /* J = 74 */
(PID.TID 0000.0001)                 1.111969199312560E+08,      /* J = 75 */
(PID.TID 0000.0001)                 1.118141564504991E+08,      /* J = 76 */
(PID.TID 0000.0001)                 1.124310523644033E+08,      /* J = 77 */
(PID.TID 0000.0001)                 1.130476057938687E+08,      /* J = 78 */
(PID.TID 0000.0001)      . . .
(PID.TID 0000.0001)                 1.253038681465364E+08,      /* J = 98 */
(PID.TID 0000.0001)                 1.259127972112936E+08,      /* J = 99 */
(PID.TID 0000.0001)                 1.265213427237870E+08       /* J =100 */
(PID.TID 0000.0001)     ;
(PID.TID 0000.0001) rAs =  /* rAs(:,1,:,1) ( units: m^2 ) */
(PID.TID 0000.0001)    50 @  6.439097919401864E+07              /* I =  1: 50 */
(PID.TID 0000.0001)     ;
(PID.TID 0000.0001) rAs =  /* rAs(1,:,1,:) ( units: m^2 ) */
(PID.TID 0000.0001)                 6.439097919401864E+07,      /* J =  1 */
(PID.TID 0000.0001)                 6.502823906837179E+07,      /* J =  2 */
(PID.TID 0000.0001)                 6.566530085543716E+07,      /* J =  3 */
(PID.TID 0000.0001)      . . .
(PID.TID 0000.0001)                 7.836195435256335E+07,      /* J = 23 */
(PID.TID 0000.0001)                 7.899440900921808E+07,      /* J = 24 */
(PID.TID 0000.0001)                 7.962662303520055E+07,      /* J = 25 */
(PID.TID 0000.0001)                 8.025859450470714E+07,      /* J = 26 */
(PID.TID 0000.0001)                 8.089032149259475E+07,      /* J = 27 */
(PID.TID 0000.0001)                 8.152180207452223E+07,      /* J = 28 */
(PID.TID 0000.0001)      . . .
(PID.TID 0000.0001)                 9.409671180895932E+07,      /* J = 48 */
(PID.TID 0000.0001)                 9.472257472228888E+07,      /* J = 49 */
(PID.TID 0000.0001)                 9.534814909420149E+07,      /* J = 50 */
(PID.TID 0000.0001)                 9.597343301913190E+07,      /* J = 51 */
(PID.TID 0000.0001)                 9.659842459236403E+07,      /* J = 52 */
(PID.TID 0000.0001)                 9.722312190998378E+07,      /* J = 53 */
(PID.TID 0000.0001)      . . .
(PID.TID 0000.0001)                 1.096523508263446E+08,      /* J = 73 */
(PID.TID 0000.0001)                 1.102704306306916E+08,      /* J = 74 */
(PID.TID 0000.0001)                 1.108881745321664E+08,      /* J = 75 */
(PID.TID 0000.0001)                 1.115055806490511E+08,      /* J = 76 */
(PID.TID 0000.0001)                 1.121226471005947E+08,      /* J = 77 */
(PID.TID 0000.0001)                 1.127393720071080E+08,      /* J = 78 */
(PID.TID 0000.0001)      . . .
(PID.TID 0000.0001)                 1.249992603617116E+08,      /* J = 98 */
(PID.TID 0000.0001)                 1.256083805070198E+08,      /* J = 99 */
(PID.TID 0000.0001)                 1.262171180274426E+08       /* J =100 */
(PID.TID 0000.0001)     ;
(PID.TID 0000.0001) globalArea = /* Integrated horizontal Area (m^2) */
(PID.TID 0000.0001)                 4.665024516720074E+11
(PID.TID 0000.0001)     ;
(PID.TID 0000.0001) // =======================================================
(PID.TID 0000.0001) // End of Model config. summary
(PID.TID 0000.0001) // =======================================================
(PID.TID 0000.0001) 
(PID.TID 0000.0001) == Packages configuration : Check & print summary ==
(PID.TID 0000.0001) 
(PID.TID 0000.0001) SHELFICE_CHECK: #define ALLOW_SHELFICE
(PID.TID 0000.0001) CTRL_CHECK: ctrl package
(PID.TID 0000.0001) COST_CHECK: cost package
(PID.TID 0000.0001) GRDCHK_CHECK: grdchk package
(PID.TID 0000.0001) GAD_CHECK: #define ALLOW_GENERIC_ADVDIFF
(PID.TID 0000.0001) // =======================================================
(PID.TID 0000.0001) // Check Model config. (CONFIG_CHECK):
(PID.TID 0000.0001) // CONFIG_CHECK : Normal End
(PID.TID 0000.0001) // =======================================================
(PID.TID 0000.0001) 
(PID.TID 0000.0001)  nRecords = 243 ; filePrec =  64 ; fileIter =      8640
(PID.TID 0000.0001)     nDims =   2 , dims:
(PID.TID 0000.0001)    1:  50   1  50
(PID.TID 0000.0001)    2: 100   1 100
(PID.TID 0000.0001)     nFlds =  11 , nFl3D =   8 , fields:
(PID.TID 0000.0001)  >Uvel    < >Vvel    < >Theta   < >Salt    < >GuNm1   < >GvNm1   < >GtNm1   < >GsNm1   < >EtaN    < >dEtaHdt < >EtaH    <
(PID.TID 0000.0001) missingVal=  1.00000000000000E+00 ; nTimRec =   1 , timeList:
(PID.TID 0000.0001)   1.555200000000E+07
(PID.TID 0000.0001) READ_MFLDS_3D_RL: read field: "Uvel    ", #   1 in fldList, rec=   1
(PID.TID 0000.0001) READ_MFLDS_3D_RL: read field: "Vvel    ", #   2 in fldList, rec=   2
(PID.TID 0000.0001) READ_MFLDS_3D_RL: read field: "Theta   ", #   3 in fldList, rec=   3
(PID.TID 0000.0001) READ_MFLDS_3D_RL: read field: "Salt    ", #   4 in fldList, rec=   4
(PID.TID 0000.0001) READ_MFLDS_3D_RL: read field: "GuNm1   ", #   5 in fldList, rec=   5
(PID.TID 0000.0001) READ_MFLDS_3D_RL: read field: "GvNm1   ", #   6 in fldList, rec=   6
(PID.TID 0000.0001) READ_MFLDS_3D_RL: read field: "GtNm1   ", #   7 in fldList, rec=   7
(PID.TID 0000.0001) READ_MFLDS_3D_RL: read field: "GsNm1   ", #   8 in fldList, rec=   8
(PID.TID 0000.0001) READ_MFLDS_3D_RL: read field: "EtaN    ", #   9 in fldList, rec= 241
(PID.TID 0000.0001) READ_MFLDS_3D_RL: read field: "dEtaHdt ", #  10 in fldList, rec= 242
(PID.TID 0000.0001) READ_MFLDS_3D_RL: read field: "EtaH    ", #  11 in fldList, rec= 243
(PID.TID 0000.0001) READ_MFLDS_CHECK: - normal end ; reset MFLDS file-name: pickup.0000008640
(PID.TID 0000.0001) // =======================================================
(PID.TID 0000.0001) // Begin MONITOR dynamic field statistics
(PID.TID 0000.0001) // =======================================================
(PID.TID 0000.0001) %MON time_tsnumber                =                  8640
(PID.TID 0000.0001) %MON time_secondsf                =   1.5552000000000E+07
(PID.TID 0000.0001) %MON dynstat_eta_max              =   1.1547478263152E-02
(PID.TID 0000.0001) %MON dynstat_eta_min              =  -2.6792518859505E-03
(PID.TID 0000.0001) %MON dynstat_eta_mean             =  -2.8025747994407E-16
(PID.TID 0000.0001) %MON dynstat_eta_sd               =   1.0200397966504E-03
(PID.TID 0000.0001) %MON dynstat_eta_del2             =   2.5371559200346E-05
(PID.TID 0000.0001) %MON dynstat_uvel_max             =   7.0225293882088E-03
(PID.TID 0000.0001) %MON dynstat_uvel_min             =  -1.1431056075099E-02
(PID.TID 0000.0001) %MON dynstat_uvel_mean            =   2.8733073796793E-05
(PID.TID 0000.0001) %MON dynstat_uvel_sd              =   1.1583626065939E-03
(PID.TID 0000.0001) %MON dynstat_uvel_del2            =   1.2791047697505E-06
(PID.TID 0000.0001) %MON dynstat_vvel_max             =   3.9338955473099E-02
(PID.TID 0000.0001) %MON dynstat_vvel_min             =  -1.3256941080851E-02
(PID.TID 0000.0001) %MON dynstat_vvel_mean            =  -9.2488922405085E-08
(PID.TID 0000.0001) %MON dynstat_vvel_sd              =   2.7751519144804E-03
(PID.TID 0000.0001) %MON dynstat_vvel_del2            =   4.9212700380926E-06
(PID.TID 0000.0001) %MON dynstat_wvel_max             =   4.2878246713501E-05
(PID.TID 0000.0001) %MON dynstat_wvel_min             =  -1.2010769874736E-04
(PID.TID 0000.0001) %MON dynstat_wvel_mean            =  -2.4994065928904E-10
(PID.TID 0000.0001) %MON dynstat_wvel_sd              =   4.2032455157767E-06
(PID.TID 0000.0001) %MON dynstat_wvel_del2            =   1.8639167581262E-08
(PID.TID 0000.0001) %MON dynstat_theta_max            =  -1.8364995507330E+00
(PID.TID 0000.0001) %MON dynstat_theta_min            =  -2.0000000000000E+00
(PID.TID 0000.0001) %MON dynstat_theta_mean           =  -1.9142907392762E+00
(PID.TID 0000.0001) %MON dynstat_theta_sd             =   3.1084271484799E-02
(PID.TID 0000.0001) %MON dynstat_theta_del2           =   6.3421694822619E-06
(PID.TID 0000.0001) %MON dynstat_salt_max             =   3.4425235078521E+01
(PID.TID 0000.0001) %MON dynstat_salt_min             =   3.4119681589956E+01
(PID.TID 0000.0001) %MON dynstat_salt_mean            =   3.4391243316095E+01
(PID.TID 0000.0001) %MON dynstat_salt_sd              =   2.3889924168882E-02
(PID.TID 0000.0001) %MON dynstat_salt_del2            =   3.3297324617654E-06
(PID.TID 0000.0001) %MON advcfl_uvel_max              =   3.4012427019763E-03
(PID.TID 0000.0001) %MON advcfl_vvel_max              =   6.3691067728586E-03
(PID.TID 0000.0001) %MON advcfl_wvel_max              =   7.2064619248418E-03
(PID.TID 0000.0001) %MON advcfl_W_hf_max              =   7.2064619248418E-03
(PID.TID 0000.0001) %MON pe_b_mean                    =   8.1423589033282E-09
(PID.TID 0000.0001) %MON ke_max                       =   7.7392672876306E-04
(PID.TID 0000.0001) %MON ke_mean                      =   4.4630698962803E-06
(PID.TID 0000.0001) %MON ke_vol                       =   2.9239970672193E+14
(PID.TID 0000.0001) %MON vort_r_min                   =  -2.3549373278644E-06
(PID.TID 0000.0001) %MON vort_r_max                   =   4.2468259247500E-06
(PID.TID 0000.0001) %MON vort_a_mean                  =  -1.4007197040361E-04
(PID.TID 0000.0001) %MON vort_a_sd                    =   1.7881275277953E-06
(PID.TID 0000.0001) %MON vort_p_mean                  =  -1.5023213240562E-04
(PID.TID 0000.0001) %MON vort_p_sd                    =   7.5278512043545E-05
(PID.TID 0000.0001) %MON surfExpan_theta_mean         =  -7.8766161303357E-23
(PID.TID 0000.0001) %MON surfExpan_salt_mean          =  -2.1702042447947E-11
(PID.TID 0000.0001) // =======================================================
(PID.TID 0000.0001) // End MONITOR dynamic field statistics
(PID.TID 0000.0001) // =======================================================
(PID.TID 0000.0001) SOLVE_FOR_PRESSURE: putPmEinXvector =    F
 cg2d: Sum(rhs),rhsMax =   7.02882196890187E-13  5.97860431289981E-02
(PID.TID 0000.0001)      cg2d_init_res =   5.92331127616910E+00
(PID.TID 0000.0001)      cg2d_iters(min,last) =      -1     208
(PID.TID 0000.0001)      cg2d_last_res =   8.67906716520419E-14
(PID.TID 0000.0001) // =======================================================
(PID.TID 0000.0001) // Begin MONITOR dynamic field statistics
(PID.TID 0000.0001) // =======================================================
(PID.TID 0000.0001) %MON time_tsnumber                =                  8641
(PID.TID 0000.0001) %MON time_secondsf                =   1.5553800000000E+07
(PID.TID 0000.0001) %MON dynstat_eta_max              =   1.1277835806489E-02
(PID.TID 0000.0001) %MON dynstat_eta_min              =  -3.3100274749332E-03
(PID.TID 0000.0001) %MON dynstat_eta_mean             =  -2.8003601333175E-16
(PID.TID 0000.0001) %MON dynstat_eta_sd               =   9.7652378576615E-04
(PID.TID 0000.0001) %MON dynstat_eta_del2             =   8.2685609362194E-06
(PID.TID 0000.0001) %MON dynstat_uvel_max             =   6.9546551411593E-03
(PID.TID 0000.0001) %MON dynstat_uvel_min             =  -1.2109505261735E-02
(PID.TID 0000.0001) %MON dynstat_uvel_mean            =   2.5153644200267E-05
(PID.TID 0000.0001) %MON dynstat_uvel_sd              =   1.1686715425638E-03
(PID.TID 0000.0001) %MON dynstat_uvel_del2            =   1.6836980058922E-06
(PID.TID 0000.0001) %MON dynstat_vvel_max             =   3.9571337511667E-02
(PID.TID 0000.0001) %MON dynstat_vvel_min             =  -1.3257547772188E-02
(PID.TID 0000.0001) %MON dynstat_vvel_mean            =   4.6557943794560E-06
(PID.TID 0000.0001) %MON dynstat_vvel_sd              =   2.7773783645128E-03
(PID.TID 0000.0001) %MON dynstat_vvel_del2            =   4.9154622171643E-06
(PID.TID 0000.0001) %MON dynstat_wvel_max             =   4.6556690295145E-05
(PID.TID 0000.0001) %MON dynstat_wvel_min             =  -1.2002081992161E-04
(PID.TID 0000.0001) %MON dynstat_wvel_mean            =   3.8663726072453E-09
(PID.TID 0000.0001) %MON dynstat_wvel_sd              =   4.1001516809161E-06
(PID.TID 0000.0001) %MON dynstat_wvel_del2            =   1.8108872745437E-08
(PID.TID 0000.0001) %MON dynstat_theta_max            =  -1.8769133091242E+00
(PID.TID 0000.0001) %MON dynstat_theta_min            =  -2.0039541683546E+00
(PID.TID 0000.0001) %MON dynstat_theta_mean           =  -1.9143345921837E+00
(PID.TID 0000.0001) %MON dynstat_theta_sd             =   3.1203763049749E-02
(PID.TID 0000.0001) %MON dynstat_theta_del2           =   6.2899768179223E-06
(PID.TID 0000.0001) %MON dynstat_salt_max             =   3.4409203479252E+01
(PID.TID 0000.0001) %MON dynstat_salt_min             =   3.4118328031983E+01
(PID.TID 0000.0001) %MON dynstat_salt_mean            =   3.4391225881708E+01
(PID.TID 0000.0001) %MON dynstat_salt_sd              =   2.3968551148592E-02
(PID.TID 0000.0001) %MON dynstat_salt_del2            =   3.3659908123065E-06
(PID.TID 0000.0001) %MON advcfl_uvel_max              =   3.6031112195961E-03
(PID.TID 0000.0001) %MON advcfl_vvel_max              =   6.4067301921369E-03
(PID.TID 0000.0001) %MON advcfl_wvel_max              =   7.2012491952965E-03
(PID.TID 0000.0001) %MON advcfl_W_hf_max              =   7.2012491952965E-03
(PID.TID 0000.0001) %MON pe_b_mean                    =  -3.5738018353862E-07
(PID.TID 0000.0001) %MON ke_max                       =   7.7643731152919E-04
(PID.TID 0000.0001) %MON ke_mean                      =   4.4808444981482E-06
(PID.TID 0000.0001) %MON ke_vol                       =   2.9239970672193E+14
(PID.TID 0000.0001) %MON vort_r_min                   =  -2.3577016281599E-06
(PID.TID 0000.0001) %MON vort_r_max                   =   4.2945433831566E-06
(PID.TID 0000.0001) %MON vort_a_mean                  =  -1.4007161344052E-04
(PID.TID 0000.0001) %MON vort_a_sd                    =   1.7877722076025E-06
(PID.TID 0000.0001) %MON vort_p_mean                  =  -1.5023174955087E-04
(PID.TID 0000.0001) %MON vort_p_sd                    =   7.5268862837488E-05
(PID.TID 0000.0001) %MON surfExpan_theta_mean         =   2.3879665015629E-11
(PID.TID 0000.0001) %MON surfExpan_salt_mean          =   1.5798585062562E-09
(PID.TID 0000.0001) // =======================================================
(PID.TID 0000.0001) // End MONITOR dynamic field statistics
(PID.TID 0000.0001) // =======================================================
 cg2d: Sum(rhs),rhsMax =   7.18300419144668E-13  5.85500379930131E-02
(PID.TID 0000.0001)      cg2d_init_res =   8.59406209263253E-02
(PID.TID 0000.0001)      cg2d_iters(min,last) =      -1     199
(PID.TID 0000.0001)      cg2d_last_res =   8.08678176506907E-14
(PID.TID 0000.0001) // =======================================================
(PID.TID 0000.0001) // Begin MONITOR dynamic field statistics
(PID.TID 0000.0001) // =======================================================
(PID.TID 0000.0001) %MON time_tsnumber                =                  8642
(PID.TID 0000.0001) %MON time_secondsf                =   1.5555600000000E+07
(PID.TID 0000.0001) %MON dynstat_eta_max              =   1.1444339758809E-02
(PID.TID 0000.0001) %MON dynstat_eta_min              =  -3.5279312369113E-03
(PID.TID 0000.0001) %MON dynstat_eta_mean             =  -2.7994231591884E-16
(PID.TID 0000.0001) %MON dynstat_eta_sd               =   1.0075462827196E-03
(PID.TID 0000.0001) %MON dynstat_eta_del2             =   8.2964527926488E-06
(PID.TID 0000.0001) %MON dynstat_uvel_max             =   6.9392188257129E-03
(PID.TID 0000.0001) %MON dynstat_uvel_min             =  -1.2353291029099E-02
(PID.TID 0000.0001) %MON dynstat_uvel_mean            =   2.5626263215690E-05
(PID.TID 0000.0001) %MON dynstat_uvel_sd              =   1.1759275925711E-03
(PID.TID 0000.0001) %MON dynstat_uvel_del2            =   1.8728059394497E-06
(PID.TID 0000.0001) %MON dynstat_vvel_max             =   3.9897337389382E-02
(PID.TID 0000.0001) %MON dynstat_vvel_min             =  -1.3257668262596E-02
(PID.TID 0000.0001) %MON dynstat_vvel_mean            =   8.2136154425612E-06
(PID.TID 0000.0001) %MON dynstat_vvel_sd              =   2.7838075790225E-03
(PID.TID 0000.0001) %MON dynstat_vvel_del2            =   4.9142747802158E-06
(PID.TID 0000.0001) %MON dynstat_wvel_max             =   4.6590104129272E-05
(PID.TID 0000.0001) %MON dynstat_wvel_min             =  -1.2002520110104E-04
(PID.TID 0000.0001) %MON dynstat_wvel_mean            =   7.1412714219849E-09
(PID.TID 0000.0001) %MON dynstat_wvel_sd              =   4.0323540533852E-06
(PID.TID 0000.0001) %MON dynstat_wvel_del2            =   1.7561325651728E-08
(PID.TID 0000.0001) %MON dynstat_theta_max            =  -1.8819015154312E+00
(PID.TID 0000.0001) %MON dynstat_theta_min            =  -2.0064119520714E+00
(PID.TID 0000.0001) %MON dynstat_theta_mean           =  -1.9143619919946E+00
(PID.TID 0000.0001) %MON dynstat_theta_sd             =   3.1279518105390E-02
(PID.TID 0000.0001) %MON dynstat_theta_del2           =   6.2686449589658E-06
(PID.TID 0000.0001) %MON dynstat_salt_max             =   3.4407234510066E+01
(PID.TID 0000.0001) %MON dynstat_salt_min             =   3.4117526411136E+01
(PID.TID 0000.0001) %MON dynstat_salt_mean            =   3.4391214992890E+01
(PID.TID 0000.0001) %MON dynstat_salt_sd              =   2.4017396845012E-02
(PID.TID 0000.0001) %MON dynstat_salt_del2            =   3.3900009028445E-06
(PID.TID 0000.0001) %MON advcfl_uvel_max              =   3.6756482237579E-03
(PID.TID 0000.0001) %MON advcfl_vvel_max              =   6.4595106486624E-03
(PID.TID 0000.0001) %MON advcfl_wvel_max              =   7.2015120660623E-03
(PID.TID 0000.0001) %MON advcfl_W_hf_max              =   7.2015120660623E-03
(PID.TID 0000.0001) %MON pe_b_mean                    =  -3.3217395914932E-07
(PID.TID 0000.0001) %MON ke_max                       =   7.8679601800480E-04
(PID.TID 0000.0001) %MON ke_mean                      =   4.5068783581824E-06
(PID.TID 0000.0001) %MON ke_vol                       =   2.9239970672193E+14
(PID.TID 0000.0001) %MON vort_r_min                   =  -2.3607307369965E-06
(PID.TID 0000.0001) %MON vort_r_max                   =   4.3430940507064E-06
(PID.TID 0000.0001) %MON vort_a_mean                  =  -1.4007161342161E-04
(PID.TID 0000.0001) %MON vort_a_sd                    =   1.7878698440147E-06
(PID.TID 0000.0001) %MON vort_p_mean                  =  -1.5023175000272E-04
(PID.TID 0000.0001) %MON vort_p_sd                    =   7.5270531833796E-05
(PID.TID 0000.0001) %MON surfExpan_theta_mean         =   5.5855034903382E-11
(PID.TID 0000.0001) %MON surfExpan_salt_mean          =   1.6226595639059E-09
(PID.TID 0000.0001) // =======================================================
(PID.TID 0000.0001) // End MONITOR dynamic field statistics
(PID.TID 0000.0001) // =======================================================
 cg2d: Sum(rhs),rhsMax =   7.17981230025089E-13  5.84748536216084E-02
(PID.TID 0000.0001)      cg2d_init_res =   4.20556922366519E-02
(PID.TID 0000.0001)      cg2d_iters(min,last) =      -1     199
(PID.TID 0000.0001)      cg2d_last_res =   8.43460760177043E-14
(PID.TID 0000.0001) // =======================================================
(PID.TID 0000.0001) // Begin MONITOR dynamic field statistics
(PID.TID 0000.0001) // =======================================================
(PID.TID 0000.0001) %MON time_tsnumber                =                  8643
(PID.TID 0000.0001) %MON time_secondsf                =   1.5557400000000E+07
(PID.TID 0000.0001) %MON dynstat_eta_max              =   1.1518038901506E-02
(PID.TID 0000.0001) %MON dynstat_eta_min              =  -3.6574904199169E-03
(PID.TID 0000.0001) %MON dynstat_eta_mean             =  -2.8015526458454E-16
(PID.TID 0000.0001) %MON dynstat_eta_sd               =   1.0185185818187E-03
(PID.TID 0000.0001) %MON dynstat_eta_del2             =   8.2839070049570E-06
(PID.TID 0000.0001) %MON dynstat_uvel_max             =   6.9300568983494E-03
(PID.TID 0000.0001) %MON dynstat_uvel_min             =  -1.2572105128767E-02
(PID.TID 0000.0001) %MON dynstat_uvel_mean            =   2.7298883315482E-05
(PID.TID 0000.0001) %MON dynstat_uvel_sd              =   1.1854612902869E-03
(PID.TID 0000.0001) %MON dynstat_uvel_del2            =   2.0074586861780E-06
(PID.TID 0000.0001) %MON dynstat_vvel_max             =   4.0246585717504E-02
(PID.TID 0000.0001) %MON dynstat_vvel_min             =  -1.3256707804144E-02
(PID.TID 0000.0001) %MON dynstat_vvel_mean            =   1.1080259333059E-05
(PID.TID 0000.0001) %MON dynstat_vvel_sd              =   2.7902350385134E-03
(PID.TID 0000.0001) %MON dynstat_vvel_del2            =   4.9136515824911E-06
(PID.TID 0000.0001) %MON dynstat_wvel_max             =   4.6997107513834E-05
(PID.TID 0000.0001) %MON dynstat_wvel_min             =  -1.2010413408531E-04
(PID.TID 0000.0001) %MON dynstat_wvel_mean            =   7.8767308138130E-09
(PID.TID 0000.0001) %MON dynstat_wvel_sd              =   4.0040973053579E-06
(PID.TID 0000.0001) %MON dynstat_wvel_del2            =   1.7348479257718E-08
(PID.TID 0000.0001) %MON dynstat_theta_max            =  -1.8848514518904E+00
(PID.TID 0000.0001) %MON dynstat_theta_min            =  -2.0088620611128E+00
(PID.TID 0000.0001) %MON dynstat_theta_mean           =  -1.9143893053293E+00
(PID.TID 0000.0001) %MON dynstat_theta_sd             =   3.1355726794846E-02
(PID.TID 0000.0001) %MON dynstat_theta_del2           =   6.2541431684343E-06
(PID.TID 0000.0001) %MON dynstat_salt_max             =   3.4406075197707E+01
(PID.TID 0000.0001) %MON dynstat_salt_min             =   3.4116726245133E+01
(PID.TID 0000.0001) %MON dynstat_salt_mean            =   3.4391204138412E+01
(PID.TID 0000.0001) %MON dynstat_salt_sd              =   2.4066164796983E-02
(PID.TID 0000.0001) %MON dynstat_salt_del2            =   3.4152353426457E-06
(PID.TID 0000.0001) %MON advcfl_uvel_max              =   3.7407550568181E-03
(PID.TID 0000.0001) %MON advcfl_vvel_max              =   6.5160551060661E-03
(PID.TID 0000.0001) %MON advcfl_wvel_max              =   7.2062480451188E-03
(PID.TID 0000.0001) %MON advcfl_W_hf_max              =   7.2062480451188E-03
(PID.TID 0000.0001) %MON pe_b_mean                    =  -2.8825222200200E-07
(PID.TID 0000.0001) %MON ke_max                       =   7.9919017115301E-04
(PID.TID 0000.0001) %MON ke_mean                      =   4.5356785363240E-06
(PID.TID 0000.0001) %MON ke_vol                       =   2.9239970672193E+14
(PID.TID 0000.0001) %MON vort_r_min                   =  -2.3686646852292E-06
(PID.TID 0000.0001) %MON vort_r_max                   =   4.3834920189760E-06
(PID.TID 0000.0001) %MON vort_a_mean                  =  -1.4007161343275E-04
(PID.TID 0000.0001) %MON vort_a_sd                    =   1.7879400198080E-06
(PID.TID 0000.0001) %MON vort_p_mean                  =  -1.5023175015492E-04
(PID.TID 0000.0001) %MON vort_p_sd                    =   7.5270089105872E-05
(PID.TID 0000.0001) %MON surfExpan_theta_mean         =   8.3651406581111E-11
(PID.TID 0000.0001) %MON surfExpan_salt_mean          =   1.6685383589189E-09
(PID.TID 0000.0001) // =======================================================
(PID.TID 0000.0001) // End MONITOR dynamic field statistics
(PID.TID 0000.0001) // =======================================================
 cg2d: Sum(rhs),rhsMax =   7.13637482441243E-13  5.84592851667499E-02
(PID.TID 0000.0001)      cg2d_init_res =   3.97090251467447E-02
(PID.TID 0000.0001)      cg2d_iters(min,last) =      -1     198
(PID.TID 0000.0001)      cg2d_last_res =   8.69549341640302E-14
(PID.TID 0000.0001) // =======================================================
(PID.TID 0000.0001) // Begin MONITOR dynamic field statistics
(PID.TID 0000.0001) // =======================================================
(PID.TID 0000.0001) %MON time_tsnumber                =                  8644
(PID.TID 0000.0001) %MON time_secondsf                =   1.5559200000000E+07
(PID.TID 0000.0001) %MON dynstat_eta_max              =   1.1489112872723E-02
(PID.TID 0000.0001) %MON dynstat_eta_min              =  -3.6778298948288E-03
(PID.TID 0000.0001) %MON dynstat_eta_mean             =  -2.8012971074465E-16
(PID.TID 0000.0001) %MON dynstat_eta_sd               =   1.0153795485159E-03
(PID.TID 0000.0001) %MON dynstat_eta_del2             =   8.2844886120961E-06
(PID.TID 0000.0001) %MON dynstat_uvel_max             =   6.9284730068332E-03
(PID.TID 0000.0001) %MON dynstat_uvel_min             =  -1.2766103986027E-02
(PID.TID 0000.0001) %MON dynstat_uvel_mean            =   2.8821546056753E-05
(PID.TID 0000.0001) %MON dynstat_uvel_sd              =   1.1973555519375E-03
(PID.TID 0000.0001) %MON dynstat_uvel_del2            =   2.0707392334608E-06
(PID.TID 0000.0001) %MON dynstat_vvel_max             =   4.0590435388991E-02
(PID.TID 0000.0001) %MON dynstat_vvel_min             =  -1.3266722086983E-02
(PID.TID 0000.0001) %MON dynstat_vvel_mean            =   1.3006798457779E-05
(PID.TID 0000.0001) %MON dynstat_vvel_sd              =   2.7961349658707E-03
(PID.TID 0000.0001) %MON dynstat_vvel_del2            =   4.9137809130855E-06
(PID.TID 0000.0001) %MON dynstat_wvel_max             =   4.7436135311727E-05
(PID.TID 0000.0001) %MON dynstat_wvel_min             =  -1.2025051059517E-04
(PID.TID 0000.0001) %MON dynstat_wvel_mean            =   7.3925985282844E-09
(PID.TID 0000.0001) %MON dynstat_wvel_sd              =   4.0054033435540E-06
(PID.TID 0000.0001) %MON dynstat_wvel_del2            =   1.7334105371104E-08
(PID.TID 0000.0001) %MON dynstat_theta_max            =  -1.8867165931644E+00
(PID.TID 0000.0001) %MON dynstat_theta_min            =  -2.0113002748487E+00
(PID.TID 0000.0001) %MON dynstat_theta_mean           =  -1.9144164821864E+00
(PID.TID 0000.0001) %MON dynstat_theta_sd             =   3.1432220823494E-02
(PID.TID 0000.0001) %MON dynstat_theta_del2           =   6.2460841592658E-06
(PID.TID 0000.0001) %MON dynstat_salt_max             =   3.4405346997152E+01
(PID.TID 0000.0001) %MON dynstat_salt_min             =   3.4115931937070E+01
(PID.TID 0000.0001) %MON dynstat_salt_mean            =   3.4391193339070E+01
(PID.TID 0000.0001) %MON dynstat_salt_sd              =   2.4114737702648E-02
(PID.TID 0000.0001) %MON dynstat_salt_del2            =   3.4419460824943E-06
(PID.TID 0000.0001) %MON advcfl_uvel_max              =   3.7984782621906E-03
(PID.TID 0000.0001) %MON advcfl_vvel_max              =   6.5717255031363E-03
(PID.TID 0000.0001) %MON advcfl_wvel_max              =   7.2150306357102E-03
(PID.TID 0000.0001) %MON advcfl_W_hf_max              =   7.2150306357102E-03
(PID.TID 0000.0001) %MON pe_b_mean                    =  -2.3639013736745E-07
(PID.TID 0000.0001) %MON ke_max                       =   8.1243945629385E-04
(PID.TID 0000.0001) %MON ke_mean                      =   4.5659108523003E-06
(PID.TID 0000.0001) %MON ke_vol                       =   2.9239970672193E+14
(PID.TID 0000.0001) %MON vort_r_min                   =  -2.3718982581871E-06
(PID.TID 0000.0001) %MON vort_r_max                   =   4.4163457829225E-06
(PID.TID 0000.0001) %MON vort_a_mean                  =  -1.4007161358434E-04
(PID.TID 0000.0001) %MON vort_a_sd                    =   1.7879757433409E-06
(PID.TID 0000.0001) %MON vort_p_mean                  =  -1.5023175040135E-04
(PID.TID 0000.0001) %MON vort_p_sd                    =   7.5269791155351E-05
(PID.TID 0000.0001) %MON surfExpan_theta_mean         =   9.8993107381922E-11
(PID.TID 0000.0001) %MON surfExpan_salt_mean          =   1.5136634967015E-09
(PID.TID 0000.0001) // =======================================================
(PID.TID 0000.0001) // End MONITOR dynamic field statistics
(PID.TID 0000.0001) // =======================================================
 cg2d: Sum(rhs),rhsMax =   7.21825377247853E-13  5.84076585365079E-02
(PID.TID 0000.0001)      cg2d_init_res =   3.94398138794251E-02
(PID.TID 0000.0001)      cg2d_iters(min,last) =      -1     196
(PID.TID 0000.0001)      cg2d_last_res =   9.09434034971142E-14
(PID.TID 0000.0001) // =======================================================
(PID.TID 0000.0001) // Begin MONITOR dynamic field statistics
(PID.TID 0000.0001) // =======================================================
(PID.TID 0000.0001) %MON time_tsnumber                =                  8645
(PID.TID 0000.0001) %MON time_secondsf                =   1.5561000000000E+07
(PID.TID 0000.0001) %MON dynstat_eta_max              =   1.1390925714680E-02
(PID.TID 0000.0001) %MON dynstat_eta_min              =  -3.6366452747317E-03
(PID.TID 0000.0001) %MON dynstat_eta_mean             =  -2.8014248766460E-16
(PID.TID 0000.0001) %MON dynstat_eta_sd               =   1.0051840862197E-03
(PID.TID 0000.0001) %MON dynstat_eta_del2             =   8.2863358298123E-06
(PID.TID 0000.0001) %MON dynstat_uvel_max             =   6.9343221311465E-03
(PID.TID 0000.0001) %MON dynstat_uvel_min             =  -1.2934467149052E-02
(PID.TID 0000.0001) %MON dynstat_uvel_mean            =   2.9658828062243E-05
(PID.TID 0000.0001) %MON dynstat_uvel_sd              =   1.2108134865860E-03
(PID.TID 0000.0001) %MON dynstat_uvel_del2            =   2.0622343378461E-06
(PID.TID 0000.0001) %MON dynstat_vvel_max             =   4.0932018533216E-02
(PID.TID 0000.0001) %MON dynstat_vvel_min             =  -1.3283098021364E-02
(PID.TID 0000.0001) %MON dynstat_vvel_mean            =   1.3573541945502E-05
(PID.TID 0000.0001) %MON dynstat_vvel_sd              =   2.8012886428615E-03
(PID.TID 0000.0001) %MON dynstat_vvel_del2            =   4.9147009357713E-06
(PID.TID 0000.0001) %MON dynstat_wvel_max             =   4.7911017036380E-05
(PID.TID 0000.0001) %MON dynstat_wvel_min             =  -1.2044618074363E-04
(PID.TID 0000.0001) %MON dynstat_wvel_mean            =   6.1376427478147E-09
(PID.TID 0000.0001) %MON dynstat_wvel_sd              =   4.0313431122542E-06
(PID.TID 0000.0001) %MON dynstat_wvel_del2            =   1.7490216131904E-08
(PID.TID 0000.0001) %MON dynstat_theta_max            =  -1.8880270025938E+00
(PID.TID 0000.0001) %MON dynstat_theta_min            =  -2.0137316456888E+00
(PID.TID 0000.0001) %MON dynstat_theta_mean           =  -1.9144435233832E+00
(PID.TID 0000.0001) %MON dynstat_theta_sd             =   3.1508981501869E-02
(PID.TID 0000.0001) %MON dynstat_theta_del2           =   6.2442635600791E-06
(PID.TID 0000.0001) %MON dynstat_salt_max             =   3.4404839142865E+01
(PID.TID 0000.0001) %MON dynstat_salt_min             =   3.4115143447685E+01
(PID.TID 0000.0001) %MON dynstat_salt_mean            =   3.4391182594217E+01
(PID.TID 0000.0001) %MON dynstat_salt_sd              =   2.4163115073723E-02
(PID.TID 0000.0001) %MON dynstat_salt_del2            =   3.4701162012174E-06
(PID.TID 0000.0001) %MON advcfl_uvel_max              =   3.8485737193170E-03
(PID.TID 0000.0001) %MON advcfl_vvel_max              =   6.6270289419594E-03
(PID.TID 0000.0001) %MON advcfl_wvel_max              =   7.2267708446176E-03
(PID.TID 0000.0001) %MON advcfl_W_hf_max              =   7.2267708446176E-03
(PID.TID 0000.0001) %MON pe_b_mean                    =  -1.8675572481683E-07
(PID.TID 0000.0001) %MON ke_max                       =   8.2587124078904E-04
(PID.TID 0000.0001) %MON ke_mean                      =   4.5960701193353E-06
(PID.TID 0000.0001) %MON ke_vol                       =   2.9239970672193E+14
(PID.TID 0000.0001) %MON vort_r_min                   =  -2.3691783730315E-06
(PID.TID 0000.0001) %MON vort_r_max                   =   4.4410297648603E-06
(PID.TID 0000.0001) %MON vort_a_mean                  =  -1.4007161400072E-04
(PID.TID 0000.0001) %MON vort_a_sd                    =   1.7879791210044E-06
(PID.TID 0000.0001) %MON vort_p_mean                  =  -1.5023175090772E-04
(PID.TID 0000.0001) %MON vort_p_sd                    =   7.5269630546996E-05
(PID.TID 0000.0001) %MON surfExpan_theta_mean         =   9.8972158935372E-11
(PID.TID 0000.0001) %MON surfExpan_salt_mean          =   1.2265776606977E-09
(PID.TID 0000.0001) // =======================================================
(PID.TID 0000.0001) // End MONITOR dynamic field statistics
(PID.TID 0000.0001) // =======================================================
 cg2d: Sum(rhs),rhsMax =   7.18647363839864E-13  5.83786414850351E-02
(PID.TID 0000.0001)      cg2d_init_res =   3.87251387038537E-02
(PID.TID 0000.0001)      cg2d_iters(min,last) =      -1     195
(PID.TID 0000.0001)      cg2d_last_res =   8.46576773246952E-14
(PID.TID 0000.0001) // =======================================================
(PID.TID 0000.0001) // Begin MONITOR dynamic field statistics
(PID.TID 0000.0001) // =======================================================
(PID.TID 0000.0001) %MON time_tsnumber                =                  8646
(PID.TID 0000.0001) %MON time_secondsf                =   1.5562800000000E+07
(PID.TID 0000.0001) %MON dynstat_eta_max              =   1.1278123900901E-02
(PID.TID 0000.0001) %MON dynstat_eta_min              =  -3.5685778687017E-03
(PID.TID 0000.0001) %MON dynstat_eta_mean             =  -2.8028729275727E-16
(PID.TID 0000.0001) %MON dynstat_eta_sd               =   9.9390767897471E-04
(PID.TID 0000.0001) %MON dynstat_eta_del2             =   8.2885253634646E-06
(PID.TID 0000.0001) %MON dynstat_uvel_max             =   6.9469410415511E-03
(PID.TID 0000.0001) %MON dynstat_uvel_min             =  -1.3058706017638E-02
(PID.TID 0000.0001) %MON dynstat_uvel_mean            =   2.9937724546711E-05
(PID.TID 0000.0001) %MON dynstat_uvel_sd              =   1.2250730868765E-03
(PID.TID 0000.0001) %MON dynstat_uvel_del2            =   1.9944878311624E-06
(PID.TID 0000.0001) %MON dynstat_vvel_max             =   4.1240780699660E-02
(PID.TID 0000.0001) %MON dynstat_vvel_min             =  -1.3300941165777E-02
(PID.TID 0000.0001) %MON dynstat_vvel_mean            =   1.2510858959182E-05
(PID.TID 0000.0001) %MON dynstat_vvel_sd              =   2.8056064714128E-03
(PID.TID 0000.0001) %MON dynstat_vvel_del2            =   4.9164542111371E-06
(PID.TID 0000.0001) %MON dynstat_wvel_max             =   4.8399534051962E-05
(PID.TID 0000.0001) %MON dynstat_wvel_min             =  -1.2067016012647E-04
(PID.TID 0000.0001) %MON dynstat_wvel_mean            =   4.5010273750501E-09
(PID.TID 0000.0001) %MON dynstat_wvel_sd              =   4.0782119218582E-06
(PID.TID 0000.0001) %MON dynstat_wvel_del2            =   1.7788333708583E-08
(PID.TID 0000.0001) %MON dynstat_theta_max            =  -1.8889859223273E+00
(PID.TID 0000.0001) %MON dynstat_theta_min            =  -2.0161525010049E+00
(PID.TID 0000.0001) %MON dynstat_theta_mean           =  -1.9144704296195E+00
(PID.TID 0000.0001) %MON dynstat_theta_sd             =   3.1585993019434E-02
(PID.TID 0000.0001) %MON dynstat_theta_del2           =   6.2484509437769E-06
(PID.TID 0000.0001) %MON dynstat_salt_max             =   3.4404470693769E+01
(PID.TID 0000.0001) %MON dynstat_salt_min             =   3.4114359787292E+01
(PID.TID 0000.0001) %MON dynstat_salt_mean            =   3.4391171903240E+01
(PID.TID 0000.0001) %MON dynstat_salt_sd              =   2.4211297584080E-02
(PID.TID 0000.0001) %MON dynstat_salt_del2            =   3.4997008457498E-06
(PID.TID 0000.0001) %MON advcfl_uvel_max              =   3.8855402552440E-03
(PID.TID 0000.0001) %MON advcfl_vvel_max              =   6.6770185561180E-03
(PID.TID 0000.0001) %MON advcfl_wvel_max              =   7.2402096075883E-03
(PID.TID 0000.0001) %MON advcfl_W_hf_max              =   7.2402096075883E-03
(PID.TID 0000.0001) %MON pe_b_mean                    =  -1.4616171993247E-07
(PID.TID 0000.0001) %MON ke_max                       =   8.3885951511232E-04
(PID.TID 0000.0001) %MON ke_mean                      =   4.6250399817381E-06
(PID.TID 0000.0001) %MON ke_vol                       =   2.9239970672193E+14
(PID.TID 0000.0001) %MON vort_r_min                   =  -2.3629255044731E-06
(PID.TID 0000.0001) %MON vort_r_max                   =   4.4574613296610E-06
(PID.TID 0000.0001) %MON vort_a_mean                  =  -1.4007161471755E-04
(PID.TID 0000.0001) %MON vort_a_sd                    =   1.7879600185687E-06
(PID.TID 0000.0001) %MON vort_p_mean                  =  -1.5023175171974E-04
(PID.TID 0000.0001) %MON vort_p_sd                    =   7.5269582385994E-05
(PID.TID 0000.0001) %MON surfExpan_theta_mean         =   8.4732022168854E-11
(PID.TID 0000.0001) %MON surfExpan_salt_mean          =   8.8130363659676E-10
(PID.TID 0000.0001) // =======================================================
(PID.TID 0000.0001) // End MONITOR dynamic field statistics
(PID.TID 0000.0001) // =======================================================
 cg2d: Sum(rhs),rhsMax =   7.18265724675149E-13  5.84373789452836E-02
(PID.TID 0000.0001)      cg2d_init_res =   3.79629417893950E-02
(PID.TID 0000.0001)      cg2d_iters(min,last) =      -1     195
(PID.TID 0000.0001)      cg2d_last_res =   7.19799458969174E-14
(PID.TID 0000.0001) // =======================================================
(PID.TID 0000.0001) // Begin MONITOR dynamic field statistics
(PID.TID 0000.0001) // =======================================================
(PID.TID 0000.0001) %MON time_tsnumber                =                  8647
(PID.TID 0000.0001) %MON time_secondsf                =   1.5564600000000E+07
(PID.TID 0000.0001) %MON dynstat_eta_max              =   1.1187168858388E-02
(PID.TID 0000.0001) %MON dynstat_eta_min              =  -3.4919854809812E-03
(PID.TID 0000.0001) %MON dynstat_eta_mean             =  -2.8026599789070E-16
(PID.TID 0000.0001) %MON dynstat_eta_sd               =   9.8431132568926E-04
(PID.TID 0000.0001) %MON dynstat_eta_del2             =   8.2906338585963E-06
(PID.TID 0000.0001) %MON dynstat_uvel_max             =   6.9653694623591E-03
(PID.TID 0000.0001) %MON dynstat_uvel_min             =  -1.3135072694366E-02
(PID.TID 0000.0001) %MON dynstat_uvel_mean            =   3.0025323852599E-05
(PID.TID 0000.0001) %MON dynstat_uvel_sd              =   1.2395487820312E-03
(PID.TID 0000.0001) %MON dynstat_uvel_del2            =   1.8895151744504E-06
(PID.TID 0000.0001) %MON dynstat_vvel_max             =   4.1502101043751E-02
(PID.TID 0000.0001) %MON dynstat_vvel_min             =  -1.3316307955919E-02
(PID.TID 0000.0001) %MON dynstat_vvel_mean            =   9.9205342187827E-06
(PID.TID 0000.0001) %MON dynstat_vvel_sd              =   2.8090528380027E-03
(PID.TID 0000.0001) %MON dynstat_vvel_del2            =   4.9190743077731E-06
(PID.TID 0000.0001) %MON dynstat_wvel_max             =   4.8861687581261E-05
(PID.TID 0000.0001) %MON dynstat_wvel_min             =  -1.2090365987834E-04
(PID.TID 0000.0001) %MON dynstat_wvel_mean            =   2.7940868164493E-09
(PID.TID 0000.0001) %MON dynstat_wvel_sd              =   4.1430514743728E-06
(PID.TID 0000.0001) %MON dynstat_wvel_del2            =   1.8198260852184E-08
(PID.TID 0000.0001) %MON dynstat_theta_max            =  -1.8896979023253E+00
(PID.TID 0000.0001) %MON dynstat_theta_min            =  -2.0185605390625E+00
(PID.TID 0000.0001) %MON dynstat_theta_mean           =  -1.9144972016328E+00
(PID.TID 0000.0001) %MON dynstat_theta_sd             =   3.1663241018915E-02
(PID.TID 0000.0001) %MON dynstat_theta_del2           =   6.2584233060169E-06
(PID.TID 0000.0001) %MON dynstat_salt_max             =   3.4404199924845E+01
(PID.TID 0000.0001) %MON dynstat_salt_min             =   3.4113580097882E+01
(PID.TID 0000.0001) %MON dynstat_salt_mean            =   3.4391161265596E+01
(PID.TID 0000.0001) %MON dynstat_salt_sd              =   2.4259285781807E-02
(PID.TID 0000.0001) %MON dynstat_salt_del2            =   3.5306386284884E-06
(PID.TID 0000.0001) %MON advcfl_uvel_max              =   3.9082627053997E-03
(PID.TID 0000.0001) %MON advcfl_vvel_max              =   6.7193271826034E-03
(PID.TID 0000.0001) %MON advcfl_wvel_max              =   7.2542195927002E-03
(PID.TID 0000.0001) %MON advcfl_W_hf_max              =   7.2542195927002E-03
(PID.TID 0000.0001) %MON pe_b_mean                    =  -1.1792898574915E-07
(PID.TID 0000.0001) %MON ke_max                       =   8.5077158951052E-04
(PID.TID 0000.0001) %MON ke_mean                      =   4.6520496708023E-06
(PID.TID 0000.0001) %MON ke_vol                       =   2.9239970672193E+14
(PID.TID 0000.0001) %MON vort_r_min                   =  -2.3617256691731E-06
(PID.TID 0000.0001) %MON vort_r_max                   =   4.4657428611289E-06
(PID.TID 0000.0001) %MON vort_a_mean                  =  -1.4007161561739E-04
(PID.TID 0000.0001) %MON vort_a_sd                    =   1.7879315730849E-06
(PID.TID 0000.0001) %MON vort_p_mean                  =  -1.5023175272194E-04
(PID.TID 0000.0001) %MON vort_p_sd                    =   7.5269630868248E-05
(PID.TID 0000.0001) %MON surfExpan_theta_mean         =   5.9957500358511E-11
(PID.TID 0000.0001) %MON surfExpan_salt_mean          =   5.3314837030231E-10
(PID.TID 0000.0001) // =======================================================
(PID.TID 0000.0001) // End MONITOR dynamic field statistics
(PID.TID 0000.0001) // =======================================================
 cg2d: Sum(rhs),rhsMax =   7.18630016605104E-13  5.85078759432232E-02
(PID.TID 0000.0001)      cg2d_init_res =   3.74143841470448E-02
(PID.TID 0000.0001)      cg2d_iters(min,last) =      -1     195
(PID.TID 0000.0001)      cg2d_last_res =   9.03948780974870E-14
(PID.TID 0000.0001) // =======================================================
(PID.TID 0000.0001) // Begin MONITOR dynamic field statistics
(PID.TID 0000.0001) // =======================================================
(PID.TID 0000.0001) %MON time_tsnumber                =                  8648
(PID.TID 0000.0001) %MON time_secondsf                =   1.5566400000000E+07
(PID.TID 0000.0001) %MON dynstat_eta_max              =   1.1121460903497E-02
(PID.TID 0000.0001) %MON dynstat_eta_min              =  -3.4091928551785E-03
(PID.TID 0000.0001) %MON dynstat_eta_mean             =  -2.8031710557046E-16
(PID.TID 0000.0001) %MON dynstat_eta_sd               =   9.7676967686232E-04
(PID.TID 0000.0001) %MON dynstat_eta_del2             =   8.2924354205586E-06
(PID.TID 0000.0001) %MON dynstat_uvel_max             =   6.9883500001643E-03
(PID.TID 0000.0001) %MON dynstat_uvel_min             =  -1.3163363529091E-02
(PID.TID 0000.0001) %MON dynstat_uvel_mean            =   3.0162927693769E-05
(PID.TID 0000.0001) %MON dynstat_uvel_sd              =   1.2538032888194E-03
(PID.TID 0000.0001) %MON dynstat_uvel_del2            =   1.7761343580357E-06
(PID.TID 0000.0001) %MON dynstat_vvel_max             =   4.1704831232354E-02
(PID.TID 0000.0001) %MON dynstat_vvel_min             =  -1.3327190210083E-02
(PID.TID 0000.0001) %MON dynstat_vvel_mean            =   6.2615877829846E-06
(PID.TID 0000.0001) %MON dynstat_vvel_sd              =   2.8116044902731E-03
(PID.TID 0000.0001) %MON dynstat_vvel_del2            =   4.9225636058255E-06
(PID.TID 0000.0001) %MON dynstat_wvel_max             =   4.9261154291723E-05
(PID.TID 0000.0001) %MON dynstat_wvel_min             =  -1.2113180264338E-04
(PID.TID 0000.0001) %MON dynstat_wvel_mean            =   1.2181771530983E-09
(PID.TID 0000.0001) %MON dynstat_wvel_sd              =   4.2228346433770E-06
(PID.TID 0000.0001) %MON dynstat_wvel_del2            =   1.8686558489949E-08
(PID.TID 0000.0001) %MON dynstat_theta_max            =  -1.8902293324181E+00
(PID.TID 0000.0001) %MON dynstat_theta_min            =  -2.0209558622977E+00
(PID.TID 0000.0001) %MON dynstat_theta_mean           =  -1.9145238401675E+00
(PID.TID 0000.0001) %MON dynstat_theta_sd             =   3.1740711985167E-02
(PID.TID 0000.0001) %MON dynstat_theta_del2           =   6.2739584150568E-06
(PID.TID 0000.0001) %MON dynstat_salt_max             =   3.4404000282546E+01
(PID.TID 0000.0001) %MON dynstat_salt_min             =   3.4112803744314E+01
(PID.TID 0000.0001) %MON dynstat_salt_mean            =   3.4391150680843E+01
(PID.TID 0000.0001) %MON dynstat_salt_sd              =   2.4307079937738E-02
(PID.TID 0000.0001) %MON dynstat_salt_del2            =   3.5628638354525E-06
(PID.TID 0000.0001) %MON advcfl_uvel_max              =   3.9166804748962E-03
(PID.TID 0000.0001) %MON advcfl_vvel_max              =   6.7521498694735E-03
(PID.TID 0000.0001) %MON advcfl_wvel_max              =   7.2679081586029E-03
(PID.TID 0000.0001) %MON advcfl_W_hf_max              =   7.2679081586029E-03
(PID.TID 0000.0001) %MON pe_b_mean                    =  -1.0275671421029E-07
(PID.TID 0000.0001) %MON ke_max                       =   8.6100413133025E-04
(PID.TID 0000.0001) %MON ke_mean                      =   4.6765192148485E-06
(PID.TID 0000.0001) %MON ke_vol                       =   2.9239970672193E+14
(PID.TID 0000.0001) %MON vort_r_min                   =  -2.3601591984558E-06
(PID.TID 0000.0001) %MON vort_r_max                   =   4.4661783945986E-06
(PID.TID 0000.0001) %MON vort_a_mean                  =  -1.4007161645712E-04
(PID.TID 0000.0001) %MON vort_a_sd                    =   1.7879061440185E-06
(PID.TID 0000.0001) %MON vort_p_mean                  =  -1.5023175366005E-04
(PID.TID 0000.0001) %MON vort_p_sd                    =   7.5269753473743E-05
(PID.TID 0000.0001) %MON surfExpan_theta_mean         =   2.9027529399574E-11
(PID.TID 0000.0001) %MON surfExpan_salt_mean          =   2.1600644875360E-10
(PID.TID 0000.0001) // =======================================================
(PID.TID 0000.0001) // End MONITOR dynamic field statistics
(PID.TID 0000.0001) // =======================================================
 cg2d: Sum(rhs),rhsMax =   7.15132814077535E-13  5.85905784352685E-02
(PID.TID 0000.0001)      cg2d_init_res =   3.71204761086218E-02
(PID.TID 0000.0001)      cg2d_iters(min,last) =      -1     195
(PID.TID 0000.0001)      cg2d_last_res =   8.33793232727882E-14
(PID.TID 0000.0001) // =======================================================
(PID.TID 0000.0001) // Begin MONITOR dynamic field statistics
(PID.TID 0000.0001) // =======================================================
(PID.TID 0000.0001) %MON time_tsnumber                =                  8649
(PID.TID 0000.0001) %MON time_secondsf                =   1.5568200000000E+07
(PID.TID 0000.0001) %MON dynstat_eta_max              =   1.1078135741268E-02
(PID.TID 0000.0001) %MON dynstat_eta_min              =  -3.3172725968593E-03
(PID.TID 0000.0001) %MON dynstat_eta_mean             =  -2.8001897743849E-16
(PID.TID 0000.0001) %MON dynstat_eta_sd               =   9.7066702880288E-04
(PID.TID 0000.0001) %MON dynstat_eta_del2             =   8.2938811429661E-06
(PID.TID 0000.0001) %MON dynstat_uvel_max             =   7.0143595033176E-03
(PID.TID 0000.0001) %MON dynstat_uvel_min             =  -1.3147355179870E-02
(PID.TID 0000.0001) %MON dynstat_uvel_mean            =   3.0362286235163E-05
(PID.TID 0000.0001) %MON dynstat_uvel_sd              =   1.2674323605381E-03
(PID.TID 0000.0001) %MON dynstat_uvel_del2            =   1.6852041167739E-06
(PID.TID 0000.0001) %MON dynstat_vvel_max             =   4.1841387178192E-02
(PID.TID 0000.0001) %MON dynstat_vvel_min             =  -1.3333150691502E-02
(PID.TID 0000.0001) %MON dynstat_vvel_mean            =   2.1731705562859E-06
(PID.TID 0000.0001) %MON dynstat_vvel_sd              =   2.8132644389890E-03
(PID.TID 0000.0001) %MON dynstat_vvel_del2            =   4.9268630577590E-06
(PID.TID 0000.0001) %MON dynstat_wvel_max             =   4.9573865105401E-05
(PID.TID 0000.0001) %MON dynstat_wvel_min             =  -1.2134249394626E-04
(PID.TID 0000.0001) %MON dynstat_wvel_mean            =  -1.4123256067499E-10
(PID.TID 0000.0001) %MON dynstat_wvel_sd              =   4.3136671237452E-06
(PID.TID 0000.0001) %MON dynstat_wvel_del2            =   1.9216603800143E-08
(PID.TID 0000.0001) %MON dynstat_theta_max            =  -1.8906269798526E+00
(PID.TID 0000.0001) %MON dynstat_theta_min            =  -2.0233385975275E+00
(PID.TID 0000.0001) %MON dynstat_theta_mean           =  -1.9145503459502E+00
(PID.TID 0000.0001) %MON dynstat_theta_sd             =   3.1818392921092E-02
(PID.TID 0000.0001) %MON dynstat_theta_del2           =   6.2948380669567E-06
(PID.TID 0000.0001) %MON dynstat_salt_max             =   3.4403853029206E+01
(PID.TID 0000.0001) %MON dynstat_salt_min             =   3.4112030224540E+01
(PID.TID 0000.0001) %MON dynstat_salt_mean            =   3.4391140148638E+01
(PID.TID 0000.0001) %MON dynstat_salt_sd              =   2.4354679998647E-02
(PID.TID 0000.0001) %MON dynstat_salt_del2            =   3.5963026599068E-06
(PID.TID 0000.0001) %MON advcfl_uvel_max              =   3.9119172858609E-03
(PID.TID 0000.0001) %MON advcfl_vvel_max              =   6.7742587279588E-03
(PID.TID 0000.0001) %MON advcfl_wvel_max              =   7.2805496367756E-03
(PID.TID 0000.0001) %MON advcfl_W_hf_max              =   7.2805496367756E-03
(PID.TID 0000.0001) %MON pe_b_mean                    =  -9.9749295342416E-08
(PID.TID 0000.0001) %MON ke_max                       =   8.6904868959111E-04
(PID.TID 0000.0001) %MON ke_mean                      =   4.6979521030349E-06
(PID.TID 0000.0001) %MON ke_vol                       =   2.9239970672193E+14
(PID.TID 0000.0001) %MON vort_r_min                   =  -2.3585076600737E-06
(PID.TID 0000.0001) %MON vort_r_max                   =   4.4593994235392E-06
(PID.TID 0000.0001) %MON vort_a_mean                  =  -1.4007161696862E-04
(PID.TID 0000.0001) %MON vort_a_sd                    =   1.7878927298199E-06
(PID.TID 0000.0001) %MON vort_p_mean                  =  -1.5023175424956E-04
(PID.TID 0000.0001) %MON vort_p_sd                    =   7.5269920121658E-05
(PID.TID 0000.0001) %MON surfExpan_theta_mean         =  -4.6436309548221E-12
(PID.TID 0000.0001) %MON surfExpan_salt_mean          =  -5.7059827459158E-11
(PID.TID 0000.0001) // =======================================================
(PID.TID 0000.0001) // End MONITOR dynamic field statistics
(PID.TID 0000.0001) // =======================================================
 cg2d: Sum(rhs),rhsMax =   7.13203801572249E-13  5.86837208914741E-02
(PID.TID 0000.0001)      cg2d_init_res =   3.70309412528722E-02
(PID.TID 0000.0001)      cg2d_iters(min,last) =      -1     193
(PID.TID 0000.0001)      cg2d_last_res =   8.20968090637152E-14
(PID.TID 0000.0001) // =======================================================
(PID.TID 0000.0001) // Begin MONITOR dynamic field statistics
(PID.TID 0000.0001) // =======================================================
(PID.TID 0000.0001) %MON time_tsnumber                =                  8650
(PID.TID 0000.0001) %MON time_secondsf                =   1.5570000000000E+07
(PID.TID 0000.0001) %MON dynstat_eta_max              =   1.1052268129525E-02
(PID.TID 0000.0001) %MON dynstat_eta_min              =  -3.3283409970510E-03
(PID.TID 0000.0001) %MON dynstat_eta_mean             =  -2.8009244472816E-16
(PID.TID 0000.0001) %MON dynstat_eta_sd               =   9.6546620207508E-04
(PID.TID 0000.0001) %MON dynstat_eta_del2             =   8.2949971604438E-06
(PID.TID 0000.0001) %MON dynstat_uvel_max             =   7.0417214226882E-03
(PID.TID 0000.0001) %MON dynstat_uvel_min             =  -1.3094180064279E-02
(PID.TID 0000.0001) %MON dynstat_uvel_mean            =   3.0502093911196E-05
(PID.TID 0000.0001) %MON dynstat_uvel_sd              =   1.2799530647366E-03
(PID.TID 0000.0001) %MON dynstat_uvel_del2            =   1.6410444548809E-06
(PID.TID 0000.0001) %MON dynstat_vvel_max             =   4.1908784120103E-02
(PID.TID 0000.0001) %MON dynstat_vvel_min             =  -1.3334639566834E-02
(PID.TID 0000.0001) %MON dynstat_vvel_mean            =  -1.7272051258070E-06
(PID.TID 0000.0001) %MON dynstat_vvel_sd              =   2.8140891683075E-03
(PID.TID 0000.0001) %MON dynstat_vvel_del2            =   4.9318290664011E-06
(PID.TID 0000.0001) %MON dynstat_wvel_max             =   4.9955861071763E-05
(PID.TID 0000.0001) %MON dynstat_wvel_min             =  -1.2152535048574E-04
(PID.TID 0000.0001) %MON dynstat_wvel_mean            =  -1.2797948960189E-09
(PID.TID 0000.0001) %MON dynstat_wvel_sd              =   4.4103678705577E-06
(PID.TID 0000.0001) %MON dynstat_wvel_del2            =   1.9750185834994E-08
(PID.TID 0000.0001) %MON dynstat_theta_max            =  -1.8909251371308E+00
(PID.TID 0000.0001) %MON dynstat_theta_min            =  -2.0257088924508E+00
(PID.TID 0000.0001) %MON dynstat_theta_mean           =  -1.9145767196971E+00
(PID.TID 0000.0001) %MON dynstat_theta_sd             =   3.1896271240724E-02
(PID.TID 0000.0001) %MON dynstat_theta_del2           =   6.3208479783314E-06
(PID.TID 0000.0001) %MON dynstat_salt_max             =   3.4403744418551E+01
(PID.TID 0000.0001) %MON dynstat_salt_min             =   3.4111259146911E+01
(PID.TID 0000.0001) %MON dynstat_salt_mean            =   3.4391129668706E+01
(PID.TID 0000.0001) %MON dynstat_salt_sd              =   2.4402085701157E-02
(PID.TID 0000.0001) %MON dynstat_salt_del2            =   3.6308739726846E-06
(PID.TID 0000.0001) %MON advcfl_uvel_max              =   3.8960953466942E-03
(PID.TID 0000.0001) %MON advcfl_vvel_max              =   6.7851705153724E-03
(PID.TID 0000.0001) %MON advcfl_wvel_max              =   7.2915210291445E-03
(PID.TID 0000.0001) %MON advcfl_W_hf_max              =   7.2915210291445E-03
(PID.TID 0000.0001) %MON pe_b_mean                    =  -1.0722489498998E-07
(PID.TID 0000.0001) %MON ke_max                       =   8.7454809625820E-04
(PID.TID 0000.0001) %MON ke_mean                      =   4.7158707156463E-06
(PID.TID 0000.0001) %MON ke_vol                       =   2.9239970672193E+14
(PID.TID 0000.0001) %MON vort_r_min                   =  -2.3570829087071E-06
(PID.TID 0000.0001) %MON vort_r_max                   =   4.4466594787197E-06
(PID.TID 0000.0001) %MON vort_a_mean                  =  -1.4007161696986E-04
(PID.TID 0000.0001) %MON vort_a_sd                    =   1.7878959084742E-06
(PID.TID 0000.0001) %MON vort_p_mean                  =  -1.5023175427608E-04
(PID.TID 0000.0001) %MON vort_p_sd                    =   7.5270098680460E-05
(PID.TID 0000.0001) %MON surfExpan_theta_mean         =  -3.9156621439928E-11
(PID.TID 0000.0001) %MON surfExpan_salt_mean          =  -2.8729566043580E-10
(PID.TID 0000.0001) // =======================================================
(PID.TID 0000.0001) // End MONITOR dynamic field statistics
(PID.TID 0000.0001) // =======================================================
(PID.TID 0000.0001) %CHECKPOINT      8650 ckptA
 --> objf_shelfice(bi,bj) =  0.000000000000000D+00
 --> objf_shifwflx(bi,bj) =  0.000000000000000D+00
 --> objf_shelfice(bi,bj) =  0.000000000000000D+00
 --> objf_shifwflx(bi,bj) =  0.000000000000000D+00
 --> objf_shelfice(bi,bj) =  0.000000000000000D+00
 --> objf_shifwflx(bi,bj) =  0.000000000000000D+00
 --> objf_shelfice(bi,bj) =  0.000000000000000D+00
 --> objf_shifwflx(bi,bj) =  0.000000000000000D+00
 --> objf_shelfice(bi,bj) =  0.000000000000000D+00
 --> objf_shifwflx(bi,bj) =  0.000000000000000D+00
 --> objf_shelfice(bi,bj) =  0.000000000000000D+00
 --> objf_shifwflx(bi,bj) =  0.000000000000000D+00
 --> objf_shelfice(bi,bj) =  0.000000000000000D+00
 --> objf_shifwflx(bi,bj) =  0.000000000000000D+00
 --> objf_shelfice(bi,bj) =  0.000000000000000D+00
 --> objf_shifwflx(bi,bj) =  0.000000000000000D+00
  early fc =  0.000000000000000D+00
 --> objf_test(bi,bj)   =  0.272840633412649D+05
 --> objf_tracer(bi,bj) =  0.000000000000000D+00
 --> objf_atl(bi,bj)    =  0.000000000000000D+00
 --> objf_test(bi,bj)   =  0.281197589062101D+05
 --> objf_tracer(bi,bj) =  0.000000000000000D+00
 --> objf_atl(bi,bj)    =  0.000000000000000D+00
 --> objf_test(bi,bj)   =  0.489493071403130D+05
 --> objf_tracer(bi,bj) =  0.000000000000000D+00
 --> objf_atl(bi,bj)    =  0.000000000000000D+00
 --> objf_test(bi,bj)   =  0.505807692761820D+05
 --> objf_tracer(bi,bj) =  0.000000000000000D+00
 --> objf_atl(bi,bj)    =  0.000000000000000D+00
 --> objf_test(bi,bj)   =  0.526422691371090D+05
 --> objf_tracer(bi,bj) =  0.000000000000000D+00
 --> objf_atl(bi,bj)    =  0.000000000000000D+00
 --> objf_test(bi,bj)   =  0.548339856203990D+05
 --> objf_tracer(bi,bj) =  0.000000000000000D+00
 --> objf_atl(bi,bj)    =  0.000000000000000D+00
 --> objf_test(bi,bj)   =  0.526403855388242D+05
 --> objf_tracer(bi,bj) =  0.000000000000000D+00
 --> objf_atl(bi,bj)    =  0.000000000000000D+00
 --> objf_test(bi,bj)   =  0.548337349888587D+05
 --> objf_tracer(bi,bj) =  0.000000000000000D+00
 --> objf_atl(bi,bj)    =  0.000000000000000D+00
  local fc =  0.369884273949161D+06
 global fc =  0.369884273949161D+06
(PID.TID 0000.0001) SOLVE_FOR_PRESSURE: putPmEinXvector =    F
 cg2d: Sum(rhs),rhsMax =   7.02882196890187E-13  5.97860431289981E-02
 cg2d: Sum(rhs),rhsMax =   7.18300419144668E-13  5.85500379930131E-02
 cg2d: Sum(rhs),rhsMax =   7.17981230025089E-13  5.84748536216084E-02
 cg2d: Sum(rhs),rhsMax =   7.13637482441243E-13  5.84592851667499E-02
 cg2d: Sum(rhs),rhsMax =   7.21825377247853E-13  5.84076585365079E-02
 cg2d: Sum(rhs),rhsMax =   7.18647363839864E-13  5.83786414850351E-02
 cg2d: Sum(rhs),rhsMax =   7.18265724675149E-13  5.84373789452836E-02
 cg2d: Sum(rhs),rhsMax =   7.18630016605104E-13  5.85078759432232E-02
 cg2d: Sum(rhs),rhsMax =   7.15132814077535E-13  5.85905784352685E-02
 cg2d: Sum(rhs),rhsMax =   7.13203801572249E-13  5.86837208914741E-02
(PID.TID 0000.0001) Did not write pickup because writePickupAtEnd = FALSE
 cg2d: Sum(rhs),rhsMax =   7.15132814077535E-13  5.85905784352685E-02
 cg2d: Sum(rhs),rhsMax =   7.13203801572249E-13  5.86837208914741E-02
(PID.TID 0000.0001) Did not write pickup because writePickupAtEnd = FALSE
(PID.TID 0000.0001) Did not write pickup because writePickupAtEnd = FALSE
(PID.TID 0000.0001) // =======================================================
(PID.TID 0000.0001) // Begin MONITOR dynamic field statistics
(PID.TID 0000.0001) // =======================================================
(PID.TID 0000.0001) %MON ad_time_tsnumber             =                  8650
(PID.TID 0000.0001) %MON ad_time_secondsf             =   1.5570000000000E+07
(PID.TID 0000.0001) %MON ad_dynstat_adeta_max         =   0.0000000000000E+00
(PID.TID 0000.0001) %MON ad_dynstat_adeta_min         =   0.0000000000000E+00
(PID.TID 0000.0001) %MON ad_dynstat_adeta_mean        =   0.0000000000000E+00
(PID.TID 0000.0001) %MON ad_dynstat_adeta_sd          =   0.0000000000000E+00
(PID.TID 0000.0001) %MON ad_dynstat_adeta_del2        =   0.0000000000000E+00
(PID.TID 0000.0001) %MON ad_dynstat_aduvel_max        =   0.0000000000000E+00
(PID.TID 0000.0001) %MON ad_dynstat_aduvel_min        =   0.0000000000000E+00
(PID.TID 0000.0001) %MON ad_dynstat_aduvel_mean       =   0.0000000000000E+00
(PID.TID 0000.0001) %MON ad_dynstat_aduvel_sd         =   0.0000000000000E+00
(PID.TID 0000.0001) %MON ad_dynstat_aduvel_del2       =   0.0000000000000E+00
(PID.TID 0000.0001) %MON ad_dynstat_advvel_max        =   0.0000000000000E+00
(PID.TID 0000.0001) %MON ad_dynstat_advvel_min        =   0.0000000000000E+00
(PID.TID 0000.0001) %MON ad_dynstat_advvel_mean       =   0.0000000000000E+00
(PID.TID 0000.0001) %MON ad_dynstat_advvel_sd         =   0.0000000000000E+00
(PID.TID 0000.0001) %MON ad_dynstat_advvel_del2       =   0.0000000000000E+00
(PID.TID 0000.0001) %MON ad_dynstat_adwvel_max        =   0.0000000000000E+00
(PID.TID 0000.0001) %MON ad_dynstat_adwvel_min        =   0.0000000000000E+00
(PID.TID 0000.0001) %MON ad_dynstat_adwvel_mean       =   0.0000000000000E+00
(PID.TID 0000.0001) %MON ad_dynstat_adwvel_sd         =   0.0000000000000E+00
(PID.TID 0000.0001) %MON ad_dynstat_adwvel_del2       =   0.0000000000000E+00
(PID.TID 0000.0001) %MON ad_dynstat_adtheta_max       =  -3.7818502742616E+00
(PID.TID 0000.0001) %MON ad_dynstat_adtheta_min       =  -4.0514177849017E+00
(PID.TID 0000.0001) %MON ad_dynstat_adtheta_mean      =  -3.8291534393941E+00
(PID.TID 0000.0001) %MON ad_dynstat_adtheta_sd        =   6.3792542481449E-02
(PID.TID 0000.0001) %MON ad_dynstat_adtheta_del2      =   3.9062031004289E-03
(PID.TID 0000.0001) %MON ad_dynstat_adsalt_max        =   0.0000000000000E+00
(PID.TID 0000.0001) %MON ad_dynstat_adsalt_min        =   0.0000000000000E+00
(PID.TID 0000.0001) %MON ad_dynstat_adsalt_mean       =   0.0000000000000E+00
(PID.TID 0000.0001) %MON ad_dynstat_adsalt_sd         =   0.0000000000000E+00
(PID.TID 0000.0001) %MON ad_dynstat_adsalt_del2       =   0.0000000000000E+00
(PID.TID 0000.0001) // =======================================================
(PID.TID 0000.0001) // End MONITOR dynamic field statistics
(PID.TID 0000.0001) // =======================================================
 cg2d: Sum(rhs),rhsMax =  -8.39328606616618E-14  5.90320635228411E-05
(PID.TID 0000.0001) // =======================================================
(PID.TID 0000.0001) // Begin MONITOR dynamic field statistics
(PID.TID 0000.0001) // =======================================================
(PID.TID 0000.0001) %MON ad_time_tsnumber             =                  8649
(PID.TID 0000.0001) %MON ad_time_secondsf             =   1.5568200000000E+07
(PID.TID 0000.0001) %MON ad_dynstat_adeta_max         =   1.5174783501544E-02
(PID.TID 0000.0001) %MON ad_dynstat_adeta_min         =  -2.1537347661903E-02
(PID.TID 0000.0001) %MON ad_dynstat_adeta_mean        =  -2.0252263263599E-07
(PID.TID 0000.0001) %MON ad_dynstat_adeta_sd          =   2.3537643191995E-03
(PID.TID 0000.0001) %MON ad_dynstat_adeta_del2        =   3.6611632651812E-05
(PID.TID 0000.0001) %MON ad_dynstat_aduvel_max        =   4.4126312524754E-04
(PID.TID 0000.0001) %MON ad_dynstat_aduvel_min        =  -6.5878199145013E-04
(PID.TID 0000.0001) %MON ad_dynstat_aduvel_mean       =  -1.3997474205904E-06
(PID.TID 0000.0001) %MON ad_dynstat_aduvel_sd         =   9.1532145485173E-06
(PID.TID 0000.0001) %MON ad_dynstat_aduvel_del2       =   3.5754598463311E-08
(PID.TID 0000.0001) %MON ad_dynstat_advvel_max        =   1.5061048355233E-03
(PID.TID 0000.0001) %MON ad_dynstat_advvel_min        =  -2.0953674989348E-03
(PID.TID 0000.0001) %MON ad_dynstat_advvel_mean       =   5.4980499872617E-04
(PID.TID 0000.0001) %MON ad_dynstat_advvel_sd         =   3.4926783876728E-04
(PID.TID 0000.0001) %MON ad_dynstat_advvel_del2       =   9.3571342328528E-07
(PID.TID 0000.0001) %MON ad_dynstat_adwvel_max        =   7.8360180272441E-04
(PID.TID 0000.0001) %MON ad_dynstat_adwvel_min        =  -1.0941176417060E-03
(PID.TID 0000.0001) %MON ad_dynstat_adwvel_mean       =  -1.3787448857548E-06
(PID.TID 0000.0001) %MON ad_dynstat_adwvel_sd         =   1.6827414630675E-05
(PID.TID 0000.0001) %MON ad_dynstat_adwvel_del2       =   8.5462077617305E-08
(PID.TID 0000.0001) %MON ad_dynstat_adtheta_max       =  -3.7826843357203E+00
(PID.TID 0000.0001) %MON ad_dynstat_adtheta_min       =  -4.0347949880365E+00
(PID.TID 0000.0001) %MON ad_dynstat_adtheta_mean      =  -3.8268695618244E+00
(PID.TID 0000.0001) %MON ad_dynstat_adtheta_sd        =   5.7713359690253E-02
(PID.TID 0000.0001) %MON ad_dynstat_adtheta_del2      =   3.9032676892890E-03
(PID.TID 0000.0001) %MON ad_dynstat_adsalt_max        =   3.9147664997301E-03
(PID.TID 0000.0001) %MON ad_dynstat_adsalt_min        =  -3.7424460800732E-04
(PID.TID 0000.0001) %MON ad_dynstat_adsalt_mean       =   1.2888544957628E-04
(PID.TID 0000.0001) %MON ad_dynstat_adsalt_sd         =   5.3998913948973E-04
(PID.TID 0000.0001) %MON ad_dynstat_adsalt_del2       =   1.0893117134248E-06
(PID.TID 0000.0001) // =======================================================
(PID.TID 0000.0001) // End MONITOR dynamic field statistics
(PID.TID 0000.0001) // =======================================================
 cg2d: Sum(rhs),rhsMax =  -3.05311331771918E-16  7.54610000260411E-04
 cg2d: Sum(rhs),rhsMax =   7.18265724675149E-13  5.84373789452836E-02
 cg2d: Sum(rhs),rhsMax =   7.18630016605104E-13  5.85078759432232E-02
(PID.TID 0000.0001) // =======================================================
(PID.TID 0000.0001) // Begin MONITOR dynamic field statistics
(PID.TID 0000.0001) // =======================================================
(PID.TID 0000.0001) %MON ad_time_tsnumber             =                  8648
(PID.TID 0000.0001) %MON ad_time_secondsf             =   1.5566400000000E+07
(PID.TID 0000.0001) %MON ad_dynstat_adeta_max         =   2.4396780316423E-02
(PID.TID 0000.0001) %MON ad_dynstat_adeta_min         =  -3.8841669602971E-02
(PID.TID 0000.0001) %MON ad_dynstat_adeta_mean        =  -1.3169047118049E-05
(PID.TID 0000.0001) %MON ad_dynstat_adeta_sd          =   4.3708618836309E-03
(PID.TID 0000.0001) %MON ad_dynstat_adeta_del2        =   6.7436268120150E-05
(PID.TID 0000.0001) %MON ad_dynstat_aduvel_max        =   5.0950207067015E-04
(PID.TID 0000.0001) %MON ad_dynstat_aduvel_min        =  -9.8405196196580E-04
(PID.TID 0000.0001) %MON ad_dynstat_aduvel_mean       =  -1.3012983655063E-04
(PID.TID 0000.0001) %MON ad_dynstat_aduvel_sd         =   7.3847961955400E-05
(PID.TID 0000.0001) %MON ad_dynstat_aduvel_del2       =   1.6641797415158E-07
(PID.TID 0000.0001) %MON ad_dynstat_advvel_max        =   1.6752983838117E-03
(PID.TID 0000.0001) %MON ad_dynstat_advvel_min        =  -3.2502972813605E-03
(PID.TID 0000.0001) %MON ad_dynstat_advvel_mean       =   6.4891241527776E-04
(PID.TID 0000.0001) %MON ad_dynstat_advvel_sd         =   4.3446208927773E-04
(PID.TID 0000.0001) %MON ad_dynstat_advvel_del2       =   1.1697267849870E-06
(PID.TID 0000.0001) %MON ad_dynstat_adwvel_max        =   6.7969737591452E-04
(PID.TID 0000.0001) %MON ad_dynstat_adwvel_min        =  -1.1513353431183E-03
(PID.TID 0000.0001) %MON ad_dynstat_adwvel_mean       =  -1.6679310902334E-06
(PID.TID 0000.0001) %MON ad_dynstat_adwvel_sd         =   1.7838571078842E-05
(PID.TID 0000.0001) %MON ad_dynstat_adwvel_del2       =   1.3541208252238E-07
(PID.TID 0000.0001) %MON ad_dynstat_adtheta_max       =  -3.7831816999077E+00
(PID.TID 0000.0001) %MON ad_dynstat_adtheta_min       =  -4.0250627759464E+00
(PID.TID 0000.0001) %MON ad_dynstat_adtheta_mean      =  -3.8254695495601E+00
(PID.TID 0000.0001) %MON ad_dynstat_adtheta_sd        =   5.4400301749784E-02
(PID.TID 0000.0001) %MON ad_dynstat_adtheta_del2      =   3.9014932160183E-03
(PID.TID 0000.0001) %MON ad_dynstat_adsalt_max        =   6.2726827375184E-03
(PID.TID 0000.0001) %MON ad_dynstat_adsalt_min        =  -6.6378058014217E-04
(PID.TID 0000.0001) %MON ad_dynstat_adsalt_mean       =   2.0509025209811E-04
(PID.TID 0000.0001) %MON ad_dynstat_adsalt_sd         =   8.7389562128530E-04
(PID.TID 0000.0001) %MON ad_dynstat_adsalt_del2       =   1.7536644933281E-06
(PID.TID 0000.0001) // =======================================================
(PID.TID 0000.0001) // End MONITOR dynamic field statistics
(PID.TID 0000.0001) // =======================================================
 cg2d: Sum(rhs),rhsMax =  -2.23432383705813E-15  1.37924385920174E-03
(PID.TID 0000.0001) // =======================================================
(PID.TID 0000.0001) // Begin MONITOR dynamic field statistics
(PID.TID 0000.0001) // =======================================================
(PID.TID 0000.0001) %MON ad_time_tsnumber             =                  8647
(PID.TID 0000.0001) %MON ad_time_secondsf             =   1.5564600000000E+07
(PID.TID 0000.0001) %MON ad_dynstat_adeta_max         =   3.3284120091136E-02
(PID.TID 0000.0001) %MON ad_dynstat_adeta_min         =  -5.3793934577331E-02
(PID.TID 0000.0001) %MON ad_dynstat_adeta_mean        =  -4.1017516874126E-05
(PID.TID 0000.0001) %MON ad_dynstat_adeta_sd          =   6.0476397298011E-03
(PID.TID 0000.0001) %MON ad_dynstat_adeta_del2        =   9.2567162735372E-05
(PID.TID 0000.0001) %MON ad_dynstat_aduvel_max        =   6.2224046621005E-04
(PID.TID 0000.0001) %MON ad_dynstat_aduvel_min        =  -1.1686637165574E-03
(PID.TID 0000.0001) %MON ad_dynstat_aduvel_mean       =  -3.2309490527265E-04
(PID.TID 0000.0001) %MON ad_dynstat_aduvel_sd         =   1.4740579361876E-04
(PID.TID 0000.0001) %MON ad_dynstat_aduvel_del2       =   3.9941956803090E-07
(PID.TID 0000.0001) %MON ad_dynstat_advvel_max        =   1.5689743219707E-03
(PID.TID 0000.0001) %MON ad_dynstat_advvel_min        =  -3.9478688592143E-03
(PID.TID 0000.0001) %MON ad_dynstat_advvel_mean       =   5.8403979596488E-04
(PID.TID 0000.0001) %MON ad_dynstat_advvel_sd         =   4.4599500019400E-04
(PID.TID 0000.0001) %MON ad_dynstat_advvel_del2       =   1.1619220234186E-06
(PID.TID 0000.0001) %MON ad_dynstat_adwvel_max        =   6.3921723707132E-04
(PID.TID 0000.0001) %MON ad_dynstat_adwvel_min        =  -1.4139207468837E-03
(PID.TID 0000.0001) %MON ad_dynstat_adwvel_mean       =  -3.1675414797008E-06
(PID.TID 0000.0001) %MON ad_dynstat_adwvel_sd         =   2.8308149843080E-05
(PID.TID 0000.0001) %MON ad_dynstat_adwvel_del2       =   2.3165471380283E-07
(PID.TID 0000.0001) %MON ad_dynstat_adtheta_max       =  -3.7834189360838E+00
(PID.TID 0000.0001) %MON ad_dynstat_adtheta_min       =  -4.0153381744749E+00
(PID.TID 0000.0001) %MON ad_dynstat_adtheta_mean      =  -3.8240739300075E+00
(PID.TID 0000.0001) %MON ad_dynstat_adtheta_sd        =   5.1484232624932E-02
(PID.TID 0000.0001) %MON ad_dynstat_adtheta_del2      =   3.8997496363994E-03
(PID.TID 0000.0001) %MON ad_dynstat_adsalt_max        =   8.6684299881442E-03
(PID.TID 0000.0001) %MON ad_dynstat_adsalt_min        =  -9.3466385743789E-04
(PID.TID 0000.0001) %MON ad_dynstat_adsalt_mean       =   2.8087058519656E-04
(PID.TID 0000.0001) %MON ad_dynstat_adsalt_sd         =   1.2072601695656E-03
(PID.TID 0000.0001) %MON ad_dynstat_adsalt_del2       =   2.4273571884734E-06
(PID.TID 0000.0001) // =======================================================
(PID.TID 0000.0001) // End MONITOR dynamic field statistics
(PID.TID 0000.0001) // =======================================================
 cg2d: Sum(rhs),rhsMax =   8.32667268468867E-17  1.94452079383588E-03
 cg2d: Sum(rhs),rhsMax =   7.21825377247853E-13  5.84076585365079E-02
 cg2d: Sum(rhs),rhsMax =   7.18647363839864E-13  5.83786414850351E-02
(PID.TID 0000.0001) // =======================================================
(PID.TID 0000.0001) // Begin MONITOR dynamic field statistics
(PID.TID 0000.0001) // =======================================================
(PID.TID 0000.0001) %MON ad_time_tsnumber             =                  8646
(PID.TID 0000.0001) %MON ad_time_secondsf             =   1.5562800000000E+07
(PID.TID 0000.0001) %MON ad_dynstat_adeta_max         =   3.7795798605626E-02
(PID.TID 0000.0001) %MON ad_dynstat_adeta_min         =  -6.2906590143858E-02
(PID.TID 0000.0001) %MON ad_dynstat_adeta_mean        =  -8.1018646973247E-05
(PID.TID 0000.0001) %MON ad_dynstat_adeta_sd          =   7.0553666584266E-03
(PID.TID 0000.0001) %MON ad_dynstat_adeta_del2        =   1.0722177555252E-04
(PID.TID 0000.0001) %MON ad_dynstat_aduvel_max        =   6.9212568202321E-04
(PID.TID 0000.0001) %MON ad_dynstat_aduvel_min        =  -1.4812320600169E-03
(PID.TID 0000.0001) %MON ad_dynstat_aduvel_mean       =  -5.0611849022496E-04
(PID.TID 0000.0001) %MON ad_dynstat_aduvel_sd         =   2.0222284596613E-04
(PID.TID 0000.0001) %MON ad_dynstat_aduvel_del2       =   6.2061448834083E-07
(PID.TID 0000.0001) %MON ad_dynstat_advvel_max        =   1.3312638782187E-03
(PID.TID 0000.0001) %MON ad_dynstat_advvel_min        =  -4.1323302248965E-03
(PID.TID 0000.0001) %MON ad_dynstat_advvel_mean       =   3.7251816945639E-04
(PID.TID 0000.0001) %MON ad_dynstat_advvel_sd         =   4.1790454775807E-04
(PID.TID 0000.0001) %MON ad_dynstat_advvel_del2       =   9.8319010898549E-07
(PID.TID 0000.0001) %MON ad_dynstat_adwvel_max        =   7.2115242335127E-04
(PID.TID 0000.0001) %MON ad_dynstat_adwvel_min        =  -1.5066876452757E-03
(PID.TID 0000.0001) %MON ad_dynstat_adwvel_mean       =  -4.6730321334735E-06
(PID.TID 0000.0001) %MON ad_dynstat_adwvel_sd         =   4.0799998013440E-05
(PID.TID 0000.0001) %MON ad_dynstat_adwvel_del2       =   3.1706710719212E-07
(PID.TID 0000.0001) %MON ad_dynstat_adtheta_max       =  -3.7835846618212E+00
(PID.TID 0000.0001) %MON ad_dynstat_adtheta_min       =  -4.0056062008388E+00
(PID.TID 0000.0001) %MON ad_dynstat_adtheta_mean      =  -3.8226853091365E+00
(PID.TID 0000.0001) %MON ad_dynstat_adtheta_sd        =   4.9033538798360E-02
(PID.TID 0000.0001) %MON ad_dynstat_adtheta_del2      =   3.8980396511789E-03
(PID.TID 0000.0001) %MON ad_dynstat_adsalt_max        =   1.1057637193542E-02
(PID.TID 0000.0001) %MON ad_dynstat_adsalt_min        =  -1.1838106411140E-03
(PID.TID 0000.0001) %MON ad_dynstat_adsalt_mean       =   3.5687861271512E-04
(PID.TID 0000.0001) %MON ad_dynstat_adsalt_sd         =   1.5390770358376E-03
(PID.TID 0000.0001) %MON ad_dynstat_adsalt_del2       =   3.0964296028884E-06
(PID.TID 0000.0001) // =======================================================
(PID.TID 0000.0001) // End MONITOR dynamic field statistics
(PID.TID 0000.0001) // =======================================================
 cg2d: Sum(rhs),rhsMax =  -1.14838694109665E-15  2.30640048390224E-03
(PID.TID 0000.0001) // =======================================================
(PID.TID 0000.0001) // Begin MONITOR dynamic field statistics
(PID.TID 0000.0001) // =======================================================
(PID.TID 0000.0001) %MON ad_time_tsnumber             =                  8645
(PID.TID 0000.0001) %MON ad_time_secondsf             =   1.5561000000000E+07
(PID.TID 0000.0001) %MON ad_dynstat_adeta_max         =   3.6130073344545E-02
(PID.TID 0000.0001) %MON ad_dynstat_adeta_min         =  -6.4062711039100E-02
(PID.TID 0000.0001) %MON ad_dynstat_adeta_mean        =  -1.2666051810512E-04
(PID.TID 0000.0001) %MON ad_dynstat_adeta_sd          =   7.2217856251623E-03
(PID.TID 0000.0001) %MON ad_dynstat_adeta_del2        =   1.0905751513318E-04
(PID.TID 0000.0001) %MON ad_dynstat_aduvel_max        =   7.2046100365524E-04
(PID.TID 0000.0001) %MON ad_dynstat_aduvel_min        =  -1.6761847512717E-03
(PID.TID 0000.0001) %MON ad_dynstat_aduvel_mean       =  -6.1243238005776E-04
(PID.TID 0000.0001) %MON ad_dynstat_aduvel_sd         =   2.2094317157794E-04
(PID.TID 0000.0001) %MON ad_dynstat_aduvel_del2       =   7.4202742907683E-07
(PID.TID 0000.0001) %MON ad_dynstat_advvel_max        =   1.0062805066449E-03
(PID.TID 0000.0001) %MON ad_dynstat_advvel_min        =  -3.8550228246183E-03
(PID.TID 0000.0001) %MON ad_dynstat_advvel_mean       =   5.2396165306217E-05
(PID.TID 0000.0001) %MON ad_dynstat_advvel_sd         =   3.8404508999027E-04
(PID.TID 0000.0001) %MON ad_dynstat_advvel_del2       =   7.5127628823027E-07
(PID.TID 0000.0001) %MON ad_dynstat_adwvel_max        =   8.2395037811174E-04
(PID.TID 0000.0001) %MON ad_dynstat_adwvel_min        =  -1.4673110894422E-03
(PID.TID 0000.0001) %MON ad_dynstat_adwvel_mean       =  -5.8930986293066E-06
(PID.TID 0000.0001) %MON ad_dynstat_adwvel_sd         =   5.1663670257749E-05
(PID.TID 0000.0001) %MON ad_dynstat_adwvel_del2       =   3.7851248987421E-07
(PID.TID 0000.0001) %MON ad_dynstat_adtheta_max       =  -3.7836901878260E+00
(PID.TID 0000.0001) %MON ad_dynstat_adtheta_min       =  -4.0012702775279E+00
(PID.TID 0000.0001) %MON ad_dynstat_adtheta_mean      =  -3.8213036608479E+00
(PID.TID 0000.0001) %MON ad_dynstat_adtheta_sd        =   4.7110539877237E-02
(PID.TID 0000.0001) %MON ad_dynstat_adtheta_del2      =   3.8963627357292E-03
(PID.TID 0000.0001) %MON ad_dynstat_adsalt_max        =   1.3433409222056E-02
(PID.TID 0000.0001) %MON ad_dynstat_adsalt_min        =  -1.4767461971249E-03
(PID.TID 0000.0001) %MON ad_dynstat_adsalt_mean       =   4.3367861164883E-04
(PID.TID 0000.0001) %MON ad_dynstat_adsalt_sd         =   1.8691270680782E-03
(PID.TID 0000.0001) %MON ad_dynstat_adsalt_del2       =   3.7553567178235E-06
(PID.TID 0000.0001) // =======================================================
(PID.TID 0000.0001) // End MONITOR dynamic field statistics
(PID.TID 0000.0001) // =======================================================
 cg2d: Sum(rhs),rhsMax =   1.80411241501588E-16  2.38367710291774E-03
 cg2d: Sum(rhs),rhsMax =   7.17981230025089E-13  5.84748536216084E-02
 cg2d: Sum(rhs),rhsMax =   7.13637482441243E-13  5.84592851667499E-02
(PID.TID 0000.0001) // =======================================================
(PID.TID 0000.0001) // Begin MONITOR dynamic field statistics
(PID.TID 0000.0001) // =======================================================
(PID.TID 0000.0001) %MON ad_time_tsnumber             =                  8644
(PID.TID 0000.0001) %MON ad_time_secondsf             =   1.5559200000000E+07
(PID.TID 0000.0001) %MON ad_dynstat_adeta_max         =   2.8073637094341E-02
(PID.TID 0000.0001) %MON ad_dynstat_adeta_min         =  -5.6669202210653E-02
(PID.TID 0000.0001) %MON ad_dynstat_adeta_mean        =  -1.7003852001800E-04
(PID.TID 0000.0001) %MON ad_dynstat_adeta_sd          =   6.5940195799521E-03
(PID.TID 0000.0001) %MON ad_dynstat_adeta_del2        =   9.9068493880344E-05
(PID.TID 0000.0001) %MON ad_dynstat_aduvel_max        =   7.1157745264900E-04
(PID.TID 0000.0001) %MON ad_dynstat_aduvel_min        =  -1.7116287179894E-03
(PID.TID 0000.0001) %MON ad_dynstat_aduvel_mean       =  -6.0393974958281E-04
(PID.TID 0000.0001) %MON ad_dynstat_aduvel_sd         =   2.0709729671320E-04
(PID.TID 0000.0001) %MON ad_dynstat_aduvel_del2       =   7.2391023580946E-07
(PID.TID 0000.0001) %MON ad_dynstat_advvel_max        =   6.3727440459891E-04
(PID.TID 0000.0001) %MON ad_dynstat_advvel_min        =  -3.1623218844118E-03
(PID.TID 0000.0001) %MON ad_dynstat_advvel_mean       =  -3.2143131382851E-04
(PID.TID 0000.0001) %MON ad_dynstat_advvel_sd         =   3.6590959727360E-04
(PID.TID 0000.0001) %MON ad_dynstat_advvel_del2       =   6.8703742969110E-07
(PID.TID 0000.0001) %MON ad_dynstat_adwvel_max        =   9.0799923474570E-04
(PID.TID 0000.0001) %MON ad_dynstat_adwvel_min        =  -1.3265972337845E-03
(PID.TID 0000.0001) %MON ad_dynstat_adwvel_mean       =  -6.7852084531036E-06
(PID.TID 0000.0001) %MON ad_dynstat_adwvel_sd         =   6.0265749800874E-05
(PID.TID 0000.0001) %MON ad_dynstat_adwvel_del2       =   4.1790544954956E-07
(PID.TID 0000.0001) %MON ad_dynstat_adtheta_max       =  -8.6097182955748E-01
(PID.TID 0000.0001) %MON ad_dynstat_adtheta_min       =  -6.8648485343905E+00
(PID.TID 0000.0001) %MON ad_dynstat_adtheta_mean      =  -3.8200058913176E+00
(PID.TID 0000.0001) %MON ad_dynstat_adtheta_sd        =   4.8929593064503E-02
(PID.TID 0000.0001) %MON ad_dynstat_adtheta_del2      =   3.8969019005857E-03
(PID.TID 0000.0001) %MON ad_dynstat_adsalt_max        =   1.5796395501772E-02
(PID.TID 0000.0001) %MON ad_dynstat_adsalt_min        =  -1.8508875563778E-03
(PID.TID 0000.0001) %MON ad_dynstat_adsalt_mean       =   5.1164893661974E-04
(PID.TID 0000.0001) %MON ad_dynstat_adsalt_sd         =   2.1972058887728E-03
(PID.TID 0000.0001) %MON ad_dynstat_adsalt_del2       =   4.4058651399931E-06
(PID.TID 0000.0001) // =======================================================
(PID.TID 0000.0001) // End MONITOR dynamic field statistics
(PID.TID 0000.0001) // =======================================================
 cg2d: Sum(rhs),rhsMax =  -1.19002030452009E-15  2.15542868402863E-03
(PID.TID 0000.0001) // =======================================================
(PID.TID 0000.0001) // Begin MONITOR dynamic field statistics
(PID.TID 0000.0001) // =======================================================
(PID.TID 0000.0001) %MON ad_time_tsnumber             =                  8643
(PID.TID 0000.0001) %MON ad_time_secondsf             =   1.5557400000000E+07
(PID.TID 0000.0001) %MON ad_dynstat_adeta_max         =   1.4422851626821E-02
(PID.TID 0000.0001) %MON ad_dynstat_adeta_min         =  -4.1874812957738E-02
(PID.TID 0000.0001) %MON ad_dynstat_adeta_mean        =  -2.0374691921478E-04
(PID.TID 0000.0001) %MON ad_dynstat_adeta_sd          =   5.5616661052931E-03
(PID.TID 0000.0001) %MON ad_dynstat_adeta_del2        =   8.3454262545268E-05
(PID.TID 0000.0001) %MON ad_dynstat_aduvel_max        =   6.6563053930515E-04
(PID.TID 0000.0001) %MON ad_dynstat_aduvel_min        =  -1.6036347238401E-03
(PID.TID 0000.0001) %MON ad_dynstat_aduvel_mean       =  -4.7438159030532E-04
(PID.TID 0000.0001) %MON ad_dynstat_aduvel_sd         =   1.8125630527935E-04
(PID.TID 0000.0001) %MON ad_dynstat_aduvel_del2       =   5.7175004017053E-07
(PID.TID 0000.0001) %MON ad_dynstat_advvel_max        =   6.1110749023496E-04
(PID.TID 0000.0001) %MON ad_dynstat_advvel_min        =  -2.8778315449889E-03
(PID.TID 0000.0001) %MON ad_dynstat_advvel_mean       =  -6.8585678677100E-04
(PID.TID 0000.0001) %MON ad_dynstat_advvel_sd         =   3.6826155648059E-04
(PID.TID 0000.0001) %MON ad_dynstat_advvel_del2       =   9.0643541115677E-07
(PID.TID 0000.0001) %MON ad_dynstat_adwvel_max        =   9.6344482946145E-04
(PID.TID 0000.0001) %MON ad_dynstat_adwvel_min        =  -1.6140003749508E-03
(PID.TID 0000.0001) %MON ad_dynstat_adwvel_mean       =  -7.4260990685550E-06
(PID.TID 0000.0001) %MON ad_dynstat_adwvel_sd         =   6.6987517688744E-05
(PID.TID 0000.0001) %MON ad_dynstat_adwvel_del2       =   4.4210991766588E-07
(PID.TID 0000.0001) %MON ad_dynstat_adtheta_max       =  -6.9706938005996E-01
(PID.TID 0000.0001) %MON ad_dynstat_adtheta_min       =  -5.8373568858608E+00
(PID.TID 0000.0001) %MON ad_dynstat_adtheta_mean      =  -3.8186754488675E+00
(PID.TID 0000.0001) %MON ad_dynstat_adtheta_sd        =   4.8696001466632E-02
(PID.TID 0000.0001) %MON ad_dynstat_adtheta_del2      =   3.8951597245467E-03
(PID.TID 0000.0001) %MON ad_dynstat_adsalt_max        =   1.8146304543317E-02
(PID.TID 0000.0001) %MON ad_dynstat_adsalt_min        =  -2.2395872663446E-03
(PID.TID 0000.0001) %MON ad_dynstat_adsalt_mean       =   5.9095540178461E-04
(PID.TID 0000.0001) %MON ad_dynstat_adsalt_sd         =   2.5224804847683E-03
(PID.TID 0000.0001) %MON ad_dynstat_adsalt_del2       =   5.0353030811507E-06
(PID.TID 0000.0001) // =======================================================
(PID.TID 0000.0001) // End MONITOR dynamic field statistics
(PID.TID 0000.0001) // =======================================================
 cg2d: Sum(rhs),rhsMax =  -1.80411241501588E-15  1.67274769771432E-03
(PID.TID 0000.0001) SOLVE_FOR_PRESSURE: putPmEinXvector =    F
 cg2d: Sum(rhs),rhsMax =   7.02882196890187E-13  5.97860431289981E-02
 cg2d: Sum(rhs),rhsMax =   7.18300419144668E-13  5.85500379930131E-02
(PID.TID 0000.0001) // =======================================================
(PID.TID 0000.0001) // Begin MONITOR dynamic field statistics
(PID.TID 0000.0001) // =======================================================
(PID.TID 0000.0001) %MON ad_time_tsnumber             =                  8642
(PID.TID 0000.0001) %MON ad_time_secondsf             =   1.5555600000000E+07
(PID.TID 0000.0001) %MON ad_dynstat_adeta_max         =   1.0820516042458E-02
(PID.TID 0000.0001) %MON ad_dynstat_adeta_min         =  -4.6523553636764E-02
(PID.TID 0000.0001) %MON ad_dynstat_adeta_mean        =  -2.2199390812910E-04
(PID.TID 0000.0001) %MON ad_dynstat_adeta_sd          =   5.0709320522881E-03
(PID.TID 0000.0001) %MON ad_dynstat_adeta_del2        =   7.6736681474216E-05
(PID.TID 0000.0001) %MON ad_dynstat_aduvel_max        =   6.6655325230979E-04
(PID.TID 0000.0001) %MON ad_dynstat_aduvel_min        =  -1.3783047238232E-03
(PID.TID 0000.0001) %MON ad_dynstat_aduvel_mean       =  -2.4218371950098E-04
(PID.TID 0000.0001) %MON ad_dynstat_aduvel_sd         =   1.7028077400259E-04
(PID.TID 0000.0001) %MON ad_dynstat_aduvel_del2       =   3.3306210899434E-07
(PID.TID 0000.0001) %MON ad_dynstat_advvel_max        =   1.0831501548097E-03
(PID.TID 0000.0001) %MON ad_dynstat_advvel_min        =  -2.6671837082228E-03
(PID.TID 0000.0001) %MON ad_dynstat_advvel_mean       =  -9.8091059432865E-04
(PID.TID 0000.0001) %MON ad_dynstat_advvel_sd         =   3.8484574126329E-04
(PID.TID 0000.0001) %MON ad_dynstat_advvel_del2       =   1.2251575736354E-06
(PID.TID 0000.0001) %MON ad_dynstat_adwvel_max        =   1.0131052341578E-03
(PID.TID 0000.0001) %MON ad_dynstat_adwvel_min        =  -1.8258844361814E-03
(PID.TID 0000.0001) %MON ad_dynstat_adwvel_mean       =  -7.8616357753271E-06
(PID.TID 0000.0001) %MON ad_dynstat_adwvel_sd         =   7.1857655108293E-05
(PID.TID 0000.0001) %MON ad_dynstat_adwvel_del2       =   4.5433706750272E-07
(PID.TID 0000.0001) %MON ad_dynstat_adtheta_max       =  -6.4245708372406E-01
(PID.TID 0000.0001) %MON ad_dynstat_adtheta_min       =  -6.7821512545837E+00
(PID.TID 0000.0001) %MON ad_dynstat_adtheta_mean      =  -3.8175199893618E+00
(PID.TID 0000.0001) %MON ad_dynstat_adtheta_sd        =   5.5389364076625E-02
(PID.TID 0000.0001) %MON ad_dynstat_adtheta_del2      =   3.8971574978374E-03
(PID.TID 0000.0001) %MON ad_dynstat_adsalt_max        =   2.0480220818329E-02
(PID.TID 0000.0001) %MON ad_dynstat_adsalt_min        =  -2.8876257301249E-03
(PID.TID 0000.0001) %MON ad_dynstat_adsalt_mean       =   6.7160486067230E-04
(PID.TID 0000.0001) %MON ad_dynstat_adsalt_sd         =   2.8462746052177E-03
(PID.TID 0000.0001) %MON ad_dynstat_adsalt_del2       =   5.6512211208154E-06
(PID.TID 0000.0001) // =======================================================
(PID.TID 0000.0001) // End MONITOR dynamic field statistics
(PID.TID 0000.0001) // =======================================================
 cg2d: Sum(rhs),rhsMax =  -1.24900090270330E-15  1.97398888661595E-03
(PID.TID 0000.0001) // =======================================================
(PID.TID 0000.0001) // Begin MONITOR dynamic field statistics
(PID.TID 0000.0001) // =======================================================
(PID.TID 0000.0001) %MON ad_time_tsnumber             =                  8641
(PID.TID 0000.0001) %MON ad_time_secondsf             =   1.5553800000000E+07
(PID.TID 0000.0001) %MON ad_dynstat_adeta_max         =   1.1289563771030E-02
(PID.TID 0000.0001) %MON ad_dynstat_adeta_min         =  -7.0938981586497E-02
(PID.TID 0000.0001) %MON ad_dynstat_adeta_mean        =  -2.2108828606881E-04
(PID.TID 0000.0001) %MON ad_dynstat_adeta_sd          =   6.1013919168973E-03
(PID.TID 0000.0001) %MON ad_dynstat_adeta_del2        =   9.3025145858816E-05
(PID.TID 0000.0001) %MON ad_dynstat_aduvel_max        =   1.0660973422314E-03
(PID.TID 0000.0001) %MON ad_dynstat_aduvel_min        =  -1.1758814403560E-03
(PID.TID 0000.0001) %MON ad_dynstat_aduvel_mean       =   5.9543579800327E-05
(PID.TID 0000.0001) %MON ad_dynstat_aduvel_sd         =   1.9012351215194E-04
(PID.TID 0000.0001) %MON ad_dynstat_aduvel_del2       =   2.3426167568156E-07
(PID.TID 0000.0001) %MON ad_dynstat_advvel_max        =   2.2601535114998E-03
(PID.TID 0000.0001) %MON ad_dynstat_advvel_min        =  -2.4896036073761E-03
(PID.TID 0000.0001) %MON ad_dynstat_advvel_mean       =  -1.1601059303728E-03
(PID.TID 0000.0001) %MON ad_dynstat_advvel_sd         =   4.0683195768500E-04
(PID.TID 0000.0001) %MON ad_dynstat_advvel_del2       =   1.4973528275499E-06
(PID.TID 0000.0001) %MON ad_dynstat_adwvel_max        =   1.0383728977198E-03
(PID.TID 0000.0001) %MON ad_dynstat_adwvel_min        =  -1.9986340781859E-03
(PID.TID 0000.0001) %MON ad_dynstat_adwvel_mean       =  -8.0794780890337E-06
(PID.TID 0000.0001) %MON ad_dynstat_adwvel_sd         =   7.4551033677381E-05
(PID.TID 0000.0001) %MON ad_dynstat_adwvel_del2       =   4.5468717569393E-07
(PID.TID 0000.0001) %MON ad_dynstat_adtheta_max       =  -6.2960056341747E-01
(PID.TID 0000.0001) %MON ad_dynstat_adtheta_min       =  -6.7878510806734E+00
(PID.TID 0000.0001) %MON ad_dynstat_adtheta_mean      =  -3.8162593867169E+00
(PID.TID 0000.0001) %MON ad_dynstat_adtheta_sd        =   5.6778650587648E-02
(PID.TID 0000.0001) %MON ad_dynstat_adtheta_del2      =   3.8968039978278E-03
(PID.TID 0000.0001) %MON ad_dynstat_adsalt_max        =   2.2793686368416E-02
(PID.TID 0000.0001) %MON ad_dynstat_adsalt_min        =  -3.5688985437050E-03
(PID.TID 0000.0001) %MON ad_dynstat_adsalt_mean       =   7.5338191714408E-04
(PID.TID 0000.0001) %MON ad_dynstat_adsalt_sd         =   3.1654081407123E-03
(PID.TID 0000.0001) %MON ad_dynstat_adsalt_del2       =   6.2597277636304E-06
(PID.TID 0000.0001) // =======================================================
(PID.TID 0000.0001) // End MONITOR dynamic field statistics
(PID.TID 0000.0001) // =======================================================
 cg2d: Sum(rhs),rhsMax =  -2.78943534937071E-15  2.85967219293293E-03
(PID.TID 0000.0001)  nRecords = 243 ; filePrec =  64 ; fileIter =      8640
(PID.TID 0000.0001)     nDims =   2 , dims:
(PID.TID 0000.0001)    1:  50   1  50
(PID.TID 0000.0001)    2: 100   1 100
(PID.TID 0000.0001)     nFlds =  11 , nFl3D =   8 , fields:
(PID.TID 0000.0001)  >Uvel    < >Vvel    < >Theta   < >Salt    < >GuNm1   < >GvNm1   < >GtNm1   < >GsNm1   < >EtaN    < >dEtaHdt < >EtaH    <
(PID.TID 0000.0001) missingVal=  1.00000000000000E+00 ; nTimRec =   1 , timeList:
(PID.TID 0000.0001)   1.555200000000E+07
(PID.TID 0000.0001) READ_MFLDS_3D_RL: read field: "Uvel    ", #   1 in fldList, rec=   1
(PID.TID 0000.0001) READ_MFLDS_3D_RL: read field: "Vvel    ", #   2 in fldList, rec=   2
(PID.TID 0000.0001) READ_MFLDS_3D_RL: read field: "Theta   ", #   3 in fldList, rec=   3
(PID.TID 0000.0001) READ_MFLDS_3D_RL: read field: "Salt    ", #   4 in fldList, rec=   4
(PID.TID 0000.0001) READ_MFLDS_3D_RL: read field: "GuNm1   ", #   5 in fldList, rec=   5
(PID.TID 0000.0001) READ_MFLDS_3D_RL: read field: "GvNm1   ", #   6 in fldList, rec=   6
(PID.TID 0000.0001) READ_MFLDS_3D_RL: read field: "GtNm1   ", #   7 in fldList, rec=   7
(PID.TID 0000.0001) READ_MFLDS_3D_RL: read field: "GsNm1   ", #   8 in fldList, rec=   8
(PID.TID 0000.0001) READ_MFLDS_3D_RL: read field: "EtaN    ", #   9 in fldList, rec= 241
(PID.TID 0000.0001) READ_MFLDS_3D_RL: read field: "dEtaHdt ", #  10 in fldList, rec= 242
(PID.TID 0000.0001) READ_MFLDS_3D_RL: read field: "EtaH    ", #  11 in fldList, rec= 243
(PID.TID 0000.0001) READ_MFLDS_CHECK: - normal end ; reset MFLDS file-name: pickup.0000008640
(PID.TID 0000.0001) // =======================================================
(PID.TID 0000.0001) // Begin MONITOR dynamic field statistics
(PID.TID 0000.0001) // =======================================================
(PID.TID 0000.0001) %MON ad_time_tsnumber             =                  8640
(PID.TID 0000.0001) %MON ad_time_secondsf             =   1.5552000000000E+07
(PID.TID 0000.0001) %MON ad_dynstat_adeta_max         =   3.0570122720636E-02
(PID.TID 0000.0001) %MON ad_dynstat_adeta_min         =  -9.3354525843224E-02
(PID.TID 0000.0001) %MON ad_dynstat_adeta_mean        =  -1.9977079987497E-04
(PID.TID 0000.0001) %MON ad_dynstat_adeta_sd          =   8.2100216922897E-03
(PID.TID 0000.0001) %MON ad_dynstat_adeta_del2        =   1.2497543137186E-04
(PID.TID 0000.0001) %MON ad_dynstat_aduvel_max        =   1.4587212860328E-03
(PID.TID 0000.0001) %MON ad_dynstat_aduvel_min        =  -1.0807244184208E-03
(PID.TID 0000.0001) %MON ad_dynstat_aduvel_mean       =   3.8949713186828E-04
(PID.TID 0000.0001) %MON ad_dynstat_aduvel_sd         =   2.3243380054273E-04
(PID.TID 0000.0001) %MON ad_dynstat_aduvel_del2       =   5.1614101143543E-07
(PID.TID 0000.0001) %MON ad_dynstat_advvel_max        =   3.9126268977802E-03
(PID.TID 0000.0001) %MON ad_dynstat_advvel_min        =  -2.1113983164466E-03
(PID.TID 0000.0001) %MON ad_dynstat_advvel_mean       =  -1.1899967338924E-03
(PID.TID 0000.0001) %MON ad_dynstat_advvel_sd         =   4.2580652051227E-04
(PID.TID 0000.0001) %MON ad_dynstat_advvel_del2       =   1.6724262501389E-06
(PID.TID 0000.0001) %MON ad_dynstat_adwvel_max        =   1.2284577385639E-03
(PID.TID 0000.0001) %MON ad_dynstat_adwvel_min        =  -2.2001184235363E-03
(PID.TID 0000.0001) %MON ad_dynstat_adwvel_mean       =  -7.8467305457465E-06
(PID.TID 0000.0001) %MON ad_dynstat_adwvel_sd         =   7.5693952036565E-05
(PID.TID 0000.0001) %MON ad_dynstat_adwvel_del2       =   4.6611779790672E-07
(PID.TID 0000.0001) %MON ad_dynstat_adtheta_max       =  -6.2363535743974E-01
(PID.TID 0000.0001) %MON ad_dynstat_adtheta_min       =  -6.7762025170016E+00
(PID.TID 0000.0001) %MON ad_dynstat_adtheta_mean      =  -3.8154229847070E+00
(PID.TID 0000.0001) %MON ad_dynstat_adtheta_sd        =   7.1358861051444E-02
(PID.TID 0000.0001) %MON ad_dynstat_adtheta_del2      =   3.9074022709164E-03
(PID.TID 0000.0001) %MON ad_dynstat_adsalt_max        =   2.5344538405916E-02
(PID.TID 0000.0001) %MON ad_dynstat_adsalt_min        =  -4.2501171500259E-03
(PID.TID 0000.0001) %MON ad_dynstat_adsalt_mean       =   8.3601905189687E-04
(PID.TID 0000.0001) %MON ad_dynstat_adsalt_sd         =   3.4844178086235E-03
(PID.TID 0000.0001) %MON ad_dynstat_adsalt_del2       =   6.8510738713974E-06
(PID.TID 0000.0001) // =======================================================
(PID.TID 0000.0001) // End MONITOR dynamic field statistics
(PID.TID 0000.0001) // =======================================================
(PID.TID 0000.0001) // =======================================================
(PID.TID 0000.0001) // Gradient-check starts (grdchk_main)
(PID.TID 0000.0001) // =======================================================
(PID.TID 0000.0001) grdchk reference fc: fcref       =  3.69884273949161E+05
grad-res -------------------------------
 grad-res  proc    #    i    j    k   bi   bj iobc       fc ref            fc + eps           fc - eps
 grad-res  proc    #    i    j    k   bi   bj iobc      adj grad            fd grad          1 - fd/adj
 grad-res exact position met: 
 grad-res     0 1579   20   24   20    1    1
(PID.TID 0000.0001) ====== Starts gradient-check number   1 (=ichknum) =======
 ph-test icomp, ncvarcomp, ichknum         1579      100450           1
 ph-grd _loc: bi, bj, icomptest, ichknum            1           1           0           1
 ph-grd _loc: bi, bj, icomptest, ichknum            1           1           0           1
 ph-grd _loc: bi, bj, icomptest, ichknum            1           1           0           1
 ph-grd _loc: bi, bj, icomptest, ichknum            1           1           0           1
 ph-grd _loc: bi, bj, icomptest, ichknum            1           1           0           1
 ph-grd _loc: bi, bj, icomptest, ichknum            1           1           0           1
 ph-grd _loc: bi, bj, icomptest, ichknum            1           1           0           1
 ph-grd _loc: bi, bj, icomptest, ichknum            1           1           0           1
 ph-grd _loc: bi, bj, icomptest, ichknum            1           1           0           1
 ph-grd _loc: bi, bj, icomptest, ichknum            1           1           0           1
 ph-grd _loc: bi, bj, icomptest, ichknum            1           1           0           1
 ph-grd _loc: bi, bj, icomptest, ichknum            1           1           0           1
 ph-grd _loc: bi, bj, icomptest, ichknum            1           1           0           1
 ph-grd _loc: bi, bj, icomptest, ichknum            1           1           0           1
 ph-grd _loc: bi, bj, icomptest, ichknum            1           1          48           1
 ph-grd _loc: bi, bj, icomptest, ichknum            1           1         168           1
 ph-grd _loc: bi, bj, icomptest, ichknum            1           1         336           1
 ph-grd _loc: bi, bj, icomptest, ichknum            1           1         576           1
 ph-grd _loc: bi, bj, icomptest, ichknum            1           1         864           1
 ph-grd _loc: bi, bj, icomptest, ichknum            1           1        1200           1
 ph-grd -->hit<--           20          24          20           1
(PID.TID 0000.0001) grdchk pos: i,j,k=   20   24   20 ; bi,bj=   1   1 ; iobc=  1 ; rec=   1
(PID.TID 0000.0001)  nRecords = 243 ; filePrec =  64 ; fileIter =      8640
(PID.TID 0000.0001)     nDims =   2 , dims:
(PID.TID 0000.0001)    1:  50   1  50
(PID.TID 0000.0001)    2: 100   1 100
(PID.TID 0000.0001)     nFlds =  11 , nFl3D =   8 , fields:
(PID.TID 0000.0001)  >Uvel    < >Vvel    < >Theta   < >Salt    < >GuNm1   < >GvNm1   < >GtNm1   < >GsNm1   < >EtaN    < >dEtaHdt < >EtaH    <
(PID.TID 0000.0001) missingVal=  1.00000000000000E+00 ; nTimRec =   1 , timeList:
(PID.TID 0000.0001)   1.555200000000E+07
(PID.TID 0000.0001) READ_MFLDS_3D_RL: read field: "Uvel    ", #   1 in fldList, rec=   1
(PID.TID 0000.0001) READ_MFLDS_3D_RL: read field: "Vvel    ", #   2 in fldList, rec=   2
(PID.TID 0000.0001) READ_MFLDS_3D_RL: read field: "Theta   ", #   3 in fldList, rec=   3
(PID.TID 0000.0001) READ_MFLDS_3D_RL: read field: "Salt    ", #   4 in fldList, rec=   4
(PID.TID 0000.0001) READ_MFLDS_3D_RL: read field: "GuNm1   ", #   5 in fldList, rec=   5
(PID.TID 0000.0001) READ_MFLDS_3D_RL: read field: "GvNm1   ", #   6 in fldList, rec=   6
(PID.TID 0000.0001) READ_MFLDS_3D_RL: read field: "GtNm1   ", #   7 in fldList, rec=   7
(PID.TID 0000.0001) READ_MFLDS_3D_RL: read field: "GsNm1   ", #   8 in fldList, rec=   8
(PID.TID 0000.0001) READ_MFLDS_3D_RL: read field: "EtaN    ", #   9 in fldList, rec= 241
(PID.TID 0000.0001) READ_MFLDS_3D_RL: read field: "dEtaHdt ", #  10 in fldList, rec= 242
(PID.TID 0000.0001) READ_MFLDS_3D_RL: read field: "EtaH    ", #  11 in fldList, rec= 243
(PID.TID 0000.0001) READ_MFLDS_CHECK: - normal end ; reset MFLDS file-name: pickup.0000008640
(PID.TID 0000.0001) // =======================================================
(PID.TID 0000.0001) // Model current state
(PID.TID 0000.0001) // =======================================================
(PID.TID 0000.0001) 
(PID.TID 0000.0001) SOLVE_FOR_PRESSURE: putPmEinXvector =    F
 cg2d: Sum(rhs),rhsMax =   7.02715663436493E-13  5.97860431289981E-02
 cg2d: Sum(rhs),rhsMax =   7.15552617158721E-13  5.85500373910762E-02
 cg2d: Sum(rhs),rhsMax =   7.18272663569053E-13  5.84748532549566E-02
 cg2d: Sum(rhs),rhsMax =   7.16746106910193E-13  5.84592853367160E-02
 cg2d: Sum(rhs),rhsMax =   7.18272663569053E-13  5.84076589474290E-02
 cg2d: Sum(rhs),rhsMax =   7.20715154223228E-13  5.83786417487486E-02
 cg2d: Sum(rhs),rhsMax =   7.17738368738452E-13  5.84373791980351E-02
 cg2d: Sum(rhs),rhsMax =   7.17571835284758E-13  5.85078762304475E-02
 cg2d: Sum(rhs),rhsMax =   7.13568093502204E-13  5.85905787635394E-02
 cg2d: Sum(rhs),rhsMax =   7.13842179811408E-13  5.86837212302728E-02
(PID.TID 0000.0001) Did not write pickup because writePickupAtEnd = FALSE
 --> objf_shelfice(bi,bj) =  0.000000000000000D+00
 --> objf_shifwflx(bi,bj) =  0.000000000000000D+00
 --> objf_shelfice(bi,bj) =  0.000000000000000D+00
 --> objf_shifwflx(bi,bj) =  0.000000000000000D+00
 --> objf_shelfice(bi,bj) =  0.000000000000000D+00
 --> objf_shifwflx(bi,bj) =  0.000000000000000D+00
 --> objf_shelfice(bi,bj) =  0.000000000000000D+00
 --> objf_shifwflx(bi,bj) =  0.000000000000000D+00
 --> objf_shelfice(bi,bj) =  0.000000000000000D+00
 --> objf_shifwflx(bi,bj) =  0.000000000000000D+00
 --> objf_shelfice(bi,bj) =  0.000000000000000D+00
 --> objf_shifwflx(bi,bj) =  0.000000000000000D+00
 --> objf_shelfice(bi,bj) =  0.000000000000000D+00
 --> objf_shifwflx(bi,bj) =  0.000000000000000D+00
 --> objf_shelfice(bi,bj) =  0.000000000000000D+00
 --> objf_shifwflx(bi,bj) =  0.000000000000000D+00
  early fc =  0.000000000000000D+00
 --> objf_test(bi,bj)   =  0.272840251592835D+05
 --> objf_tracer(bi,bj) =  0.000000000000000D+00
 --> objf_atl(bi,bj)    =  0.000000000000000D+00
 --> objf_test(bi,bj)   =  0.281197589061652D+05
 --> objf_tracer(bi,bj) =  0.000000000000000D+00
 --> objf_atl(bi,bj)    =  0.000000000000000D+00
 --> objf_test(bi,bj)   =  0.489493071401544D+05
 --> objf_tracer(bi,bj) =  0.000000000000000D+00
 --> objf_atl(bi,bj)    =  0.000000000000000D+00
 --> objf_test(bi,bj)   =  0.505807692761707D+05
 --> objf_tracer(bi,bj) =  0.000000000000000D+00
 --> objf_atl(bi,bj)    =  0.000000000000000D+00
 --> objf_test(bi,bj)   =  0.526422691371059D+05
 --> objf_tracer(bi,bj) =  0.000000000000000D+00
 --> objf_atl(bi,bj)    =  0.000000000000000D+00
 --> objf_test(bi,bj)   =  0.548339856203999D+05
 --> objf_tracer(bi,bj) =  0.000000000000000D+00
 --> objf_atl(bi,bj)    =  0.000000000000000D+00
 --> objf_test(bi,bj)   =  0.526403855388201D+05
 --> objf_tracer(bi,bj) =  0.000000000000000D+00
 --> objf_atl(bi,bj)    =  0.000000000000000D+00
 --> objf_test(bi,bj)   =  0.548337349888567D+05
 --> objf_tracer(bi,bj) =  0.000000000000000D+00
 --> objf_atl(bi,bj)    =  0.000000000000000D+00
  local fc =  0.369884235766957D+06
 global fc =  0.369884235766957D+06
(PID.TID 0000.0001) grdchk perturb(+)fc: fcpertplus  =  3.69884235766957E+05
(PID.TID 0000.0001)  nRecords = 243 ; filePrec =  64 ; fileIter =      8640
(PID.TID 0000.0001)     nDims =   2 , dims:
(PID.TID 0000.0001)    1:  50   1  50
(PID.TID 0000.0001)    2: 100   1 100
(PID.TID 0000.0001)     nFlds =  11 , nFl3D =   8 , fields:
(PID.TID 0000.0001)  >Uvel    < >Vvel    < >Theta   < >Salt    < >GuNm1   < >GvNm1   < >GtNm1   < >GsNm1   < >EtaN    < >dEtaHdt < >EtaH    <
(PID.TID 0000.0001) missingVal=  1.00000000000000E+00 ; nTimRec =   1 , timeList:
(PID.TID 0000.0001)   1.555200000000E+07
(PID.TID 0000.0001) READ_MFLDS_3D_RL: read field: "Uvel    ", #   1 in fldList, rec=   1
(PID.TID 0000.0001) READ_MFLDS_3D_RL: read field: "Vvel    ", #   2 in fldList, rec=   2
(PID.TID 0000.0001) READ_MFLDS_3D_RL: read field: "Theta   ", #   3 in fldList, rec=   3
(PID.TID 0000.0001) READ_MFLDS_3D_RL: read field: "Salt    ", #   4 in fldList, rec=   4
(PID.TID 0000.0001) READ_MFLDS_3D_RL: read field: "GuNm1   ", #   5 in fldList, rec=   5
(PID.TID 0000.0001) READ_MFLDS_3D_RL: read field: "GvNm1   ", #   6 in fldList, rec=   6
(PID.TID 0000.0001) READ_MFLDS_3D_RL: read field: "GtNm1   ", #   7 in fldList, rec=   7
(PID.TID 0000.0001) READ_MFLDS_3D_RL: read field: "GsNm1   ", #   8 in fldList, rec=   8
(PID.TID 0000.0001) READ_MFLDS_3D_RL: read field: "EtaN    ", #   9 in fldList, rec= 241
(PID.TID 0000.0001) READ_MFLDS_3D_RL: read field: "dEtaHdt ", #  10 in fldList, rec= 242
(PID.TID 0000.0001) READ_MFLDS_3D_RL: read field: "EtaH    ", #  11 in fldList, rec= 243
(PID.TID 0000.0001) READ_MFLDS_CHECK: - normal end ; reset MFLDS file-name: pickup.0000008640
(PID.TID 0000.0001) // =======================================================
(PID.TID 0000.0001) // Model current state
(PID.TID 0000.0001) // =======================================================
(PID.TID 0000.0001) 
(PID.TID 0000.0001) SOLVE_FOR_PRESSURE: putPmEinXvector =    F
 cg2d: Sum(rhs),rhsMax =   7.02715663436493E-13  5.97860431289981E-02
 cg2d: Sum(rhs),rhsMax =   7.15844050702685E-13  5.85500385930278E-02
 cg2d: Sum(rhs),rhsMax =   7.18175519054398E-13  5.84748539870112E-02
 cg2d: Sum(rhs),rhsMax =   7.18786141717942E-13  5.84592849973904E-02
 cg2d: Sum(rhs),rhsMax =   7.18411441447131E-13  5.84076581262137E-02
 cg2d: Sum(rhs),rhsMax =   7.20423720679264E-13  5.83786412214718E-02
 cg2d: Sum(rhs),rhsMax =   7.19542481153468E-13  5.84373786929964E-02
 cg2d: Sum(rhs),rhsMax =   7.17936127214713E-13  5.85078756567315E-02
 cg2d: Sum(rhs),rhsMax =   7.15785070104502E-13  5.85905781078273E-02
 cg2d: Sum(rhs),rhsMax =   7.15481493496206E-13  5.86837205536920E-02
(PID.TID 0000.0001) Did not write pickup because writePickupAtEnd = FALSE
 --> objf_shelfice(bi,bj) =  0.000000000000000D+00
 --> objf_shifwflx(bi,bj) =  0.000000000000000D+00
 --> objf_shelfice(bi,bj) =  0.000000000000000D+00
 --> objf_shifwflx(bi,bj) =  0.000000000000000D+00
 --> objf_shelfice(bi,bj) =  0.000000000000000D+00
 --> objf_shifwflx(bi,bj) =  0.000000000000000D+00
 --> objf_shelfice(bi,bj) =  0.000000000000000D+00
 --> objf_shifwflx(bi,bj) =  0.000000000000000D+00
 --> objf_shelfice(bi,bj) =  0.000000000000000D+00
 --> objf_shifwflx(bi,bj) =  0.000000000000000D+00
 --> objf_shelfice(bi,bj) =  0.000000000000000D+00
 --> objf_shifwflx(bi,bj) =  0.000000000000000D+00
 --> objf_shelfice(bi,bj) =  0.000000000000000D+00
 --> objf_shifwflx(bi,bj) =  0.000000000000000D+00
 --> objf_shelfice(bi,bj) =  0.000000000000000D+00
 --> objf_shifwflx(bi,bj) =  0.000000000000000D+00
  early fc =  0.000000000000000D+00
 --> objf_test(bi,bj)   =  0.272841016853999D+05
 --> objf_tracer(bi,bj) =  0.000000000000000D+00
 --> objf_atl(bi,bj)    =  0.000000000000000D+00
 --> objf_test(bi,bj)   =  0.281197589062547D+05
 --> objf_tracer(bi,bj) =  0.000000000000000D+00
 --> objf_atl(bi,bj)    =  0.000000000000000D+00
 --> objf_test(bi,bj)   =  0.489493071404802D+05
 --> objf_tracer(bi,bj) =  0.000000000000000D+00
 --> objf_atl(bi,bj)    =  0.000000000000000D+00
 --> objf_test(bi,bj)   =  0.505807692761934D+05
 --> objf_tracer(bi,bj) =  0.000000000000000D+00
 --> objf_atl(bi,bj)    =  0.000000000000000D+00
 --> objf_test(bi,bj)   =  0.526422691371120D+05
 --> objf_tracer(bi,bj) =  0.000000000000000D+00
 --> objf_atl(bi,bj)    =  0.000000000000000D+00
 --> objf_test(bi,bj)   =  0.548339856203981D+05
 --> objf_tracer(bi,bj) =  0.000000000000000D+00
 --> objf_atl(bi,bj)    =  0.000000000000000D+00
 --> objf_test(bi,bj)   =  0.526403855388285D+05
 --> objf_tracer(bi,bj) =  0.000000000000000D+00
 --> objf_atl(bi,bj)    =  0.000000000000000D+00
 --> objf_test(bi,bj)   =  0.548337349888605D+05
 --> objf_tracer(bi,bj) =  0.000000000000000D+00
 --> objf_atl(bi,bj)    =  0.000000000000000D+00
  local fc =  0.369884312293527D+06
 global fc =  0.369884312293527D+06
(PID.TID 0000.0001) grdchk perturb(-)fc: fcpertminus =  3.69884312293527E+05
grad-res -------------------------------
 grad-res     0    1   20   24   20    1    1    1   3.69884273949E+05  3.69884235767E+05  3.69884312294E+05
 grad-res     0    1    1 1579    0    1    1    1  -3.82632855798E+00 -3.82632854162E+00  4.27505586487E-09
(PID.TID 0000.0001)  ADM  ref_cost_function      =  3.69884273949161E+05
(PID.TID 0000.0001)  ADM  adjoint_gradient       = -3.82632855797561E+00
(PID.TID 0000.0001)  ADM  finite-diff_grad       = -3.82632854161784E+00
(PID.TID 0000.0001) ====== End of gradient-check number   1 (ierr=  0) =======
(PID.TID 0000.0001) ====== Starts gradient-check number   2 (=ichknum) =======
 ph-test icomp, ncvarcomp, ichknum         1580      100450           2
 ph-grd _loc: bi, bj, icomptest, ichknum            1           1        1579           2
 ph-grd -->hit<--           21          24          20           1
(PID.TID 0000.0001) grdchk pos: i,j,k=   21   24   20 ; bi,bj=   1   1 ; iobc=  1 ; rec=   1
(PID.TID 0000.0001)  nRecords = 243 ; filePrec =  64 ; fileIter =      8640
(PID.TID 0000.0001)     nDims =   2 , dims:
(PID.TID 0000.0001)    1:  50   1  50
(PID.TID 0000.0001)    2: 100   1 100
(PID.TID 0000.0001)     nFlds =  11 , nFl3D =   8 , fields:
(PID.TID 0000.0001)  >Uvel    < >Vvel    < >Theta   < >Salt    < >GuNm1   < >GvNm1   < >GtNm1   < >GsNm1   < >EtaN    < >dEtaHdt < >EtaH    <
(PID.TID 0000.0001) missingVal=  1.00000000000000E+00 ; nTimRec =   1 , timeList:
(PID.TID 0000.0001)   1.555200000000E+07
(PID.TID 0000.0001) READ_MFLDS_3D_RL: read field: "Uvel    ", #   1 in fldList, rec=   1
(PID.TID 0000.0001) READ_MFLDS_3D_RL: read field: "Vvel    ", #   2 in fldList, rec=   2
(PID.TID 0000.0001) READ_MFLDS_3D_RL: read field: "Theta   ", #   3 in fldList, rec=   3
(PID.TID 0000.0001) READ_MFLDS_3D_RL: read field: "Salt    ", #   4 in fldList, rec=   4
(PID.TID 0000.0001) READ_MFLDS_3D_RL: read field: "GuNm1   ", #   5 in fldList, rec=   5
(PID.TID 0000.0001) READ_MFLDS_3D_RL: read field: "GvNm1   ", #   6 in fldList, rec=   6
(PID.TID 0000.0001) READ_MFLDS_3D_RL: read field: "GtNm1   ", #   7 in fldList, rec=   7
(PID.TID 0000.0001) READ_MFLDS_3D_RL: read field: "GsNm1   ", #   8 in fldList, rec=   8
(PID.TID 0000.0001) READ_MFLDS_3D_RL: read field: "EtaN    ", #   9 in fldList, rec= 241
(PID.TID 0000.0001) READ_MFLDS_3D_RL: read field: "dEtaHdt ", #  10 in fldList, rec= 242
(PID.TID 0000.0001) READ_MFLDS_3D_RL: read field: "EtaH    ", #  11 in fldList, rec= 243
(PID.TID 0000.0001) READ_MFLDS_CHECK: - normal end ; reset MFLDS file-name: pickup.0000008640
(PID.TID 0000.0001) // =======================================================
(PID.TID 0000.0001) // Model current state
(PID.TID 0000.0001) // =======================================================
(PID.TID 0000.0001) 
(PID.TID 0000.0001) SOLVE_FOR_PRESSURE: putPmEinXvector =    F
 cg2d: Sum(rhs),rhsMax =   7.02882196890187E-13  5.97860431289981E-02
 cg2d: Sum(rhs),rhsMax =   7.15427717068451E-13  5.85500374253504E-02
 cg2d: Sum(rhs),rhsMax =   7.19369008805870E-13  5.84748532356474E-02
 cg2d: Sum(rhs),rhsMax =   7.17800818783587E-13  5.84592852645296E-02
 cg2d: Sum(rhs),rhsMax =   7.20298820588994E-13  5.84076588511210E-02
 cg2d: Sum(rhs),rhsMax =   7.18133885690975E-13  5.83786416234167E-02
 cg2d: Sum(rhs),rhsMax =   7.16982029302926E-13  5.84373790429100E-02
 cg2d: Sum(rhs),rhsMax =   7.17197135013947E-13  5.85078760419086E-02
 cg2d: Sum(rhs),rhsMax =   7.15965481346004E-13  5.85905785421320E-02
 cg2d: Sum(rhs),rhsMax =   7.11368464134665E-13  5.86837209771945E-02
(PID.TID 0000.0001) Did not write pickup because writePickupAtEnd = FALSE
 --> objf_shelfice(bi,bj) =  0.000000000000000D+00
 --> objf_shifwflx(bi,bj) =  0.000000000000000D+00
 --> objf_shelfice(bi,bj) =  0.000000000000000D+00
 --> objf_shifwflx(bi,bj) =  0.000000000000000D+00
 --> objf_shelfice(bi,bj) =  0.000000000000000D+00
 --> objf_shifwflx(bi,bj) =  0.000000000000000D+00
 --> objf_shelfice(bi,bj) =  0.000000000000000D+00
 --> objf_shifwflx(bi,bj) =  0.000000000000000D+00
 --> objf_shelfice(bi,bj) =  0.000000000000000D+00
 --> objf_shifwflx(bi,bj) =  0.000000000000000D+00
 --> objf_shelfice(bi,bj) =  0.000000000000000D+00
 --> objf_shifwflx(bi,bj) =  0.000000000000000D+00
 --> objf_shelfice(bi,bj) =  0.000000000000000D+00
 --> objf_shifwflx(bi,bj) =  0.000000000000000D+00
 --> objf_shelfice(bi,bj) =  0.000000000000000D+00
 --> objf_shifwflx(bi,bj) =  0.000000000000000D+00
  early fc =  0.000000000000000D+00
 --> objf_test(bi,bj)   =  0.272840251647333D+05
 --> objf_tracer(bi,bj) =  0.000000000000000D+00
 --> objf_atl(bi,bj)    =  0.000000000000000D+00
 --> objf_test(bi,bj)   =  0.281197589061400D+05
 --> objf_tracer(bi,bj) =  0.000000000000000D+00
 --> objf_atl(bi,bj)    =  0.000000000000000D+00
 --> objf_test(bi,bj)   =  0.489493071401594D+05
 --> objf_tracer(bi,bj) =  0.000000000000000D+00
 --> objf_atl(bi,bj)    =  0.000000000000000D+00
 --> objf_test(bi,bj)   =  0.505807692761717D+05
 --> objf_tracer(bi,bj) =  0.000000000000000D+00
 --> objf_atl(bi,bj)    =  0.000000000000000D+00
 --> objf_test(bi,bj)   =  0.526422691371062D+05
 --> objf_tracer(bi,bj) =  0.000000000000000D+00
 --> objf_atl(bi,bj)    =  0.000000000000000D+00
 --> objf_test(bi,bj)   =  0.548339856204001D+05
 --> objf_tracer(bi,bj) =  0.000000000000000D+00
 --> objf_atl(bi,bj)    =  0.000000000000000D+00
 --> objf_test(bi,bj)   =  0.526403855388205D+05
 --> objf_tracer(bi,bj) =  0.000000000000000D+00
 --> objf_atl(bi,bj)    =  0.000000000000000D+00
 --> objf_test(bi,bj)   =  0.548337349888571D+05
 --> objf_tracer(bi,bj) =  0.000000000000000D+00
 --> objf_atl(bi,bj)    =  0.000000000000000D+00
  local fc =  0.369884235772388D+06
 global fc =  0.369884235772388D+06
(PID.TID 0000.0001) grdchk perturb(+)fc: fcpertplus  =  3.69884235772388E+05
(PID.TID 0000.0001)  nRecords = 243 ; filePrec =  64 ; fileIter =      8640
(PID.TID 0000.0001)     nDims =   2 , dims:
(PID.TID 0000.0001)    1:  50   1  50
(PID.TID 0000.0001)    2: 100   1 100
(PID.TID 0000.0001)     nFlds =  11 , nFl3D =   8 , fields:
(PID.TID 0000.0001)  >Uvel    < >Vvel    < >Theta   < >Salt    < >GuNm1   < >GvNm1   < >GtNm1   < >GsNm1   < >EtaN    < >dEtaHdt < >EtaH    <
(PID.TID 0000.0001) missingVal=  1.00000000000000E+00 ; nTimRec =   1 , timeList:
(PID.TID 0000.0001)   1.555200000000E+07
(PID.TID 0000.0001) READ_MFLDS_3D_RL: read field: "Uvel    ", #   1 in fldList, rec=   1
(PID.TID 0000.0001) READ_MFLDS_3D_RL: read field: "Vvel    ", #   2 in fldList, rec=   2
(PID.TID 0000.0001) READ_MFLDS_3D_RL: read field: "Theta   ", #   3 in fldList, rec=   3
(PID.TID 0000.0001) READ_MFLDS_3D_RL: read field: "Salt    ", #   4 in fldList, rec=   4
(PID.TID 0000.0001) READ_MFLDS_3D_RL: read field: "GuNm1   ", #   5 in fldList, rec=   5
(PID.TID 0000.0001) READ_MFLDS_3D_RL: read field: "GvNm1   ", #   6 in fldList, rec=   6
(PID.TID 0000.0001) READ_MFLDS_3D_RL: read field: "GtNm1   ", #   7 in fldList, rec=   7
(PID.TID 0000.0001) READ_MFLDS_3D_RL: read field: "GsNm1   ", #   8 in fldList, rec=   8
(PID.TID 0000.0001) READ_MFLDS_3D_RL: read field: "EtaN    ", #   9 in fldList, rec= 241
(PID.TID 0000.0001) READ_MFLDS_3D_RL: read field: "dEtaHdt ", #  10 in fldList, rec= 242
(PID.TID 0000.0001) READ_MFLDS_3D_RL: read field: "EtaH    ", #  11 in fldList, rec= 243
(PID.TID 0000.0001) READ_MFLDS_CHECK: - normal end ; reset MFLDS file-name: pickup.0000008640
(PID.TID 0000.0001) // =======================================================
(PID.TID 0000.0001) // Model current state
(PID.TID 0000.0001) // =======================================================
(PID.TID 0000.0001) 
(PID.TID 0000.0001) SOLVE_FOR_PRESSURE: putPmEinXvector =    F
 cg2d: Sum(rhs),rhsMax =   7.02882196890187E-13  5.97860431289981E-02
 cg2d: Sum(rhs),rhsMax =   7.18397563659323E-13  5.85500385589631E-02
 cg2d: Sum(rhs),rhsMax =   7.18577974900825E-13  5.84748540062370E-02
 cg2d: Sum(rhs),rhsMax =   7.19022064110675E-13  5.84592850693473E-02
 cg2d: Sum(rhs),rhsMax =   7.20951076615961E-13  5.84076582224301E-02
 cg2d: Sum(rhs),rhsMax =   7.19965753681606E-13  5.83786413463010E-02
 cg2d: Sum(rhs),rhsMax =   7.15968950792956E-13  5.84373788479867E-02
 cg2d: Sum(rhs),rhsMax =   7.18244907993437E-13  5.85078758449111E-02
 cg2d: Sum(rhs),rhsMax =   7.16180587057025E-13  5.85905783290469E-02
 cg2d: Sum(rhs),rhsMax =   7.12610526143465E-13  5.86837208058514E-02
(PID.TID 0000.0001) Did not write pickup because writePickupAtEnd = FALSE
 --> objf_shelfice(bi,bj) =  0.000000000000000D+00
 --> objf_shifwflx(bi,bj) =  0.000000000000000D+00
 --> objf_shelfice(bi,bj) =  0.000000000000000D+00
 --> objf_shifwflx(bi,bj) =  0.000000000000000D+00
 --> objf_shelfice(bi,bj) =  0.000000000000000D+00
 --> objf_shifwflx(bi,bj) =  0.000000000000000D+00
 --> objf_shelfice(bi,bj) =  0.000000000000000D+00
 --> objf_shifwflx(bi,bj) =  0.000000000000000D+00
 --> objf_shelfice(bi,bj) =  0.000000000000000D+00
 --> objf_shifwflx(bi,bj) =  0.000000000000000D+00
 --> objf_shelfice(bi,bj) =  0.000000000000000D+00
 --> objf_shifwflx(bi,bj) =  0.000000000000000D+00
 --> objf_shelfice(bi,bj) =  0.000000000000000D+00
 --> objf_shifwflx(bi,bj) =  0.000000000000000D+00
 --> objf_shelfice(bi,bj) =  0.000000000000000D+00
 --> objf_shifwflx(bi,bj) =  0.000000000000000D+00
  early fc =  0.000000000000000D+00
 --> objf_test(bi,bj)   =  0.272841016799505D+05
 --> objf_tracer(bi,bj) =  0.000000000000000D+00
 --> objf_atl(bi,bj)    =  0.000000000000000D+00
 --> objf_test(bi,bj)   =  0.281197589062800D+05
 --> objf_tracer(bi,bj) =  0.000000000000000D+00
 --> objf_atl(bi,bj)    =  0.000000000000000D+00
 --> objf_test(bi,bj)   =  0.489493071404754D+05
 --> objf_tracer(bi,bj) =  0.000000000000000D+00
 --> objf_atl(bi,bj)    =  0.000000000000000D+00
 --> objf_test(bi,bj)   =  0.505807692761923D+05
 --> objf_tracer(bi,bj) =  0.000000000000000D+00
 --> objf_atl(bi,bj)    =  0.000000000000000D+00
 --> objf_test(bi,bj)   =  0.526422691371117D+05
 --> objf_tracer(bi,bj) =  0.000000000000000D+00
 --> objf_atl(bi,bj)    =  0.000000000000000D+00
 --> objf_test(bi,bj)   =  0.548339856203979D+05
 --> objf_tracer(bi,bj) =  0.000000000000000D+00
 --> objf_atl(bi,bj)    =  0.000000000000000D+00
 --> objf_test(bi,bj)   =  0.526403855388282D+05
 --> objf_tracer(bi,bj) =  0.000000000000000D+00
 --> objf_atl(bi,bj)    =  0.000000000000000D+00
 --> objf_test(bi,bj)   =  0.548337349888601D+05
 --> objf_tracer(bi,bj) =  0.000000000000000D+00
 --> objf_atl(bi,bj)    =  0.000000000000000D+00
  local fc =  0.369884312288096D+06
 global fc =  0.369884312288096D+06
(PID.TID 0000.0001) grdchk perturb(-)fc: fcpertminus =  3.69884312288096E+05
grad-res -------------------------------
 grad-res     0    2   21   24   20    1    1    1   3.69884273949E+05  3.69884235772E+05  3.69884312288E+05
 grad-res     0    2    2 1580    0    1    1    1  -3.82578541618E+00 -3.82578539720E+00  4.96154273222E-09
(PID.TID 0000.0001)  ADM  ref_cost_function      =  3.69884273949161E+05
(PID.TID 0000.0001)  ADM  adjoint_gradient       = -3.82578541618451E+00
(PID.TID 0000.0001)  ADM  finite-diff_grad       = -3.82578539720271E+00
(PID.TID 0000.0001) ====== End of gradient-check number   2 (ierr=  0) =======
(PID.TID 0000.0001) ====== Starts gradient-check number   3 (=ichknum) =======
 ph-test icomp, ncvarcomp, ichknum         1581      100450           3
 ph-grd _loc: bi, bj, icomptest, ichknum            1           1        1580           3
 ph-grd -->hit<--           22          24          20           1
(PID.TID 0000.0001) grdchk pos: i,j,k=   22   24   20 ; bi,bj=   1   1 ; iobc=  1 ; rec=   1
(PID.TID 0000.0001)  nRecords = 243 ; filePrec =  64 ; fileIter =      8640
(PID.TID 0000.0001)     nDims =   2 , dims:
(PID.TID 0000.0001)    1:  50   1  50
(PID.TID 0000.0001)    2: 100   1 100
(PID.TID 0000.0001)     nFlds =  11 , nFl3D =   8 , fields:
(PID.TID 0000.0001)  >Uvel    < >Vvel    < >Theta   < >Salt    < >GuNm1   < >GvNm1   < >GtNm1   < >GsNm1   < >EtaN    < >dEtaHdt < >EtaH    <
(PID.TID 0000.0001) missingVal=  1.00000000000000E+00 ; nTimRec =   1 , timeList:
(PID.TID 0000.0001)   1.555200000000E+07
(PID.TID 0000.0001) READ_MFLDS_3D_RL: read field: "Uvel    ", #   1 in fldList, rec=   1
(PID.TID 0000.0001) READ_MFLDS_3D_RL: read field: "Vvel    ", #   2 in fldList, rec=   2
(PID.TID 0000.0001) READ_MFLDS_3D_RL: read field: "Theta   ", #   3 in fldList, rec=   3
(PID.TID 0000.0001) READ_MFLDS_3D_RL: read field: "Salt    ", #   4 in fldList, rec=   4
(PID.TID 0000.0001) READ_MFLDS_3D_RL: read field: "GuNm1   ", #   5 in fldList, rec=   5
(PID.TID 0000.0001) READ_MFLDS_3D_RL: read field: "GvNm1   ", #   6 in fldList, rec=   6
(PID.TID 0000.0001) READ_MFLDS_3D_RL: read field: "GtNm1   ", #   7 in fldList, rec=   7
(PID.TID 0000.0001) READ_MFLDS_3D_RL: read field: "GsNm1   ", #   8 in fldList, rec=   8
(PID.TID 0000.0001) READ_MFLDS_3D_RL: read field: "EtaN    ", #   9 in fldList, rec= 241
(PID.TID 0000.0001) READ_MFLDS_3D_RL: read field: "dEtaHdt ", #  10 in fldList, rec= 242
(PID.TID 0000.0001) READ_MFLDS_3D_RL: read field: "EtaH    ", #  11 in fldList, rec= 243
(PID.TID 0000.0001) READ_MFLDS_CHECK: - normal end ; reset MFLDS file-name: pickup.0000008640
(PID.TID 0000.0001) // =======================================================
(PID.TID 0000.0001) // Model current state
(PID.TID 0000.0001) // =======================================================
(PID.TID 0000.0001) 
(PID.TID 0000.0001) SOLVE_FOR_PRESSURE: putPmEinXvector =    F
 cg2d: Sum(rhs),rhsMax =   7.02771174587724E-13  5.97860431289981E-02
 cg2d: Sum(rhs),rhsMax =   7.12915837475236E-13  5.85500374583543E-02
 cg2d: Sum(rhs),rhsMax =   7.17745307632356E-13  5.84748532203676E-02
 cg2d: Sum(rhs),rhsMax =   7.15122405736679E-13  5.84592851995031E-02
 cg2d: Sum(rhs),rhsMax =   7.15649761673376E-13  5.84076587638753E-02
 cg2d: Sum(rhs),rhsMax =   7.17925718873857E-13  5.83786415144673E-02
 cg2d: Sum(rhs),rhsMax =   7.16864068106560E-13  5.84373789080156E-02
 cg2d: Sum(rhs),rhsMax =   7.19355131018062E-13  5.85078758783664E-02
 cg2d: Sum(rhs),rhsMax =   7.17141623862716E-13  5.85905783502830E-02
 cg2d: Sum(rhs),rhsMax =   7.13552480990920E-13  5.86837207588271E-02
(PID.TID 0000.0001) Did not write pickup because writePickupAtEnd = FALSE
 --> objf_shelfice(bi,bj) =  0.000000000000000D+00
 --> objf_shifwflx(bi,bj) =  0.000000000000000D+00
 --> objf_shelfice(bi,bj) =  0.000000000000000D+00
 --> objf_shifwflx(bi,bj) =  0.000000000000000D+00
 --> objf_shelfice(bi,bj) =  0.000000000000000D+00
 --> objf_shifwflx(bi,bj) =  0.000000000000000D+00
 --> objf_shelfice(bi,bj) =  0.000000000000000D+00
 --> objf_shifwflx(bi,bj) =  0.000000000000000D+00
 --> objf_shelfice(bi,bj) =  0.000000000000000D+00
 --> objf_shifwflx(bi,bj) =  0.000000000000000D+00
 --> objf_shelfice(bi,bj) =  0.000000000000000D+00
 --> objf_shifwflx(bi,bj) =  0.000000000000000D+00
 --> objf_shelfice(bi,bj) =  0.000000000000000D+00
 --> objf_shifwflx(bi,bj) =  0.000000000000000D+00
 --> objf_shelfice(bi,bj) =  0.000000000000000D+00
 --> objf_shifwflx(bi,bj) =  0.000000000000000D+00
  early fc =  0.000000000000000D+00
 --> objf_test(bi,bj)   =  0.272840251685803D+05
 --> objf_tracer(bi,bj) =  0.000000000000000D+00
 --> objf_atl(bi,bj)    =  0.000000000000000D+00
 --> objf_test(bi,bj)   =  0.281197589059057D+05
 --> objf_tracer(bi,bj) =  0.000000000000000D+00
 --> objf_atl(bi,bj)    =  0.000000000000000D+00
 --> objf_test(bi,bj)   =  0.489493071401504D+05
 --> objf_tracer(bi,bj) =  0.000000000000000D+00
 --> objf_atl(bi,bj)    =  0.000000000000000D+00
 --> objf_test(bi,bj)   =  0.505807692761657D+05
 --> objf_tracer(bi,bj) =  0.000000000000000D+00
 --> objf_atl(bi,bj)    =  0.000000000000000D+00
 --> objf_test(bi,bj)   =  0.526422691371064D+05
 --> objf_tracer(bi,bj) =  0.000000000000000D+00
 --> objf_atl(bi,bj)    =  0.000000000000000D+00
 --> objf_test(bi,bj)   =  0.548339856204002D+05
 --> objf_tracer(bi,bj) =  0.000000000000000D+00
 --> objf_atl(bi,bj)    =  0.000000000000000D+00
 --> objf_test(bi,bj)   =  0.526403855388208D+05
 --> objf_tracer(bi,bj) =  0.000000000000000D+00
 --> objf_atl(bi,bj)    =  0.000000000000000D+00
 --> objf_test(bi,bj)   =  0.548337349888574D+05
 --> objf_tracer(bi,bj) =  0.000000000000000D+00
 --> objf_atl(bi,bj)    =  0.000000000000000D+00
  local fc =  0.369884235775987D+06
 global fc =  0.369884235775987D+06
(PID.TID 0000.0001) grdchk perturb(+)fc: fcpertplus  =  3.69884235775987E+05
(PID.TID 0000.0001)  nRecords = 243 ; filePrec =  64 ; fileIter =      8640
(PID.TID 0000.0001)     nDims =   2 , dims:
(PID.TID 0000.0001)    1:  50   1  50
(PID.TID 0000.0001)    2: 100   1 100
(PID.TID 0000.0001)     nFlds =  11 , nFl3D =   8 , fields:
(PID.TID 0000.0001)  >Uvel    < >Vvel    < >Theta   < >Salt    < >GuNm1   < >GvNm1   < >GtNm1   < >GsNm1   < >EtaN    < >dEtaHdt < >EtaH    <
(PID.TID 0000.0001) missingVal=  1.00000000000000E+00 ; nTimRec =   1 , timeList:
(PID.TID 0000.0001)   1.555200000000E+07
(PID.TID 0000.0001) READ_MFLDS_3D_RL: read field: "Uvel    ", #   1 in fldList, rec=   1
(PID.TID 0000.0001) READ_MFLDS_3D_RL: read field: "Vvel    ", #   2 in fldList, rec=   2
(PID.TID 0000.0001) READ_MFLDS_3D_RL: read field: "Theta   ", #   3 in fldList, rec=   3
(PID.TID 0000.0001) READ_MFLDS_3D_RL: read field: "Salt    ", #   4 in fldList, rec=   4
(PID.TID 0000.0001) READ_MFLDS_3D_RL: read field: "GuNm1   ", #   5 in fldList, rec=   5
(PID.TID 0000.0001) READ_MFLDS_3D_RL: read field: "GvNm1   ", #   6 in fldList, rec=   6
(PID.TID 0000.0001) READ_MFLDS_3D_RL: read field: "GtNm1   ", #   7 in fldList, rec=   7
(PID.TID 0000.0001) READ_MFLDS_3D_RL: read field: "GsNm1   ", #   8 in fldList, rec=   8
(PID.TID 0000.0001) READ_MFLDS_3D_RL: read field: "EtaN    ", #   9 in fldList, rec= 241
(PID.TID 0000.0001) READ_MFLDS_3D_RL: read field: "dEtaHdt ", #  10 in fldList, rec= 242
(PID.TID 0000.0001) READ_MFLDS_3D_RL: read field: "EtaH    ", #  11 in fldList, rec= 243
(PID.TID 0000.0001) READ_MFLDS_CHECK: - normal end ; reset MFLDS file-name: pickup.0000008640
(PID.TID 0000.0001) // =======================================================
(PID.TID 0000.0001) // Model current state
(PID.TID 0000.0001) // =======================================================
(PID.TID 0000.0001) 
(PID.TID 0000.0001) SOLVE_FOR_PRESSURE: putPmEinXvector =    F
 cg2d: Sum(rhs),rhsMax =   7.02660152285262E-13  5.97860431289981E-02
 cg2d: Sum(rhs),rhsMax =   7.16690595758962E-13  5.85500385261282E-02
 cg2d: Sum(rhs),rhsMax =   7.16454673366229E-13  5.84748540214582E-02
 cg2d: Sum(rhs),rhsMax =   7.19896364742567E-13  5.84592851340955E-02
 cg2d: Sum(rhs),rhsMax =   7.17356729573737E-13  5.84076583092256E-02
 cg2d: Sum(rhs),rhsMax =   7.19313497654639E-13  5.83786414551638E-02
 cg2d: Sum(rhs),rhsMax =   7.17773063207972E-13  5.84373789821579E-02
 cg2d: Sum(rhs),rhsMax =   7.16867537553512E-13  5.85078760080250E-02
 cg2d: Sum(rhs),rhsMax =   7.14636683163405E-13  5.85905785201697E-02
 cg2d: Sum(rhs),rhsMax =   7.14610662311266E-13  5.86837210239087E-02
(PID.TID 0000.0001) Did not write pickup because writePickupAtEnd = FALSE
 --> objf_shelfice(bi,bj) =  0.000000000000000D+00
 --> objf_shifwflx(bi,bj) =  0.000000000000000D+00
 --> objf_shelfice(bi,bj) =  0.000000000000000D+00
 --> objf_shifwflx(bi,bj) =  0.000000000000000D+00
 --> objf_shelfice(bi,bj) =  0.000000000000000D+00
 --> objf_shifwflx(bi,bj) =  0.000000000000000D+00
 --> objf_shelfice(bi,bj) =  0.000000000000000D+00
 --> objf_shifwflx(bi,bj) =  0.000000000000000D+00
 --> objf_shelfice(bi,bj) =  0.000000000000000D+00
 --> objf_shifwflx(bi,bj) =  0.000000000000000D+00
 --> objf_shelfice(bi,bj) =  0.000000000000000D+00
 --> objf_shifwflx(bi,bj) =  0.000000000000000D+00
 --> objf_shelfice(bi,bj) =  0.000000000000000D+00
 --> objf_shifwflx(bi,bj) =  0.000000000000000D+00
 --> objf_shelfice(bi,bj) =  0.000000000000000D+00
 --> objf_shifwflx(bi,bj) =  0.000000000000000D+00
  early fc =  0.000000000000000D+00
 --> objf_test(bi,bj)   =  0.272841016761041D+05
 --> objf_tracer(bi,bj) =  0.000000000000000D+00
 --> objf_atl(bi,bj)    =  0.000000000000000D+00
 --> objf_test(bi,bj)   =  0.281197589065135D+05
 --> objf_tracer(bi,bj) =  0.000000000000000D+00
 --> objf_atl(bi,bj)    =  0.000000000000000D+00
 --> objf_test(bi,bj)   =  0.489493071404840D+05
 --> objf_tracer(bi,bj) =  0.000000000000000D+00
 --> objf_atl(bi,bj)    =  0.000000000000000D+00
 --> objf_test(bi,bj)   =  0.505807692761984D+05
 --> objf_tracer(bi,bj) =  0.000000000000000D+00
 --> objf_atl(bi,bj)    =  0.000000000000000D+00
 --> objf_test(bi,bj)   =  0.526422691371115D+05
 --> objf_tracer(bi,bj) =  0.000000000000000D+00
 --> objf_atl(bi,bj)    =  0.000000000000000D+00
 --> objf_test(bi,bj)   =  0.548339856203978D+05
 --> objf_tracer(bi,bj) =  0.000000000000000D+00
 --> objf_atl(bi,bj)    =  0.000000000000000D+00
 --> objf_test(bi,bj)   =  0.526403855388277D+05
 --> objf_tracer(bi,bj) =  0.000000000000000D+00
 --> objf_atl(bi,bj)    =  0.000000000000000D+00
 --> objf_test(bi,bj)   =  0.548337349888599D+05
 --> objf_tracer(bi,bj) =  0.000000000000000D+00
 --> objf_atl(bi,bj)    =  0.000000000000000D+00
  local fc =  0.369884312284497D+06
 global fc =  0.369884312284497D+06
(PID.TID 0000.0001) grdchk perturb(-)fc: fcpertminus =  3.69884312284497E+05
grad-res -------------------------------
 grad-res     0    3   22   24   20    1    1    1   3.69884273949E+05  3.69884235776E+05  3.69884312284E+05
 grad-res     0    3    3 1581    0    1    1    1  -3.82542551533E+00 -3.82542549341E+00  5.72992286951E-09
(PID.TID 0000.0001)  ADM  ref_cost_function      =  3.69884273949161E+05
(PID.TID 0000.0001)  ADM  adjoint_gradient       = -3.82542551533391E+00
(PID.TID 0000.0001)  ADM  finite-diff_grad       = -3.82542549341451E+00
(PID.TID 0000.0001) ====== End of gradient-check number   3 (ierr=  0) =======
(PID.TID 0000.0001) ====== Starts gradient-check number   4 (=ichknum) =======
 ph-test icomp, ncvarcomp, ichknum         1582      100450           4
 ph-grd _loc: bi, bj, icomptest, ichknum            1           1        1581           4
 ph-grd -->hit<--           23          24          20           1
(PID.TID 0000.0001) grdchk pos: i,j,k=   23   24   20 ; bi,bj=   1   1 ; iobc=  1 ; rec=   1
(PID.TID 0000.0001)  nRecords = 243 ; filePrec =  64 ; fileIter =      8640
(PID.TID 0000.0001)     nDims =   2 , dims:
(PID.TID 0000.0001)    1:  50   1  50
(PID.TID 0000.0001)    2: 100   1 100
(PID.TID 0000.0001)     nFlds =  11 , nFl3D =   8 , fields:
(PID.TID 0000.0001)  >Uvel    < >Vvel    < >Theta   < >Salt    < >GuNm1   < >GvNm1   < >GtNm1   < >GsNm1   < >EtaN    < >dEtaHdt < >EtaH    <
(PID.TID 0000.0001) missingVal=  1.00000000000000E+00 ; nTimRec =   1 , timeList:
(PID.TID 0000.0001)   1.555200000000E+07
(PID.TID 0000.0001) READ_MFLDS_3D_RL: read field: "Uvel    ", #   1 in fldList, rec=   1
(PID.TID 0000.0001) READ_MFLDS_3D_RL: read field: "Vvel    ", #   2 in fldList, rec=   2
(PID.TID 0000.0001) READ_MFLDS_3D_RL: read field: "Theta   ", #   3 in fldList, rec=   3
(PID.TID 0000.0001) READ_MFLDS_3D_RL: read field: "Salt    ", #   4 in fldList, rec=   4
(PID.TID 0000.0001) READ_MFLDS_3D_RL: read field: "GuNm1   ", #   5 in fldList, rec=   5
(PID.TID 0000.0001) READ_MFLDS_3D_RL: read field: "GvNm1   ", #   6 in fldList, rec=   6
(PID.TID 0000.0001) READ_MFLDS_3D_RL: read field: "GtNm1   ", #   7 in fldList, rec=   7
(PID.TID 0000.0001) READ_MFLDS_3D_RL: read field: "GsNm1   ", #   8 in fldList, rec=   8
(PID.TID 0000.0001) READ_MFLDS_3D_RL: read field: "EtaN    ", #   9 in fldList, rec= 241
(PID.TID 0000.0001) READ_MFLDS_3D_RL: read field: "dEtaHdt ", #  10 in fldList, rec= 242
(PID.TID 0000.0001) READ_MFLDS_3D_RL: read field: "EtaH    ", #  11 in fldList, rec= 243
(PID.TID 0000.0001) READ_MFLDS_CHECK: - normal end ; reset MFLDS file-name: pickup.0000008640
(PID.TID 0000.0001) // =======================================================
(PID.TID 0000.0001) // Model current state
(PID.TID 0000.0001) // =======================================================
(PID.TID 0000.0001) 
(PID.TID 0000.0001) SOLVE_FOR_PRESSURE: putPmEinXvector =    F
 cg2d: Sum(rhs),rhsMax =   7.02826685738955E-13  5.97860431289981E-02
 cg2d: Sum(rhs),rhsMax =   7.19105330837522E-13  5.85500374901225E-02
 cg2d: Sum(rhs),rhsMax =   7.18980430747251E-13  5.84748532088375E-02
 cg2d: Sum(rhs),rhsMax =   7.20493109618303E-13  5.84592851414559E-02
 cg2d: Sum(rhs),rhsMax =   7.18827775081365E-13  5.84076586848024E-02
 cg2d: Sum(rhs),rhsMax =   7.19146964200945E-13  5.83786414197416E-02
 cg2d: Sum(rhs),rhsMax =   7.20756787586652E-13  5.84373787915161E-02
 cg2d: Sum(rhs),rhsMax =   7.17155501650524E-13  5.85078757367157E-02
 cg2d: Sum(rhs),rhsMax =   7.18133885690975E-13  5.85905781842924E-02
 cg2d: Sum(rhs),rhsMax =   7.13748504743705E-13  5.86837205700453E-02
(PID.TID 0000.0001) Did not write pickup because writePickupAtEnd = FALSE
 --> objf_shelfice(bi,bj) =  0.000000000000000D+00
 --> objf_shifwflx(bi,bj) =  0.000000000000000D+00
 --> objf_shelfice(bi,bj) =  0.000000000000000D+00
 --> objf_shifwflx(bi,bj) =  0.000000000000000D+00
 --> objf_shelfice(bi,bj) =  0.000000000000000D+00
 --> objf_shifwflx(bi,bj) =  0.000000000000000D+00
 --> objf_shelfice(bi,bj) =  0.000000000000000D+00
 --> objf_shifwflx(bi,bj) =  0.000000000000000D+00
 --> objf_shelfice(bi,bj) =  0.000000000000000D+00
 --> objf_shifwflx(bi,bj) =  0.000000000000000D+00
 --> objf_shelfice(bi,bj) =  0.000000000000000D+00
 --> objf_shifwflx(bi,bj) =  0.000000000000000D+00
 --> objf_shelfice(bi,bj) =  0.000000000000000D+00
 --> objf_shifwflx(bi,bj) =  0.000000000000000D+00
 --> objf_shelfice(bi,bj) =  0.000000000000000D+00
 --> objf_shifwflx(bi,bj) =  0.000000000000000D+00
  early fc =  0.000000000000000D+00
 --> objf_test(bi,bj)   =  0.272840251717348D+05
 --> objf_tracer(bi,bj) =  0.000000000000000D+00
 --> objf_atl(bi,bj)    =  0.000000000000000D+00
 --> objf_test(bi,bj)   =  0.281197589051229D+05
 --> objf_tracer(bi,bj) =  0.000000000000000D+00
 --> objf_atl(bi,bj)    =  0.000000000000000D+00
 --> objf_test(bi,bj)   =  0.489493071402027D+05
 --> objf_tracer(bi,bj) =  0.000000000000000D+00
 --> objf_atl(bi,bj)    =  0.000000000000000D+00
 --> objf_test(bi,bj)   =  0.505807692760890D+05
 --> objf_tracer(bi,bj) =  0.000000000000000D+00
 --> objf_atl(bi,bj)    =  0.000000000000000D+00
 --> objf_test(bi,bj)   =  0.526422691371067D+05
 --> objf_tracer(bi,bj) =  0.000000000000000D+00
 --> objf_atl(bi,bj)    =  0.000000000000000D+00
 --> objf_test(bi,bj)   =  0.548339856204003D+05
 --> objf_tracer(bi,bj) =  0.000000000000000D+00
 --> objf_atl(bi,bj)    =  0.000000000000000D+00
 --> objf_test(bi,bj)   =  0.526403855388212D+05
 --> objf_tracer(bi,bj) =  0.000000000000000D+00
 --> objf_atl(bi,bj)    =  0.000000000000000D+00
 --> objf_test(bi,bj)   =  0.548337349888577D+05
 --> objf_tracer(bi,bj) =  0.000000000000000D+00
 --> objf_atl(bi,bj)    =  0.000000000000000D+00
  local fc =  0.369884235778335D+06
 global fc =  0.369884235778335D+06
(PID.TID 0000.0001) grdchk perturb(+)fc: fcpertplus  =  3.69884235778335E+05
(PID.TID 0000.0001)  nRecords = 243 ; filePrec =  64 ; fileIter =      8640
(PID.TID 0000.0001)     nDims =   2 , dims:
(PID.TID 0000.0001)    1:  50   1  50
(PID.TID 0000.0001)    2: 100   1 100
(PID.TID 0000.0001)     nFlds =  11 , nFl3D =   8 , fields:
(PID.TID 0000.0001)  >Uvel    < >Vvel    < >Theta   < >Salt    < >GuNm1   < >GvNm1   < >GtNm1   < >GsNm1   < >EtaN    < >dEtaHdt < >EtaH    <
(PID.TID 0000.0001) missingVal=  1.00000000000000E+00 ; nTimRec =   1 , timeList:
(PID.TID 0000.0001)   1.555200000000E+07
(PID.TID 0000.0001) READ_MFLDS_3D_RL: read field: "Uvel    ", #   1 in fldList, rec=   1
(PID.TID 0000.0001) READ_MFLDS_3D_RL: read field: "Vvel    ", #   2 in fldList, rec=   2
(PID.TID 0000.0001) READ_MFLDS_3D_RL: read field: "Theta   ", #   3 in fldList, rec=   3
(PID.TID 0000.0001) READ_MFLDS_3D_RL: read field: "Salt    ", #   4 in fldList, rec=   4
(PID.TID 0000.0001) READ_MFLDS_3D_RL: read field: "GuNm1   ", #   5 in fldList, rec=   5
(PID.TID 0000.0001) READ_MFLDS_3D_RL: read field: "GvNm1   ", #   6 in fldList, rec=   6
(PID.TID 0000.0001) READ_MFLDS_3D_RL: read field: "GtNm1   ", #   7 in fldList, rec=   7
(PID.TID 0000.0001) READ_MFLDS_3D_RL: read field: "GsNm1   ", #   8 in fldList, rec=   8
(PID.TID 0000.0001) READ_MFLDS_3D_RL: read field: "EtaN    ", #   9 in fldList, rec= 241
(PID.TID 0000.0001) READ_MFLDS_3D_RL: read field: "dEtaHdt ", #  10 in fldList, rec= 242
(PID.TID 0000.0001) READ_MFLDS_3D_RL: read field: "EtaH    ", #  11 in fldList, rec= 243
(PID.TID 0000.0001) READ_MFLDS_CHECK: - normal end ; reset MFLDS file-name: pickup.0000008640
(PID.TID 0000.0001) // =======================================================
(PID.TID 0000.0001) // Model current state
(PID.TID 0000.0001) // =======================================================
(PID.TID 0000.0001) 
(PID.TID 0000.0001) SOLVE_FOR_PRESSURE: putPmEinXvector =    F
 cg2d: Sum(rhs),rhsMax =   7.02660152285262E-13  5.97860431289981E-02
 cg2d: Sum(rhs),rhsMax =   7.18564097113017E-13  5.85500384943085E-02
 cg2d: Sum(rhs),rhsMax =   7.19369008805870E-13  5.84748540329601E-02
 cg2d: Sum(rhs),rhsMax =   7.17176318332235E-13  5.84592851921469E-02
 cg2d: Sum(rhs),rhsMax =   7.18231030205629E-13  5.84076583878868E-02
 cg2d: Sum(rhs),rhsMax =   7.16607329032115E-13  5.83786415495291E-02
 cg2d: Sum(rhs),rhsMax =   7.18126946797071E-13  5.84373790986426E-02
 cg2d: Sum(rhs),rhsMax =   7.17693265928077E-13  5.85078761492448E-02
 cg2d: Sum(rhs),rhsMax =   7.16097320330178E-13  5.85905786857377E-02
 cg2d: Sum(rhs),rhsMax =   7.17467751876200E-13  5.86837212120527E-02
(PID.TID 0000.0001) Did not write pickup because writePickupAtEnd = FALSE
 --> objf_shelfice(bi,bj) =  0.000000000000000D+00
 --> objf_shifwflx(bi,bj) =  0.000000000000000D+00
 --> objf_shelfice(bi,bj) =  0.000000000000000D+00
 --> objf_shifwflx(bi,bj) =  0.000000000000000D+00
 --> objf_shelfice(bi,bj) =  0.000000000000000D+00
 --> objf_shifwflx(bi,bj) =  0.000000000000000D+00
 --> objf_shelfice(bi,bj) =  0.000000000000000D+00
 --> objf_shifwflx(bi,bj) =  0.000000000000000D+00
 --> objf_shelfice(bi,bj) =  0.000000000000000D+00
 --> objf_shifwflx(bi,bj) =  0.000000000000000D+00
 --> objf_shelfice(bi,bj) =  0.000000000000000D+00
 --> objf_shifwflx(bi,bj) =  0.000000000000000D+00
 --> objf_shelfice(bi,bj) =  0.000000000000000D+00
 --> objf_shifwflx(bi,bj) =  0.000000000000000D+00
 --> objf_shelfice(bi,bj) =  0.000000000000000D+00
 --> objf_shifwflx(bi,bj) =  0.000000000000000D+00
  early fc =  0.000000000000000D+00
 --> objf_test(bi,bj)   =  0.272841016729519D+05
 --> objf_tracer(bi,bj) =  0.000000000000000D+00
 --> objf_atl(bi,bj)    =  0.000000000000000D+00
 --> objf_test(bi,bj)   =  0.281197589072942D+05
 --> objf_tracer(bi,bj) =  0.000000000000000D+00
 --> objf_atl(bi,bj)    =  0.000000000000000D+00
 --> objf_test(bi,bj)   =  0.489493071404322D+05
 --> objf_tracer(bi,bj) =  0.000000000000000D+00
 --> objf_atl(bi,bj)    =  0.000000000000000D+00
 --> objf_test(bi,bj)   =  0.505807692762748D+05
 --> objf_tracer(bi,bj) =  0.000000000000000D+00
 --> objf_atl(bi,bj)    =  0.000000000000000D+00
 --> objf_test(bi,bj)   =  0.526422691371112D+05
 --> objf_tracer(bi,bj) =  0.000000000000000D+00
 --> objf_atl(bi,bj)    =  0.000000000000000D+00
 --> objf_test(bi,bj)   =  0.548339856203977D+05
 --> objf_tracer(bi,bj) =  0.000000000000000D+00
 --> objf_atl(bi,bj)    =  0.000000000000000D+00
 --> objf_test(bi,bj)   =  0.526403855388274D+05
 --> objf_tracer(bi,bj) =  0.000000000000000D+00
 --> objf_atl(bi,bj)    =  0.000000000000000D+00
 --> objf_test(bi,bj)   =  0.548337349888595D+05
 --> objf_tracer(bi,bj) =  0.000000000000000D+00
 --> objf_atl(bi,bj)    =  0.000000000000000D+00
  local fc =  0.369884312282149D+06
 global fc =  0.369884312282149D+06
(PID.TID 0000.0001) grdchk perturb(-)fc: fcpertminus =  3.69884312282149E+05
grad-res -------------------------------
 grad-res     0    4   23   24   20    1    1    1   3.69884273949E+05  3.69884235778E+05  3.69884312282E+05
 grad-res     0    4    4 1582    0    1    1    1  -3.82519071155E+00 -3.82519068662E+00  6.51638232263E-09
(PID.TID 0000.0001)  ADM  ref_cost_function      =  3.69884273949161E+05
(PID.TID 0000.0001)  ADM  adjoint_gradient       = -3.82519071154718E+00
(PID.TID 0000.0001)  ADM  finite-diff_grad       = -3.82519068662077E+00
(PID.TID 0000.0001) ====== End of gradient-check number   4 (ierr=  0) =======
(PID.TID 0000.0001) ====== Starts gradient-check number   5 (=ichknum) =======
 ph-test icomp, ncvarcomp, ichknum         1583      100450           5
 ph-grd _loc: bi, bj, icomptest, ichknum            1           1        1582           5
 ph-grd -->hit<--           24          24          20           1
(PID.TID 0000.0001) grdchk pos: i,j,k=   24   24   20 ; bi,bj=   1   1 ; iobc=  1 ; rec=   1
(PID.TID 0000.0001)  nRecords = 243 ; filePrec =  64 ; fileIter =      8640
(PID.TID 0000.0001)     nDims =   2 , dims:
(PID.TID 0000.0001)    1:  50   1  50
(PID.TID 0000.0001)    2: 100   1 100
(PID.TID 0000.0001)     nFlds =  11 , nFl3D =   8 , fields:
(PID.TID 0000.0001)  >Uvel    < >Vvel    < >Theta   < >Salt    < >GuNm1   < >GvNm1   < >GtNm1   < >GsNm1   < >EtaN    < >dEtaHdt < >EtaH    <
(PID.TID 0000.0001) missingVal=  1.00000000000000E+00 ; nTimRec =   1 , timeList:
(PID.TID 0000.0001)   1.555200000000E+07
(PID.TID 0000.0001) READ_MFLDS_3D_RL: read field: "Uvel    ", #   1 in fldList, rec=   1
(PID.TID 0000.0001) READ_MFLDS_3D_RL: read field: "Vvel    ", #   2 in fldList, rec=   2
(PID.TID 0000.0001) READ_MFLDS_3D_RL: read field: "Theta   ", #   3 in fldList, rec=   3
(PID.TID 0000.0001) READ_MFLDS_3D_RL: read field: "Salt    ", #   4 in fldList, rec=   4
(PID.TID 0000.0001) READ_MFLDS_3D_RL: read field: "GuNm1   ", #   5 in fldList, rec=   5
(PID.TID 0000.0001) READ_MFLDS_3D_RL: read field: "GvNm1   ", #   6 in fldList, rec=   6
(PID.TID 0000.0001) READ_MFLDS_3D_RL: read field: "GtNm1   ", #   7 in fldList, rec=   7
(PID.TID 0000.0001) READ_MFLDS_3D_RL: read field: "GsNm1   ", #   8 in fldList, rec=   8
(PID.TID 0000.0001) READ_MFLDS_3D_RL: read field: "EtaN    ", #   9 in fldList, rec= 241
(PID.TID 0000.0001) READ_MFLDS_3D_RL: read field: "dEtaHdt ", #  10 in fldList, rec= 242
(PID.TID 0000.0001) READ_MFLDS_3D_RL: read field: "EtaH    ", #  11 in fldList, rec= 243
(PID.TID 0000.0001) READ_MFLDS_CHECK: - normal end ; reset MFLDS file-name: pickup.0000008640
(PID.TID 0000.0001) // =======================================================
(PID.TID 0000.0001) // Model current state
(PID.TID 0000.0001) // =======================================================
(PID.TID 0000.0001) 
(PID.TID 0000.0001) SOLVE_FOR_PRESSURE: putPmEinXvector =    F
 cg2d: Sum(rhs),rhsMax =   7.02660152285262E-13  5.97860431289981E-02
 cg2d: Sum(rhs),rhsMax =   7.16149362034457E-13  5.85500375204104E-02
 cg2d: Sum(rhs),rhsMax =   7.17856329934818E-13  5.84748532006099E-02
 cg2d: Sum(rhs),rhsMax =   7.20118409347492E-13  5.84592850893614E-02
 cg2d: Sum(rhs),rhsMax =   7.17592651966470E-13  5.84076586137488E-02
 cg2d: Sum(rhs),rhsMax =   7.18744508354519E-13  5.83786413375752E-02
 cg2d: Sum(rhs),rhsMax =   7.16017523050283E-13  5.84373786905256E-02
 cg2d: Sum(rhs),rhsMax =   7.17877146616530E-13  5.85078756141191E-02
 cg2d: Sum(rhs),rhsMax =   7.15448533750163E-13  5.85905780407630E-02
 cg2d: Sum(rhs),rhsMax =   7.13989631306866E-13  5.86837204073314E-02
(PID.TID 0000.0001) Did not write pickup because writePickupAtEnd = FALSE
 --> objf_shelfice(bi,bj) =  0.000000000000000D+00
 --> objf_shifwflx(bi,bj) =  0.000000000000000D+00
 --> objf_shelfice(bi,bj) =  0.000000000000000D+00
 --> objf_shifwflx(bi,bj) =  0.000000000000000D+00
 --> objf_shelfice(bi,bj) =  0.000000000000000D+00
 --> objf_shifwflx(bi,bj) =  0.000000000000000D+00
 --> objf_shelfice(bi,bj) =  0.000000000000000D+00
 --> objf_shifwflx(bi,bj) =  0.000000000000000D+00
 --> objf_shelfice(bi,bj) =  0.000000000000000D+00
 --> objf_shifwflx(bi,bj) =  0.000000000000000D+00
 --> objf_shelfice(bi,bj) =  0.000000000000000D+00
 --> objf_shifwflx(bi,bj) =  0.000000000000000D+00
 --> objf_shelfice(bi,bj) =  0.000000000000000D+00
 --> objf_shifwflx(bi,bj) =  0.000000000000000D+00
 --> objf_shelfice(bi,bj) =  0.000000000000000D+00
 --> objf_shifwflx(bi,bj) =  0.000000000000000D+00
  early fc =  0.000000000000000D+00
 --> objf_test(bi,bj)   =  0.272840251751515D+05
 --> objf_tracer(bi,bj) =  0.000000000000000D+00
 --> objf_atl(bi,bj)    =  0.000000000000000D+00
 --> objf_test(bi,bj)   =  0.281197589033062D+05
 --> objf_tracer(bi,bj) =  0.000000000000000D+00
 --> objf_atl(bi,bj)    =  0.000000000000000D+00
 --> objf_test(bi,bj)   =  0.489493071405001D+05
 --> objf_tracer(bi,bj) =  0.000000000000000D+00
 --> objf_atl(bi,bj)    =  0.000000000000000D+00
 --> objf_test(bi,bj)   =  0.505807692757692D+05
 --> objf_tracer(bi,bj) =  0.000000000000000D+00
 --> objf_atl(bi,bj)    =  0.000000000000000D+00
 --> objf_test(bi,bj)   =  0.526422691371069D+05
 --> objf_tracer(bi,bj) =  0.000000000000000D+00
 --> objf_atl(bi,bj)    =  0.000000000000000D+00
 --> objf_test(bi,bj)   =  0.548339856204003D+05
 --> objf_tracer(bi,bj) =  0.000000000000000D+00
 --> objf_atl(bi,bj)    =  0.000000000000000D+00
 --> objf_test(bi,bj)   =  0.526403855388216D+05
 --> objf_tracer(bi,bj) =  0.000000000000000D+00
 --> objf_atl(bi,bj)    =  0.000000000000000D+00
 --> objf_test(bi,bj)   =  0.548337349888580D+05
 --> objf_tracer(bi,bj) =  0.000000000000000D+00
 --> objf_atl(bi,bj)    =  0.000000000000000D+00
  local fc =  0.369884235779914D+06
 global fc =  0.369884235779914D+06
(PID.TID 0000.0001) grdchk perturb(+)fc: fcpertplus  =  3.69884235779914E+05
(PID.TID 0000.0001)  nRecords = 243 ; filePrec =  64 ; fileIter =      8640
(PID.TID 0000.0001)     nDims =   2 , dims:
(PID.TID 0000.0001)    1:  50   1  50
(PID.TID 0000.0001)    2: 100   1 100
(PID.TID 0000.0001)     nFlds =  11 , nFl3D =   8 , fields:
(PID.TID 0000.0001)  >Uvel    < >Vvel    < >Theta   < >Salt    < >GuNm1   < >GvNm1   < >GtNm1   < >GsNm1   < >EtaN    < >dEtaHdt < >EtaH    <
(PID.TID 0000.0001) missingVal=  1.00000000000000E+00 ; nTimRec =   1 , timeList:
(PID.TID 0000.0001)   1.555200000000E+07
(PID.TID 0000.0001) READ_MFLDS_3D_RL: read field: "Uvel    ", #   1 in fldList, rec=   1
(PID.TID 0000.0001) READ_MFLDS_3D_RL: read field: "Vvel    ", #   2 in fldList, rec=   2
(PID.TID 0000.0001) READ_MFLDS_3D_RL: read field: "Theta   ", #   3 in fldList, rec=   3
(PID.TID 0000.0001) READ_MFLDS_3D_RL: read field: "Salt    ", #   4 in fldList, rec=   4
(PID.TID 0000.0001) READ_MFLDS_3D_RL: read field: "GuNm1   ", #   5 in fldList, rec=   5
(PID.TID 0000.0001) READ_MFLDS_3D_RL: read field: "GvNm1   ", #   6 in fldList, rec=   6
(PID.TID 0000.0001) READ_MFLDS_3D_RL: read field: "GtNm1   ", #   7 in fldList, rec=   7
(PID.TID 0000.0001) READ_MFLDS_3D_RL: read field: "GsNm1   ", #   8 in fldList, rec=   8
(PID.TID 0000.0001) READ_MFLDS_3D_RL: read field: "EtaN    ", #   9 in fldList, rec= 241
(PID.TID 0000.0001) READ_MFLDS_3D_RL: read field: "dEtaHdt ", #  10 in fldList, rec= 242
(PID.TID 0000.0001) READ_MFLDS_3D_RL: read field: "EtaH    ", #  11 in fldList, rec= 243
(PID.TID 0000.0001) READ_MFLDS_CHECK: - normal end ; reset MFLDS file-name: pickup.0000008640
(PID.TID 0000.0001) // =======================================================
(PID.TID 0000.0001) // Model current state
(PID.TID 0000.0001) // =======================================================
(PID.TID 0000.0001) 
(PID.TID 0000.0001) SOLVE_FOR_PRESSURE: putPmEinXvector =    F
 cg2d: Sum(rhs),rhsMax =   7.02882196890187E-13  5.97860431289981E-02
 cg2d: Sum(rhs),rhsMax =   7.17120807181004E-13  5.85500384641847E-02
 cg2d: Sum(rhs),rhsMax =   7.16995907090734E-13  5.84748540411730E-02
 cg2d: Sum(rhs),rhsMax =   7.14456271921904E-13  5.84592852437873E-02
 cg2d: Sum(rhs),rhsMax =   7.19452275532717E-13  5.84076584587630E-02
 cg2d: Sum(rhs),rhsMax =   7.16385284427190E-13  5.83786416314314E-02
 cg2d: Sum(rhs),rhsMax =   7.18917980702116E-13  5.84373791994748E-02
 cg2d: Sum(rhs),rhsMax =   7.17311626763362E-13  5.85078762715663E-02
 cg2d: Sum(rhs),rhsMax =   7.16818965296184E-13  5.85905788289259E-02
 cg2d: Sum(rhs),rhsMax =   7.11732756064620E-13  5.86837213742539E-02
(PID.TID 0000.0001) Did not write pickup because writePickupAtEnd = FALSE
 --> objf_shelfice(bi,bj) =  0.000000000000000D+00
 --> objf_shifwflx(bi,bj) =  0.000000000000000D+00
 --> objf_shelfice(bi,bj) =  0.000000000000000D+00
 --> objf_shifwflx(bi,bj) =  0.000000000000000D+00
 --> objf_shelfice(bi,bj) =  0.000000000000000D+00
 --> objf_shifwflx(bi,bj) =  0.000000000000000D+00
 --> objf_shelfice(bi,bj) =  0.000000000000000D+00
 --> objf_shifwflx(bi,bj) =  0.000000000000000D+00
 --> objf_shelfice(bi,bj) =  0.000000000000000D+00
 --> objf_shifwflx(bi,bj) =  0.000000000000000D+00
 --> objf_shelfice(bi,bj) =  0.000000000000000D+00
 --> objf_shifwflx(bi,bj) =  0.000000000000000D+00
 --> objf_shelfice(bi,bj) =  0.000000000000000D+00
 --> objf_shifwflx(bi,bj) =  0.000000000000000D+00
 --> objf_shelfice(bi,bj) =  0.000000000000000D+00
 --> objf_shifwflx(bi,bj) =  0.000000000000000D+00
  early fc =  0.000000000000000D+00
 --> objf_test(bi,bj)   =  0.272841016694858D+05
 --> objf_tracer(bi,bj) =  0.000000000000000D+00
 --> objf_atl(bi,bj)    =  0.000000000000000D+00
 --> objf_test(bi,bj)   =  0.281197589091601D+05
 --> objf_tracer(bi,bj) =  0.000000000000000D+00
 --> objf_atl(bi,bj)    =  0.000000000000000D+00
 --> objf_test(bi,bj)   =  0.489493071401357D+05
 --> objf_tracer(bi,bj) =  0.000000000000000D+00
 --> objf_atl(bi,bj)    =  0.000000000000000D+00
 --> objf_test(bi,bj)   =  0.505807692765936D+05
 --> objf_tracer(bi,bj) =  0.000000000000000D+00
 --> objf_atl(bi,bj)    =  0.000000000000000D+00
 --> objf_test(bi,bj)   =  0.526422691371109D+05
 --> objf_tracer(bi,bj) =  0.000000000000000D+00
 --> objf_atl(bi,bj)    =  0.000000000000000D+00
 --> objf_test(bi,bj)   =  0.548339856203976D+05
 --> objf_tracer(bi,bj) =  0.000000000000000D+00
 --> objf_atl(bi,bj)    =  0.000000000000000D+00
 --> objf_test(bi,bj)   =  0.526403855388270D+05
 --> objf_tracer(bi,bj) =  0.000000000000000D+00
 --> objf_atl(bi,bj)    =  0.000000000000000D+00
 --> objf_test(bi,bj)   =  0.548337349888593D+05
 --> objf_tracer(bi,bj) =  0.000000000000000D+00
 --> objf_atl(bi,bj)    =  0.000000000000000D+00
  local fc =  0.369884312280570D+06
 global fc =  0.369884312280570D+06
(PID.TID 0000.0001) grdchk perturb(-)fc: fcpertminus =  3.69884312280570E+05
grad-res -------------------------------
 grad-res     0    5   24   24   20    1    1    1   3.69884273949E+05  3.69884235780E+05  3.69884312281E+05
 grad-res     0    5    5 1583    0    1    1    1  -3.82503281894E+00 -3.82503280707E+00  3.10267589398E-09
(PID.TID 0000.0001)  ADM  ref_cost_function      =  3.69884273949161E+05
(PID.TID 0000.0001)  ADM  adjoint_gradient       = -3.82503281893953E+00
(PID.TID 0000.0001)  ADM  finite-diff_grad       = -3.82503280707169E+00
(PID.TID 0000.0001) ====== End of gradient-check number   5 (ierr=  0) =======
(PID.TID 0000.0001) 
(PID.TID 0000.0001) // =======================================================
(PID.TID 0000.0001) // Gradient check results  >>> START <<<
(PID.TID 0000.0001) // =======================================================
(PID.TID 0000.0001) 
(PID.TID 0000.0001)  EPS =   1.000000E-02
(PID.TID 0000.0001) 
(PID.TID 0000.0001) grdchk output h.p:  Id Itile Jtile LAYER   bi   bj   X(Id)           X(Id)+/-EPS
(PID.TID 0000.0001) grdchk output h.c:  Id  FC                   FC1                  FC2
(PID.TID 0000.0001) grdchk output h.g:  Id     FC1-FC2/(2*EPS)      ADJ GRAD(FC)         1-FDGRD/ADGRD
(PID.TID 0000.0001) 
(PID.TID 0000.0001) grdchk output (p):   1    20    24    20    1    1   0.000000000E+00 -1.000000000E-02
(PID.TID 0000.0001) grdchk output (c):   1  3.6988427394916E+05  3.6988423576696E+05  3.6988431229353E+05
(PID.TID 0000.0001) grdchk output (g):   1    -3.8263285416178E+00 -3.8263285579756E+00  4.2750558648663E-09
(PID.TID 0000.0001) 
(PID.TID 0000.0001) grdchk output (p):   2    21    24    20    1    1   0.000000000E+00 -1.000000000E-02
(PID.TID 0000.0001) grdchk output (c):   2  3.6988427394916E+05  3.6988423577239E+05  3.6988431228810E+05
(PID.TID 0000.0001) grdchk output (g):   2    -3.8257853972027E+00 -3.8257854161845E+00  4.9615427322180E-09
(PID.TID 0000.0001) 
(PID.TID 0000.0001) grdchk output (p):   3    22    24    20    1    1   0.000000000E+00 -1.000000000E-02
(PID.TID 0000.0001) grdchk output (c):   3  3.6988427394916E+05  3.6988423577599E+05  3.6988431228450E+05
(PID.TID 0000.0001) grdchk output (g):   3    -3.8254254934145E+00 -3.8254255153339E+00  5.7299228695129E-09
(PID.TID 0000.0001) 
(PID.TID 0000.0001) grdchk output (p):   4    23    24    20    1    1   0.000000000E+00 -1.000000000E-02
(PID.TID 0000.0001) grdchk output (c):   4  3.6988427394916E+05  3.6988423577834E+05  3.6988431228215E+05
(PID.TID 0000.0001) grdchk output (g):   4    -3.8251906866208E+00 -3.8251907115472E+00  6.5163823226300E-09
(PID.TID 0000.0001) 
(PID.TID 0000.0001) grdchk output (p):   5    24    24    20    1    1   0.000000000E+00 -1.000000000E-02
(PID.TID 0000.0001) grdchk output (c):   5  3.6988427394916E+05  3.6988423577991E+05  3.6988431228057E+05
(PID.TID 0000.0001) grdchk output (g):   5    -3.8250328070717E+00 -3.8250328189395E+00  3.1026758939845E-09
(PID.TID 0000.0001) 
(PID.TID 0000.0001) grdchk  summary  :  RMS of    5 ratios =  5.0559838073261E-09
(PID.TID 0000.0001) 
(PID.TID 0000.0001) // =======================================================
(PID.TID 0000.0001) // Gradient check results  >>> END <<<
(PID.TID 0000.0001) // =======================================================
(PID.TID 0000.0001) 
(PID.TID 0000.0001)   Seconds in section "ALL                    [THE_MODEL_MAIN]":
(PID.TID 0000.0001)           User time:   403.50000000000000
(PID.TID 0000.0001)         System time:   1.2400000000000000
(PID.TID 0000.0001)     Wall clock time:   431.76784396171570
(PID.TID 0000.0001)          No. starts:           1
(PID.TID 0000.0001)           No. stops:           1
(PID.TID 0000.0001)   Seconds in section "INITIALISE_FIXED       [THE_MODEL_MAIN]":
(PID.TID 0000.0001)           User time:  0.84999999999999998
(PID.TID 0000.0001)         System time:  0.11000000000000000
(PID.TID 0000.0001)     Wall clock time:   16.292898893356323
(PID.TID 0000.0001)          No. starts:           1
(PID.TID 0000.0001)           No. stops:           1
(PID.TID 0000.0001)   Seconds in section "ADTHE_MAIN_LOOP          [ADJOINT RUN]":
(PID.TID 0000.0001)           User time:   165.66000000000000
(PID.TID 0000.0001)         System time:   1.0499999999999998
(PID.TID 0000.0001)     Wall clock time:   177.84920001029968
(PID.TID 0000.0001)          No. starts:           1
(PID.TID 0000.0001)           No. stops:           1
(PID.TID 0000.0001)   Seconds in section "FORWARD_STEP        [MAIN_DO_LOOP]":
(PID.TID 0000.0001)           User time:   267.25000000000000
(PID.TID 0000.0001)         System time:  8.00000000000000711E-002
(PID.TID 0000.0001)     Wall clock time:   274.15463399887085
(PID.TID 0000.0001)          No. starts:         120
(PID.TID 0000.0001)           No. stops:         120
(PID.TID 0000.0001)   Seconds in section "UPDATE_SURF_DR      [FORWARD_STEP]":
(PID.TID 0000.0001)           User time:  0.34000000000003183
(PID.TID 0000.0001)         System time:   0.0000000000000000
(PID.TID 0000.0001)     Wall clock time:  0.27564787864685059
(PID.TID 0000.0001)          No. starts:         240
(PID.TID 0000.0001)           No. stops:         240
(PID.TID 0000.0001)   Seconds in section "LOAD_FIELDS_DRIVER  [FORWARD_STEP]":
(PID.TID 0000.0001)           User time:   0.0000000000000000
(PID.TID 0000.0001)         System time:   0.0000000000000000
(PID.TID 0000.0001)     Wall clock time:  3.42297554016113281E-003
(PID.TID 0000.0001)          No. starts:         120
(PID.TID 0000.0001)           No. stops:         120
(PID.TID 0000.0001)   Seconds in section "EXTERNAL_FLDS_LOAD [LOAD_FLDS_DRIVER]":
(PID.TID 0000.0001)           User time:   0.0000000000000000
(PID.TID 0000.0001)         System time:   0.0000000000000000
(PID.TID 0000.0001)     Wall clock time:  1.39141082763671875E-003
(PID.TID 0000.0001)          No. starts:         140
(PID.TID 0000.0001)           No. stops:         140
(PID.TID 0000.0001)   Seconds in section "DO_ATMOSPHERIC_PHYS [FORWARD_STEP]":
(PID.TID 0000.0001)           User time:   0.0000000000000000
(PID.TID 0000.0001)         System time:   0.0000000000000000
(PID.TID 0000.0001)     Wall clock time:  1.09434127807617188E-003
(PID.TID 0000.0001)          No. starts:         120
(PID.TID 0000.0001)           No. stops:         120
(PID.TID 0000.0001)   Seconds in section "DO_OCEANIC_PHYS     [FORWARD_STEP]":
(PID.TID 0000.0001)           User time:   6.0899999999998613
(PID.TID 0000.0001)         System time:   0.0000000000000000
(PID.TID 0000.0001)     Wall clock time:   6.1310274600982666
(PID.TID 0000.0001)          No. starts:         120
(PID.TID 0000.0001)           No. stops:         120
(PID.TID 0000.0001)   Seconds in section "SHELFICE_THERMODYNAMICS [DO_OCEANIC_PHYS]":
(PID.TID 0000.0001)           User time:  0.69000000000011141
(PID.TID 0000.0001)         System time:   0.0000000000000000
(PID.TID 0000.0001)     Wall clock time:  0.75010061264038086
(PID.TID 0000.0001)          No. starts:         130
(PID.TID 0000.0001)           No. stops:         130
(PID.TID 0000.0001)   Seconds in section "DYNAMICS            [FORWARD_STEP]":
(PID.TID 0000.0001)           User time:   101.55000000000018
(PID.TID 0000.0001)         System time:  5.00000000000000444E-002
(PID.TID 0000.0001)     Wall clock time:   101.85913205146790
(PID.TID 0000.0001)          No. starts:         120
(PID.TID 0000.0001)           No. stops:         120
(PID.TID 0000.0001)   Seconds in section "SOLVE_FOR_PRESSURE  [FORWARD_STEP]":
(PID.TID 0000.0001)           User time:   53.389999999999986
(PID.TID 0000.0001)         System time:   0.0000000000000000
(PID.TID 0000.0001)     Wall clock time:   53.546249389648438
(PID.TID 0000.0001)          No. starts:         120
(PID.TID 0000.0001)           No. stops:         120
(PID.TID 0000.0001)   Seconds in section "MOM_CORRECTION_STEP [FORWARD_STEP]":
(PID.TID 0000.0001)           User time:   2.3599999999996157
(PID.TID 0000.0001)         System time:   0.0000000000000000
(PID.TID 0000.0001)     Wall clock time:   2.3625037670135498
(PID.TID 0000.0001)          No. starts:         120
(PID.TID 0000.0001)           No. stops:         120
(PID.TID 0000.0001)   Seconds in section "INTEGR_CONTINUITY   [FORWARD_STEP]":
(PID.TID 0000.0001)           User time:   6.2799999999999727
(PID.TID 0000.0001)         System time:   0.0000000000000000
(PID.TID 0000.0001)     Wall clock time:   6.2704019546508789
(PID.TID 0000.0001)          No. starts:         120
(PID.TID 0000.0001)           No. stops:         120
(PID.TID 0000.0001)   Seconds in section "CALC_SURF_DR      [FORWARD_STEP]":
(PID.TID 0000.0001)           User time:  0.28999999999984993
(PID.TID 0000.0001)         System time:   0.0000000000000000
(PID.TID 0000.0001)     Wall clock time:  0.27244067192077637
(PID.TID 0000.0001)          No. starts:         120
(PID.TID 0000.0001)           No. stops:         120
(PID.TID 0000.0001)   Seconds in section "BLOCKING_EXCHANGES  [FORWARD_STEP]":
(PID.TID 0000.0001)           User time:   3.0500000000000114
(PID.TID 0000.0001)         System time:   0.0000000000000000
(PID.TID 0000.0001)     Wall clock time:   3.1176064014434814
(PID.TID 0000.0001)          No. starts:         240
(PID.TID 0000.0001)           No. stops:         240
(PID.TID 0000.0001)   Seconds in section "THERMODYNAMICS      [FORWARD_STEP]":
(PID.TID 0000.0001)           User time:   71.060000000000514
(PID.TID 0000.0001)         System time:   0.0000000000000000
(PID.TID 0000.0001)     Wall clock time:   71.177618265151978
(PID.TID 0000.0001)          No. starts:         120
(PID.TID 0000.0001)           No. stops:         120
(PID.TID 0000.0001)   Seconds in section "TRC_CORRECTION_STEP [FORWARD_STEP]":
(PID.TID 0000.0001)           User time:   14.410000000000082
(PID.TID 0000.0001)         System time:   0.0000000000000000
(PID.TID 0000.0001)     Wall clock time:   14.451079607009888
(PID.TID 0000.0001)          No. starts:         120
(PID.TID 0000.0001)           No. stops:         120
(PID.TID 0000.0001)   Seconds in section "MONITOR             [FORWARD_STEP]":
(PID.TID 0000.0001)           User time:   2.4899999999999523
(PID.TID 0000.0001)         System time:   0.0000000000000000
(PID.TID 0000.0001)     Wall clock time:   2.4785313606262207
(PID.TID 0000.0001)          No. starts:         120
(PID.TID 0000.0001)           No. stops:         120
(PID.TID 0000.0001)   Seconds in section "COST_TILE           [FORWARD_STEP]":
(PID.TID 0000.0001)           User time:   5.4399999999998840
(PID.TID 0000.0001)         System time:   0.0000000000000000
(PID.TID 0000.0001)     Wall clock time:   5.4450705051422119
(PID.TID 0000.0001)          No. starts:         120
(PID.TID 0000.0001)           No. stops:         120
(PID.TID 0000.0001)   Seconds in section "DO_THE_MODEL_IO     [FORWARD_STEP]":
(PID.TID 0000.0001)           User time:  0.31999999999999318
(PID.TID 0000.0001)         System time:  2.00000000000000178E-002
(PID.TID 0000.0001)     Wall clock time:   6.5753231048583984
(PID.TID 0000.0001)          No. starts:         120
(PID.TID 0000.0001)           No. stops:         120
(PID.TID 0000.0001)   Seconds in section "DO_WRITE_PICKUP     [FORWARD_STEP]":
(PID.TID 0000.0001)           User time:  0.14000000000004320
(PID.TID 0000.0001)         System time:  1.00000000000000089E-002
(PID.TID 0000.0001)     Wall clock time:  0.16380119323730469
(PID.TID 0000.0001)          No. starts:         120
(PID.TID 0000.0001)           No. stops:         120
(PID.TID 0000.0001)   Seconds in section "GRDCHK_MAIN         [THE_MODEL_MAIN]":
(PID.TID 0000.0001)           User time:   236.99000000000001
(PID.TID 0000.0001)         System time:  8.00000000000000711E-002
(PID.TID 0000.0001)     Wall clock time:   237.58814597129822
(PID.TID 0000.0001)          No. starts:           1
(PID.TID 0000.0001)           No. stops:           1
(PID.TID 0000.0001)   Seconds in section "INITIALISE_VARIA    [THE_MAIN_LOOP]":
(PID.TID 0000.0001)           User time:   3.9799999999999045
(PID.TID 0000.0001)         System time:  5.00000000000000444E-002
(PID.TID 0000.0001)     Wall clock time:   4.0356090068817139
(PID.TID 0000.0001)          No. starts:          10
(PID.TID 0000.0001)           No. stops:          10
(PID.TID 0000.0001)   Seconds in section "MAIN LOOP           [THE_MAIN_LOOP]":
(PID.TID 0000.0001)           User time:   232.49000000000024
(PID.TID 0000.0001)         System time:   0.0000000000000000
(PID.TID 0000.0001)     Wall clock time:   233.00874710083008
(PID.TID 0000.0001)          No. starts:          10
(PID.TID 0000.0001)           No. stops:          10
(PID.TID 0000.0001)   Seconds in section "MAIN_DO_LOOP        [THE_MAIN_LOOP]":
(PID.TID 0000.0001)           User time:   219.98000000000002
(PID.TID 0000.0001)         System time:   0.0000000000000000
(PID.TID 0000.0001)     Wall clock time:   220.44242954254150
(PID.TID 0000.0001)          No. starts:         100
(PID.TID 0000.0001)           No. stops:         100
(PID.TID 0000.0001)   Seconds in section "COST_FINAL         [ADJOINT SPIN-DOWN]":
(PID.TID 0000.0001)           User time:  7.99999999999840838E-002
(PID.TID 0000.0001)         System time:   0.0000000000000000
(PID.TID 0000.0001)     Wall clock time:  8.24930667877197266E-002
(PID.TID 0000.0001)          No. starts:          10
(PID.TID 0000.0001)           No. stops:          10
(PID.TID 0000.0001) // ======================================================
(PID.TID 0000.0001) // Tile <-> Tile communication statistics
(PID.TID 0000.0001) // ======================================================
(PID.TID 0000.0001) // o Tile number: 000001
(PID.TID 0000.0001) //         No. X exchanges =              0
(PID.TID 0000.0001) //            Max. X spins =              0
(PID.TID 0000.0001) //            Min. X spins =     1000000000
(PID.TID 0000.0001) //          Total. X spins =              0
(PID.TID 0000.0001) //            Avg. X spins =       0.00E+00
(PID.TID 0000.0001) //         No. Y exchanges =              0
(PID.TID 0000.0001) //            Max. Y spins =              0
(PID.TID 0000.0001) //            Min. Y spins =     1000000000
(PID.TID 0000.0001) //          Total. Y spins =              0
(PID.TID 0000.0001) //            Avg. Y spins =       0.00E+00
(PID.TID 0000.0001) // o Tile number: 000002
(PID.TID 0000.0001) //         No. X exchanges =              0
(PID.TID 0000.0001) //            Max. X spins =              0
(PID.TID 0000.0001) //            Min. X spins =     1000000000
(PID.TID 0000.0001) //          Total. X spins =              0
(PID.TID 0000.0001) //            Avg. X spins =       0.00E+00
(PID.TID 0000.0001) //         No. Y exchanges =              0
(PID.TID 0000.0001) //            Max. Y spins =              0
(PID.TID 0000.0001) //            Min. Y spins =     1000000000
(PID.TID 0000.0001) //          Total. Y spins =              0
(PID.TID 0000.0001) //            Avg. Y spins =       0.00E+00
(PID.TID 0000.0001) // o Tile number: 000003
(PID.TID 0000.0001) //         No. X exchanges =              0
(PID.TID 0000.0001) //            Max. X spins =              0
(PID.TID 0000.0001) //            Min. X spins =     1000000000
(PID.TID 0000.0001) //          Total. X spins =              0
(PID.TID 0000.0001) //            Avg. X spins =       0.00E+00
(PID.TID 0000.0001) //         No. Y exchanges =              0
(PID.TID 0000.0001) //            Max. Y spins =              0
(PID.TID 0000.0001) //            Min. Y spins =     1000000000
(PID.TID 0000.0001) //          Total. Y spins =              0
(PID.TID 0000.0001) //            Avg. Y spins =       0.00E+00
(PID.TID 0000.0001) // o Tile number: 000004
(PID.TID 0000.0001) //         No. X exchanges =              0
(PID.TID 0000.0001) //            Max. X spins =              0
(PID.TID 0000.0001) //            Min. X spins =     1000000000
(PID.TID 0000.0001) //          Total. X spins =              0
(PID.TID 0000.0001) //            Avg. X spins =       0.00E+00
(PID.TID 0000.0001) //         No. Y exchanges =              0
(PID.TID 0000.0001) //            Max. Y spins =              0
(PID.TID 0000.0001) //            Min. Y spins =     1000000000
(PID.TID 0000.0001) //          Total. Y spins =              0
(PID.TID 0000.0001) //            Avg. Y spins =       0.00E+00
(PID.TID 0000.0001) // o Tile number: 000005
(PID.TID 0000.0001) //         No. X exchanges =              0
(PID.TID 0000.0001) //            Max. X spins =              0
(PID.TID 0000.0001) //            Min. X spins =     1000000000
(PID.TID 0000.0001) //          Total. X spins =              0
(PID.TID 0000.0001) //            Avg. X spins =       0.00E+00
(PID.TID 0000.0001) //         No. Y exchanges =              0
(PID.TID 0000.0001) //            Max. Y spins =              0
(PID.TID 0000.0001) //            Min. Y spins =     1000000000
(PID.TID 0000.0001) //          Total. Y spins =              0
(PID.TID 0000.0001) //            Avg. Y spins =       0.00E+00
(PID.TID 0000.0001) // o Tile number: 000006
(PID.TID 0000.0001) //         No. X exchanges =              0
(PID.TID 0000.0001) //            Max. X spins =              0
(PID.TID 0000.0001) //            Min. X spins =     1000000000
(PID.TID 0000.0001) //          Total. X spins =              0
(PID.TID 0000.0001) //            Avg. X spins =       0.00E+00
(PID.TID 0000.0001) //         No. Y exchanges =              0
(PID.TID 0000.0001) //            Max. Y spins =              0
(PID.TID 0000.0001) //            Min. Y spins =     1000000000
(PID.TID 0000.0001) //          Total. Y spins =              0
(PID.TID 0000.0001) //            Avg. Y spins =       0.00E+00
(PID.TID 0000.0001) // o Tile number: 000007
(PID.TID 0000.0001) //         No. X exchanges =              0
(PID.TID 0000.0001) //            Max. X spins =              0
(PID.TID 0000.0001) //            Min. X spins =     1000000000
(PID.TID 0000.0001) //          Total. X spins =              0
(PID.TID 0000.0001) //            Avg. X spins =       0.00E+00
(PID.TID 0000.0001) //         No. Y exchanges =              0
(PID.TID 0000.0001) //            Max. Y spins =              0
(PID.TID 0000.0001) //            Min. Y spins =     1000000000
(PID.TID 0000.0001) //          Total. Y spins =              0
(PID.TID 0000.0001) //            Avg. Y spins =       0.00E+00
(PID.TID 0000.0001) // o Tile number: 000008
(PID.TID 0000.0001) //         No. X exchanges =              0
(PID.TID 0000.0001) //            Max. X spins =              0
(PID.TID 0000.0001) //            Min. X spins =     1000000000
(PID.TID 0000.0001) //          Total. X spins =              0
(PID.TID 0000.0001) //            Avg. X spins =       0.00E+00
(PID.TID 0000.0001) //         No. Y exchanges =              0
(PID.TID 0000.0001) //            Max. Y spins =              0
(PID.TID 0000.0001) //            Min. Y spins =     1000000000
(PID.TID 0000.0001) //          Total. Y spins =              0
(PID.TID 0000.0001) //            Avg. Y spins =       0.00E+00
(PID.TID 0000.0001) // o Thread number: 000001
(PID.TID 0000.0001) //            No. barriers =         185138
(PID.TID 0000.0001) //      Max. barrier spins =              1
(PID.TID 0000.0001) //      Min. barrier spins =              1
(PID.TID 0000.0001) //     Total barrier spins =         185138
(PID.TID 0000.0001) //      Avg. barrier spins =       1.00E+00
PROGRAM MAIN: Execution ended Normally
