(PID.TID 0000.0001) 
(PID.TID 0000.0001) // ======================================================
(PID.TID 0000.0001) //                      MITgcm UV
(PID.TID 0000.0001) //                      =========
(PID.TID 0000.0001) // ======================================================
(PID.TID 0000.0001) // execution environment starting up...
(PID.TID 0000.0001) 
(PID.TID 0000.0001) // MITgcmUV version:  checkpoint65i
(PID.TID 0000.0001) // Build user:        jmc
(PID.TID 0000.0001) // Build host:        baudelaire
(PID.TID 0000.0001) // Build date:        Thu Feb  5 10:57:59 EST 2015
(PID.TID 0000.0001) 
(PID.TID 0000.0001) // =======================================================
(PID.TID 0000.0001) // Execution Environment parameter file "eedata"
(PID.TID 0000.0001) // =======================================================
(PID.TID 0000.0001) ># Example "eedata" file
(PID.TID 0000.0001) ># Lines beginning "#" are comments
(PID.TID 0000.0001) ># nTx - No. threads per process in X
(PID.TID 0000.0001) ># nTy - No. threads per process in Y
(PID.TID 0000.0001) > &EEPARMS
(PID.TID 0000.0001) > /
(PID.TID 0000.0001) ># Note: Some systems use & as the
(PID.TID 0000.0001) ># namelist terminator. Other systems
(PID.TID 0000.0001) ># use a / character (as shown here).
(PID.TID 0000.0001) 
(PID.TID 0000.0001) // =======================================================
(PID.TID 0000.0001) // Computational Grid Specification ( see files "SIZE.h" )
(PID.TID 0000.0001) //                                  ( and "eedata"       )
(PID.TID 0000.0001) // =======================================================
(PID.TID 0000.0001)      nPx =    1 ; /* No. processes in X */
(PID.TID 0000.0001)      nPy =    1 ; /* No. processes in Y */
(PID.TID 0000.0001)      nSx =    2 ; /* No. tiles in X per process */
(PID.TID 0000.0001)      nSy =    4 ; /* No. tiles in Y per process */
(PID.TID 0000.0001)      sNx =   25 ; /* Tile size in X */
(PID.TID 0000.0001)      sNy =   25 ; /* Tile size in Y */
(PID.TID 0000.0001)      OLx =    3 ; /* Tile overlap distance in X */
(PID.TID 0000.0001)      OLy =    3 ; /* Tile overlap distance in Y */
(PID.TID 0000.0001)      nTx =    1 ; /* No. threads in X per process */
(PID.TID 0000.0001)      nTy =    1 ; /* No. threads in Y per process */
(PID.TID 0000.0001)       Nr =   30 ; /* No. levels in the vertical   */
(PID.TID 0000.0001)       Nx =   50 ; /* Total domain size in X ( = nPx*nSx*sNx ) */
(PID.TID 0000.0001)       Ny =  100 ; /* Total domain size in Y ( = nPy*nSy*sNy ) */
(PID.TID 0000.0001)   nTiles =    8 ; /* Total no. tiles per process ( = nSx*nSy ) */
(PID.TID 0000.0001)   nProcs =    1 ; /* Total no. processes ( = nPx*nPy ) */
(PID.TID 0000.0001) nThreads =    1 ; /* Total no. threads per process ( = nTx*nTy ) */
(PID.TID 0000.0001) usingMPI =    F ; /* Flag used to control whether MPI is in use */
(PID.TID 0000.0001)                   /*  note: To execute a program with MPI calls */
(PID.TID 0000.0001)                   /*  it must be launched appropriately e.g     */
(PID.TID 0000.0001)                   /*  "mpirun -np 64 ......"                    */
(PID.TID 0000.0001) useCoupler=    F ;/* Flag used to control communications with   */
(PID.TID 0000.0001)                   /*  other model components, through a coupler */
(PID.TID 0000.0001) debugMode =    F ; /* print debug msg. (sequence of S/R calls)  */
(PID.TID 0000.0001) printMapIncludesZeros=    F ; /* print zeros in Std.Output maps */
(PID.TID 0000.0001) maxLengthPrt1D=   65 /* maxLength of 1D array printed to StdOut */
(PID.TID 0000.0001) 
(PID.TID 0000.0001) // ======================================================
(PID.TID 0000.0001) // Mapping of tiles to threads
(PID.TID 0000.0001) // ======================================================
(PID.TID 0000.0001) // -o- Thread   1, tiles (   1:   2,   1:   4)
(PID.TID 0000.0001) 
(PID.TID 0000.0001) // ======================================================
(PID.TID 0000.0001) // Tile <-> Tile connectvity table
(PID.TID 0000.0001) // ======================================================
(PID.TID 0000.0001) // Tile number: 000001 (process no. = 000000)
(PID.TID 0000.0001) //        WEST: Tile = 000002, Process = 000000, Comm = put
(PID.TID 0000.0001) //                bi = 000002, bj = 000001
(PID.TID 0000.0001) //        EAST: Tile = 000002, Process = 000000, Comm = put
(PID.TID 0000.0001) //                bi = 000002, bj = 000001
(PID.TID 0000.0001) //       SOUTH: Tile = 000007, Process = 000000, Comm = put
(PID.TID 0000.0001) //                bi = 000001, bj = 000004
(PID.TID 0000.0001) //       NORTH: Tile = 000003, Process = 000000, Comm = put
(PID.TID 0000.0001) //                bi = 000001, bj = 000002
(PID.TID 0000.0001) // Tile number: 000002 (process no. = 000000)
(PID.TID 0000.0001) //        WEST: Tile = 000001, Process = 000000, Comm = put
(PID.TID 0000.0001) //                bi = 000001, bj = 000001
(PID.TID 0000.0001) //        EAST: Tile = 000001, Process = 000000, Comm = put
(PID.TID 0000.0001) //                bi = 000001, bj = 000001
(PID.TID 0000.0001) //       SOUTH: Tile = 000008, Process = 000000, Comm = put
(PID.TID 0000.0001) //                bi = 000002, bj = 000004
(PID.TID 0000.0001) //       NORTH: Tile = 000004, Process = 000000, Comm = put
(PID.TID 0000.0001) //                bi = 000002, bj = 000002
(PID.TID 0000.0001) // Tile number: 000003 (process no. = 000000)
(PID.TID 0000.0001) //        WEST: Tile = 000004, Process = 000000, Comm = put
(PID.TID 0000.0001) //                bi = 000002, bj = 000002
(PID.TID 0000.0001) //        EAST: Tile = 000004, Process = 000000, Comm = put
(PID.TID 0000.0001) //                bi = 000002, bj = 000002
(PID.TID 0000.0001) //       SOUTH: Tile = 000001, Process = 000000, Comm = put
(PID.TID 0000.0001) //                bi = 000001, bj = 000001
(PID.TID 0000.0001) //       NORTH: Tile = 000005, Process = 000000, Comm = put
(PID.TID 0000.0001) //                bi = 000001, bj = 000003
(PID.TID 0000.0001) // Tile number: 000004 (process no. = 000000)
(PID.TID 0000.0001) //        WEST: Tile = 000003, Process = 000000, Comm = put
(PID.TID 0000.0001) //                bi = 000001, bj = 000002
(PID.TID 0000.0001) //        EAST: Tile = 000003, Process = 000000, Comm = put
(PID.TID 0000.0001) //                bi = 000001, bj = 000002
(PID.TID 0000.0001) //       SOUTH: Tile = 000002, Process = 000000, Comm = put
(PID.TID 0000.0001) //                bi = 000002, bj = 000001
(PID.TID 0000.0001) //       NORTH: Tile = 000006, Process = 000000, Comm = put
(PID.TID 0000.0001) //                bi = 000002, bj = 000003
(PID.TID 0000.0001) // Tile number: 000005 (process no. = 000000)
(PID.TID 0000.0001) //        WEST: Tile = 000006, Process = 000000, Comm = put
(PID.TID 0000.0001) //                bi = 000002, bj = 000003
(PID.TID 0000.0001) //        EAST: Tile = 000006, Process = 000000, Comm = put
(PID.TID 0000.0001) //                bi = 000002, bj = 000003
(PID.TID 0000.0001) //       SOUTH: Tile = 000003, Process = 000000, Comm = put
(PID.TID 0000.0001) //                bi = 000001, bj = 000002
(PID.TID 0000.0001) //       NORTH: Tile = 000007, Process = 000000, Comm = put
(PID.TID 0000.0001) //                bi = 000001, bj = 000004
(PID.TID 0000.0001) // Tile number: 000006 (process no. = 000000)
(PID.TID 0000.0001) //        WEST: Tile = 000005, Process = 000000, Comm = put
(PID.TID 0000.0001) //                bi = 000001, bj = 000003
(PID.TID 0000.0001) //        EAST: Tile = 000005, Process = 000000, Comm = put
(PID.TID 0000.0001) //                bi = 000001, bj = 000003
(PID.TID 0000.0001) //       SOUTH: Tile = 000004, Process = 000000, Comm = put
(PID.TID 0000.0001) //                bi = 000002, bj = 000002
(PID.TID 0000.0001) //       NORTH: Tile = 000008, Process = 000000, Comm = put
(PID.TID 0000.0001) //                bi = 000002, bj = 000004
(PID.TID 0000.0001) // Tile number: 000007 (process no. = 000000)
(PID.TID 0000.0001) //        WEST: Tile = 000008, Process = 000000, Comm = put
(PID.TID 0000.0001) //                bi = 000002, bj = 000004
(PID.TID 0000.0001) //        EAST: Tile = 000008, Process = 000000, Comm = put
(PID.TID 0000.0001) //                bi = 000002, bj = 000004
(PID.TID 0000.0001) //       SOUTH: Tile = 000005, Process = 000000, Comm = put
(PID.TID 0000.0001) //                bi = 000001, bj = 000003
(PID.TID 0000.0001) //       NORTH: Tile = 000001, Process = 000000, Comm = put
(PID.TID 0000.0001) //                bi = 000001, bj = 000001
(PID.TID 0000.0001) // Tile number: 000008 (process no. = 000000)
(PID.TID 0000.0001) //        WEST: Tile = 000007, Process = 000000, Comm = put
(PID.TID 0000.0001) //                bi = 000001, bj = 000004
(PID.TID 0000.0001) //        EAST: Tile = 000007, Process = 000000, Comm = put
(PID.TID 0000.0001) //                bi = 000001, bj = 000004
(PID.TID 0000.0001) //       SOUTH: Tile = 000006, Process = 000000, Comm = put
(PID.TID 0000.0001) //                bi = 000002, bj = 000003
(PID.TID 0000.0001) //       NORTH: Tile = 000002, Process = 000000, Comm = put
(PID.TID 0000.0001) //                bi = 000002, bj = 000001
(PID.TID 0000.0001) 
(PID.TID 0000.0001)  INI_PARMS: opening model parameter file "data"
(PID.TID 0000.0001)  OPEN_COPY_DATA_FILE: opening file data
(PID.TID 0000.0001) // =======================================================
(PID.TID 0000.0001) // Parameter file "data"
(PID.TID 0000.0001) // =======================================================
(PID.TID 0000.0001) ># ====================
(PID.TID 0000.0001) ># | Model parameters |
(PID.TID 0000.0001) ># ====================
(PID.TID 0000.0001) >#
(PID.TID 0000.0001) ># Continuous equation parameters
(PID.TID 0000.0001) > &PARM01
(PID.TID 0000.0001) > Tref = 30*-1.9,
(PID.TID 0000.0001) > Sref = 30*34.4,
(PID.TID 0000.0001) > viscAz=1.E-3,
(PID.TID 0000.0001) > viscAh=600.0,
(PID.TID 0000.0001) > no_slip_sides=.FALSE.,
(PID.TID 0000.0001) > no_slip_bottom=.FALSE.,
(PID.TID 0000.0001) > diffKhT=100.0,
(PID.TID 0000.0001) >#- diffKzT unused when compiled with ALLOW_3D_DIFFKR
(PID.TID 0000.0001) >#diffKzT=5.E-5,
(PID.TID 0000.0001) > diffKhS=100.0,
(PID.TID 0000.0001) > diffKzS=5.E-5,
(PID.TID 0000.0001) > bottomDragQuadratic=2.5E-3,
(PID.TID 0000.0001) > eosType='JMD95Z',
(PID.TID 0000.0001) > HeatCapacity_Cp = 3974.0,
(PID.TID 0000.0001) > rhoConst=1030.,
(PID.TID 0000.0001) > gravity=9.81,
(PID.TID 0000.0001) > convertFW2Salt = 33.4,
(PID.TID 0000.0001) > implicitFreeSurface=.TRUE.,
(PID.TID 0000.0001) > exactConserv=.TRUE.,
(PID.TID 0000.0001) > hFacMin=0.10,
(PID.TID 0000.0001) > nonHydrostatic=.FALSE.,
(PID.TID 0000.0001) > useCDScheme = .TRUE.,
(PID.TID 0000.0001) >#ph(
(PID.TID 0000.0001) > implicitDiffusion=.TRUE.,
(PID.TID 0000.0001) ># ivdc_kappa = 7200.,
(PID.TID 0000.0001) > staggerTimeStep=.TRUE.,
(PID.TID 0000.0001) > vectorInvariantMomentum=.TRUE.,
(PID.TID 0000.0001) > nonlinFreeSurf=2,
(PID.TID 0000.0001) > hFacInf=0.05,
(PID.TID 0000.0001) > hFacSup=2.0,
(PID.TID 0000.0001) >#ph)
(PID.TID 0000.0001) > readBinaryPrec=64,
(PID.TID 0000.0001) > useSingleCpuIO=.TRUE.,
(PID.TID 0000.0001) > /
(PID.TID 0000.0001) >
(PID.TID 0000.0001) ># Elliptic solver parameters
(PID.TID 0000.0001) > &PARM02
(PID.TID 0000.0001) > cg2dMaxIters=1000,
(PID.TID 0000.0001) > cg2dTargetResidual=1.E-13,
(PID.TID 0000.0001) > /
(PID.TID 0000.0001) >
(PID.TID 0000.0001) ># Time stepping parameters
(PID.TID 0000.0001) > &PARM03
(PID.TID 0000.0001) > nIter0=8640,
(PID.TID 0000.0001) > nTimeSteps=10,
(PID.TID 0000.0001) > deltaT=1800.0,
(PID.TID 0000.0001) > abEps=0.1,
(PID.TID 0000.0001) > cAdjFreq = 1.,
(PID.TID 0000.0001) > tauCD = 400000.,
(PID.TID 0000.0001) > pChkptFreq=0.0,
(PID.TID 0000.0001) > chkptFreq=0.0,
(PID.TID 0000.0001) > dumpFreq=0.0,
(PID.TID 0000.0001) > taveFreq=0.0,
(PID.TID 0000.0001) > monitorFreq=1.,
(PID.TID 0000.0001) > monitorSelect=2,
(PID.TID 0000.0001) > adjMonitorFreq=1800.,
(PID.TID 0000.0001) > /
(PID.TID 0000.0001) >
(PID.TID 0000.0001) ># Gridding parameters
(PID.TID 0000.0001) > &PARM04
(PID.TID 0000.0001) > usingSphericalPolarGrid=.TRUE.,
(PID.TID 0000.0001) > ygOrigin = -80.0,
(PID.TID 0000.0001) > delX=50*0.3,
(PID.TID 0000.0001) > delY=100*0.1,
(PID.TID 0000.0001) > delZ=30*30.0,
(PID.TID 0000.0001) > /
(PID.TID 0000.0001) >
(PID.TID 0000.0001) ># Input datasets
(PID.TID 0000.0001) > &PARM05
(PID.TID 0000.0001) > bathyFile='bathy.box',
(PID.TID 0000.0001) > /
(PID.TID 0000.0001) 
(PID.TID 0000.0001)  INI_PARMS ; starts to read PARM01
(PID.TID 0000.0001)  INI_PARMS ; read PARM01 : OK
(PID.TID 0000.0001)  INI_PARMS ; starts to read PARM02
(PID.TID 0000.0001)  INI_PARMS ; read PARM02 : OK
(PID.TID 0000.0001)  INI_PARMS ; starts to read PARM03
(PID.TID 0000.0001)  INI_PARMS ; read PARM03 : OK
(PID.TID 0000.0001)  INI_PARMS ; starts to read PARM04
(PID.TID 0000.0001)  INI_PARMS ; read PARM04 : OK
(PID.TID 0000.0001)  INI_PARMS ; starts to read PARM05
(PID.TID 0000.0001)  INI_PARMS ; read PARM05 : OK
(PID.TID 0000.0001)  INI_PARMS: finished reading file "data"
(PID.TID 0000.0001)  PACKAGES_BOOT: opening data.pkg
(PID.TID 0000.0001)  OPEN_COPY_DATA_FILE: opening file data.pkg
(PID.TID 0000.0001) // =======================================================
(PID.TID 0000.0001) // Parameter file "data.pkg"
(PID.TID 0000.0001) // =======================================================
(PID.TID 0000.0001) ># Packages
(PID.TID 0000.0001) > &PACKAGES
(PID.TID 0000.0001) >#useMNC=.TRUE.,
(PID.TID 0000.0001) > useShelfIce=.TRUE.,
(PID.TID 0000.0001) > useGrdchk=.TRUE.,
(PID.TID 0000.0001) > /
(PID.TID 0000.0001) 
(PID.TID 0000.0001)  PACKAGES_BOOT: finished reading data.pkg
(PID.TID 0000.0001)  PACKAGES_BOOT: On/Off package Summary
 --------  pkgs with a standard "usePKG" On/Off switch in "data.pkg":  --------
 pkg/grdchk               compiled   and   used ( useGrdchk                = T )
 pkg/ctrl                 compiled   and   used ( useCTRL                  = T )
 pkg/shelfice             compiled   and   used ( useShelfIce              = T )
 pkg/diagnostics          compiled but not used ( useDiagnostics           = F )
 pkg/mnc                  compiled but not used ( useMNC                   = F )
 -------- pkgs without standard "usePKG" On/Off switch in "data.pkg":  --------
 pkg/generic_advdiff      compiled   and   used ( useGAD                   = T )
 pkg/mom_common           compiled   and   used ( momStepping              = T )
 pkg/mom_vecinv           compiled   and   used ( +vectorInvariantMomentum = T )
 pkg/mom_fluxform         compiled but not used ( & not vectorInvariantMom = F )
 pkg/cd_code              compiled   and   used ( useCDscheme              = T )
 pkg/monitor              compiled   and   used ( monitorFreq > 0.         = T )
 pkg/debug                compiled but not used ( debugMode                = F )
 pkg/rw                   compiled   and   used
 pkg/mdsio                compiled   and   used
 pkg/autodiff             compiled   and   used
 pkg/cost                 compiled   and   used
(PID.TID 0000.0001)  PACKAGES_BOOT: End of package Summary
(PID.TID 0000.0001) 
(PID.TID 0000.0001)  SHELFICE_READPARMS: opening data.shelfice
(PID.TID 0000.0001)  OPEN_COPY_DATA_FILE: opening file data.shelfice
(PID.TID 0000.0001) // =======================================================
(PID.TID 0000.0001) // Parameter file "data.shelfice"
(PID.TID 0000.0001) // =======================================================
(PID.TID 0000.0001) ># ===================================
(PID.TID 0000.0001) ># | Parameters for SHELFICE package |
(PID.TID 0000.0001) ># ===================================
(PID.TID 0000.0001) > &SHELFICE_PARM01
(PID.TID 0000.0001) > SHELFICEboundaryLayer = .TRUE.,
(PID.TID 0000.0001) > SHELFICEtopoFile='icetopo.exp1',
(PID.TID 0000.0001) > SHELFICEloadAnomalyFile = 'phi0surf.exp1.jmd95z',
(PID.TID 0000.0001) > useISOMIPTD = .FALSE.,
(PID.TID 0000.0001) > no_slip_shelfice = .false.,
(PID.TID 0000.0001) > SHELFICEwriteState = .TRUE.,
(PID.TID 0000.0001) > /
(PID.TID 0000.0001) 
(PID.TID 0000.0001)  SHELFICE_READPARMS: finished reading data.shelfice
(PID.TID 0000.0001) AUTODIFF_READPARMS: opening data.autodiff
(PID.TID 0000.0001)  OPEN_COPY_DATA_FILE: opening file data.autodiff
(PID.TID 0000.0001) // =======================================================
(PID.TID 0000.0001) // Parameter file "data.autodiff"
(PID.TID 0000.0001) // =======================================================
(PID.TID 0000.0001) ># =========================
(PID.TID 0000.0001) ># pkg AUTODIFF parameters :
(PID.TID 0000.0001) ># =========================
(PID.TID 0000.0001) >#  inAdExact :: get an exact adjoint (no approximation) (def=.True.)
(PID.TID 0000.0001) >#
(PID.TID 0000.0001) > &AUTODIFF_PARM01
(PID.TID 0000.0001) ># inAdExact = .FALSE.,
(PID.TID 0000.0001) > /
(PID.TID 0000.0001) 
(PID.TID 0000.0001) AUTODIFF_READPARMS: finished reading data.autodiff
(PID.TID 0000.0001) // ===================================
(PID.TID 0000.0001) // AUTODIFF parameters :
(PID.TID 0000.0001) // ===================================
(PID.TID 0000.0001) inAdExact = /* get an exact adjoint (no approximation) */
(PID.TID 0000.0001)                   T
(PID.TID 0000.0001)     ;
(PID.TID 0000.0001) useKPPinAdMode = /* use KPP in adjoint mode */
(PID.TID 0000.0001)                   F
(PID.TID 0000.0001)     ;
(PID.TID 0000.0001) useGMRediInAdMode = /* use GMRedi in adjoint mode */
(PID.TID 0000.0001)                   F
(PID.TID 0000.0001)     ;
(PID.TID 0000.0001) useSEAICEinAdMode = /* use SEAICE in adjoint mode */
(PID.TID 0000.0001)                   F
(PID.TID 0000.0001)     ;
(PID.TID 0000.0001) useGGL90inAdMode = /* use GGL90 in adjoint mode */
(PID.TID 0000.0001)                   F
(PID.TID 0000.0001)     ;
(PID.TID 0000.0001) useSALT_PLUMEinAdMode = /* use SALT_PLUME in adjoint mode */
(PID.TID 0000.0001)                   F
(PID.TID 0000.0001)     ;
(PID.TID 0000.0001) dumpAdVarExch = /* control adexch before dumpinp */
(PID.TID 0000.0001)                       2
(PID.TID 0000.0001)     ;
(PID.TID 0000.0001) mon_AdVarExch = /* control adexch before monitor */
(PID.TID 0000.0001)                       2
(PID.TID 0000.0001)     ;
(PID.TID 0000.0001) viscFacInAd = /* viscosity factor for adjoint */
(PID.TID 0000.0001)                 1.000000000000000E+00
(PID.TID 0000.0001)     ;
(PID.TID 0000.0001) 
(PID.TID 0000.0001) OPTIM_READPARMS: opening data.optim
(PID.TID 0000.0001)  OPEN_COPY_DATA_FILE: opening file data.optim
(PID.TID 0000.0001) // =======================================================
(PID.TID 0000.0001) // Parameter file "data.optim"
(PID.TID 0000.0001) // =======================================================
(PID.TID 0000.0001) > &OPTIM
(PID.TID 0000.0001) > optimcycle=0,
(PID.TID 0000.0001) > /
(PID.TID 0000.0001) 
(PID.TID 0000.0001) OPTIM_READPARMS: finished reading data.optim
(PID.TID 0000.0001) CTRL_READPARMS: opening data.ctrl
(PID.TID 0000.0001)  OPEN_COPY_DATA_FILE: opening file data.ctrl
(PID.TID 0000.0001) // =======================================================
(PID.TID 0000.0001) // Parameter file "data.ctrl"
(PID.TID 0000.0001) // =======================================================
(PID.TID 0000.0001) >#
(PID.TID 0000.0001) >#
(PID.TID 0000.0001) ># *********************
(PID.TID 0000.0001) ># ECCO controlvariables
(PID.TID 0000.0001) ># *********************
(PID.TID 0000.0001) > &CTRL_NML
(PID.TID 0000.0001) > xx_theta_file      ='xx_theta',
(PID.TID 0000.0001) > xx_salt_file       ='xx_salt',
(PID.TID 0000.0001) >#
(PID.TID 0000.0001) > xx_hfluxstartdate1 = 19790101,
(PID.TID 0000.0001) > xx_hfluxstartdate2 = 000000,
(PID.TID 0000.0001) > xx_hfluxperiod     = 864000.0,
(PID.TID 0000.0001) > xx_hflux_file      = 'xx_hfl',
(PID.TID 0000.0001) >#
(PID.TID 0000.0001) > xx_sfluxstartdate1 = 19790101,
(PID.TID 0000.0001) > xx_sfluxstartdate2 = 000000,
(PID.TID 0000.0001) > xx_sfluxperiod     = 864000.0,
(PID.TID 0000.0001) > xx_sflux_file      = 'xx_sfl',
(PID.TID 0000.0001) >#
(PID.TID 0000.0001) > xx_tauustartdate1 = 19790101,
(PID.TID 0000.0001) > xx_tauustartdate2 = 000000,
(PID.TID 0000.0001) > xx_tauuperiod     = 864000.0,
(PID.TID 0000.0001) > xx_tauu_file      = 'xx_tauu',
(PID.TID 0000.0001) >#
(PID.TID 0000.0001) > xx_tauvstartdate1 = 19790101,
(PID.TID 0000.0001) > xx_tauvstartdate2 = 000000,
(PID.TID 0000.0001) > xx_tauvperiod     = 864000.0,
(PID.TID 0000.0001) > xx_tauv_file      = 'xx_tauv',
(PID.TID 0000.0001) >#
(PID.TID 0000.0001) > xx_atempstartdate1 = 19790101,
(PID.TID 0000.0001) > xx_atempstartdate2 = 000000,
(PID.TID 0000.0001) > xx_atempperiod     = 864000.0,
(PID.TID 0000.0001) > xx_atemp_file      = 'xx_atemp',
(PID.TID 0000.0001) >#
(PID.TID 0000.0001) > xx_aqhstartdate1 = 19790101,
(PID.TID 0000.0001) > xx_aqhstartdate2 = 000000,
(PID.TID 0000.0001) > xx_aqhperiod     = 864000.0,
(PID.TID 0000.0001) > xx_aqh_file      = 'xx_aqh',
(PID.TID 0000.0001) >#
(PID.TID 0000.0001) > xx_precipstartdate1 = 19790101,
(PID.TID 0000.0001) > xx_precipstartdate2 = 000000,
(PID.TID 0000.0001) > xx_precipperiod     = 864000.0,
(PID.TID 0000.0001) > xx_precip_file      = 'xx_precip',
(PID.TID 0000.0001) >#
(PID.TID 0000.0001) > xx_swdownstartdate1 = 19790101,
(PID.TID 0000.0001) > xx_swdownstartdate2 = 000000,
(PID.TID 0000.0001) > xx_swdownperiod     = 864000.0,
(PID.TID 0000.0001) > xx_swdown_file      = 'xx_swdown',
(PID.TID 0000.0001) >#
(PID.TID 0000.0001) > xx_uwindstartdate1 = 19790101,
(PID.TID 0000.0001) > xx_uwindstartdate2 = 000000,
(PID.TID 0000.0001) > xx_uwindperiod     = 864000.0,
(PID.TID 0000.0001) > xx_uwind_file      = 'xx_uwind',
(PID.TID 0000.0001) >#
(PID.TID 0000.0001) > xx_vwindstartdate1 = 19790101,
(PID.TID 0000.0001) > xx_vwindstartdate2 = 000000,
(PID.TID 0000.0001) > xx_vwindperiod     = 864000.0,
(PID.TID 0000.0001) > xx_vwind_file      = 'xx_vwind',
(PID.TID 0000.0001) >#
(PID.TID 0000.0001) > xx_sststartdate1 = 19790101,
(PID.TID 0000.0001) > xx_sststartdate2 = 000000,
(PID.TID 0000.0001) > xx_sstperiod     = 864000.0,
(PID.TID 0000.0001) > xx_sst_file      = 'xx_sst',
(PID.TID 0000.0001) >#
(PID.TID 0000.0001) > xx_sssstartdate1 = 19790101,
(PID.TID 0000.0001) > xx_sssstartdate2 = 000000,
(PID.TID 0000.0001) > xx_sssperiod     = 864000.0,
(PID.TID 0000.0001) > xx_sss_file      = 'xx_sss',
(PID.TID 0000.0001) > /
(PID.TID 0000.0001) >#
(PID.TID 0000.0001) ># *********************
(PID.TID 0000.0001) ># names for ctrl_pack/unpack
(PID.TID 0000.0001) ># *********************
(PID.TID 0000.0001) > &CTRL_PACKNAMES
(PID.TID 0000.0001) > /
(PID.TID 0000.0001) 
(PID.TID 0000.0001) CTRL_READPARMS: finished reading data.ctrl
(PID.TID 0000.0001) COST_READPARMS: opening data.cost
(PID.TID 0000.0001)  OPEN_COPY_DATA_FILE: opening file data.cost
(PID.TID 0000.0001) // =======================================================
(PID.TID 0000.0001) // Parameter file "data.cost"
(PID.TID 0000.0001) // =======================================================
(PID.TID 0000.0001) >#
(PID.TID 0000.0001) >#
(PID.TID 0000.0001) ># ******************
(PID.TID 0000.0001) ># cost function
(PID.TID 0000.0001) ># ******************
(PID.TID 0000.0001) > &COST_NML
(PID.TID 0000.0001) >#revert to default 1 month
(PID.TID 0000.0001) ># lastinterval=7776000.,
(PID.TID 0000.0001) > mult_test=1.,
(PID.TID 0000.0001) > /
(PID.TID 0000.0001) 
(PID.TID 0000.0001) COST_READPARMS: finished reading data.cost
(PID.TID 0000.0001) GRDCHK_READPARMS: opening data.grdchk
(PID.TID 0000.0001)  OPEN_COPY_DATA_FILE: opening file data.grdchk
(PID.TID 0000.0001) // =======================================================
(PID.TID 0000.0001) // Parameter file "data.grdchk"
(PID.TID 0000.0001) // =======================================================
(PID.TID 0000.0001) ># *******************
(PID.TID 0000.0001) ># ECCO gradient check
(PID.TID 0000.0001) ># *******************
(PID.TID 0000.0001) > &GRDCHK_NML
(PID.TID 0000.0001) > grdchk_eps       = 1.d-2,
(PID.TID 0000.0001) >  iglopos         = 20,
(PID.TID 0000.0001) >  jglopos         = 24,
(PID.TID 0000.0001) >  kglopos         = 20,
(PID.TID 0000.0001) ># nbeg             = 1,
(PID.TID 0000.0001) > nstep            = 1,
(PID.TID 0000.0001) > nend             = 4,
(PID.TID 0000.0001) > grdchkvarindex   = 1,
(PID.TID 0000.0001) > /
(PID.TID 0000.0001) 
(PID.TID 0000.0001) GRDCHK_READPARMS: finished reading data.grdchk
(PID.TID 0000.0001) 
(PID.TID 0000.0001) // =======================================================
(PID.TID 0000.0001) // Gradient check configuration  >>> START <<<
(PID.TID 0000.0001) // =======================================================
(PID.TID 0000.0001) 
(PID.TID 0000.0001)   grdchkvarindex :                          1
(PID.TID 0000.0001)   eps:                              0.100E-01
(PID.TID 0000.0001)   First location:                           0
(PID.TID 0000.0001)   Last location:                            4
(PID.TID 0000.0001)   Increment:                                1
(PID.TID 0000.0001)   grdchkWhichProc:                          0
(PID.TID 0000.0001)   iLocTile =       1  ,    jLocTile =       1
(PID.TID 0000.0001) 
(PID.TID 0000.0001) // =======================================================
(PID.TID 0000.0001) // Gradient check configuration  >>> END <<<
(PID.TID 0000.0001) // =======================================================
(PID.TID 0000.0001) 
(PID.TID 0000.0001) SET_PARMS: done
(PID.TID 0000.0001) Enter INI_VERTICAL_GRID: setInterFDr=    T ; setCenterDr=    F
(PID.TID 0000.0001) %MON XC_max                       =   1.4850000000000E+01
(PID.TID 0000.0001) %MON XC_min                       =   1.5000000000000E-01
(PID.TID 0000.0001) %MON XC_mean                      =   7.5000000000000E+00
(PID.TID 0000.0001) %MON XC_sd                        =   4.3292609068985E+00
(PID.TID 0000.0001) %MON XG_max                       =   1.4700000000000E+01
(PID.TID 0000.0001) %MON XG_min                       =   1.1102230246252E-16
(PID.TID 0000.0001) %MON XG_mean                      =   7.3500000000000E+00
(PID.TID 0000.0001) %MON XG_sd                        =   4.3292609068985E+00
(PID.TID 0000.0001) %MON DXC_max                      =   1.1380125394806E+04
(PID.TID 0000.0001) %MON DXC_min                      =   5.8203914905589E+03
(PID.TID 0000.0001) %MON DXC_mean                     =   8.6215028627207E+03
(PID.TID 0000.0001) %MON DXC_sd                       =   1.6219001271572E+03
(PID.TID 0000.0001) %MON DXF_max                      =   1.1380125394806E+04
(PID.TID 0000.0001) %MON DXF_min                      =   5.8203914905589E+03
(PID.TID 0000.0001) %MON DXF_mean                     =   8.6215028627207E+03
(PID.TID 0000.0001) %MON DXF_sd                       =   1.6219001271572E+03
(PID.TID 0000.0001) %MON DXG_max                      =   1.1352761512017E+04
(PID.TID 0000.0001) %MON DXG_min                      =   5.7917296935586E+03
(PID.TID 0000.0001) %MON DXG_mean                     =   8.5934208253080E+03
(PID.TID 0000.0001) %MON DXG_sd                       =   1.6222785520817E+03
(PID.TID 0000.0001) %MON DXV_max                      =   1.1352761512017E+04
(PID.TID 0000.0001) %MON DXV_min                      =   5.7917296935586E+03
(PID.TID 0000.0001) %MON DXV_mean                     =   8.5934208253080E+03
(PID.TID 0000.0001) %MON DXV_sd                       =   1.6222785520817E+03
(PID.TID 0000.0001) %MON YC_max                       =  -7.0050000000001E+01
(PID.TID 0000.0001) %MON YC_min                       =  -7.9950000000000E+01
(PID.TID 0000.0001) %MON YC_mean                      =  -7.5000000000000E+01
(PID.TID 0000.0001) %MON YC_sd                        =   2.8866070047720E+00
(PID.TID 0000.0001) %MON YG_max                       =  -7.0100000000001E+01
(PID.TID 0000.0001) %MON YG_min                       =  -8.0000000000000E+01
(PID.TID 0000.0001) %MON YG_mean                      =  -7.5050000000000E+01
(PID.TID 0000.0001) %MON YG_sd                        =   2.8866070047721E+00
(PID.TID 0000.0001) %MON DYC_max                      =   1.1117747335204E+04
(PID.TID 0000.0001) %MON DYC_min                      =   1.1117747335204E+04
(PID.TID 0000.0001) %MON DYC_mean                     =   1.1117747335204E+04
(PID.TID 0000.0001) %MON DYC_sd                       =   4.1836756281555E-11
(PID.TID 0000.0001) %MON DYF_max                      =   1.1117747335204E+04
(PID.TID 0000.0001) %MON DYF_min                      =   1.1117747335204E+04
(PID.TID 0000.0001) %MON DYF_mean                     =   1.1117747335204E+04
(PID.TID 0000.0001) %MON DYF_sd                       =   4.1836756281555E-11
(PID.TID 0000.0001) %MON DYG_max                      =   1.1117747335204E+04
(PID.TID 0000.0001) %MON DYG_min                      =   1.1117747335204E+04
(PID.TID 0000.0001) %MON DYG_mean                     =   1.1117747335204E+04
(PID.TID 0000.0001) %MON DYG_sd                       =   4.1836756281555E-11
(PID.TID 0000.0001) %MON DYU_max                      =   1.1117747335204E+04
(PID.TID 0000.0001) %MON DYU_min                      =   1.1117747335204E+04
(PID.TID 0000.0001) %MON DYU_mean                     =   1.1117747335204E+04
(PID.TID 0000.0001) %MON DYU_sd                       =   4.1836756281555E-11
(PID.TID 0000.0001) %MON RA_max                       =   1.2652134272379E+08
(PID.TID 0000.0001) %MON RA_min                       =   6.4709633770803E+07
(PID.TID 0000.0001) %MON RA_mean                      =   9.5851678311587E+07
(PID.TID 0000.0001) %MON RA_sd                        =   1.8031873527992E+07
(PID.TID 0000.0001) %MON RAW_max                      =   1.2652134272379E+08
(PID.TID 0000.0001) %MON RAW_min                      =   6.4709633770803E+07
(PID.TID 0000.0001) %MON RAW_mean                     =   9.5851678311587E+07
(PID.TID 0000.0001) %MON RAW_sd                       =   1.8031873527992E+07
(PID.TID 0000.0001) %MON RAS_max                      =   1.2621711802744E+08
(PID.TID 0000.0001) %MON RAS_min                      =   6.4390979194019E+07
(PID.TID 0000.0001) %MON RAS_mean                     =   9.5539469354603E+07
(PID.TID 0000.0001) %MON RAS_sd                       =   1.8036080760153E+07
(PID.TID 0000.0001) %MON RAZ_max                      =   1.2621711802744E+08
(PID.TID 0000.0001) %MON RAZ_min                      =   6.4390979194019E+07
(PID.TID 0000.0001) %MON RAZ_mean                     =   9.5539469354603E+07
(PID.TID 0000.0001) %MON RAZ_sd                       =   1.8036080760153E+07
(PID.TID 0000.0001) %MON AngleCS_max                  =   1.0000000000000E+00
(PID.TID 0000.0001) %MON AngleCS_min                  =   1.0000000000000E+00
(PID.TID 0000.0001) %MON AngleCS_mean                 =   1.0000000000000E+00
(PID.TID 0000.0001) %MON AngleCS_sd                   =   0.0000000000000E+00
(PID.TID 0000.0001) %MON AngleSN_max                  =   0.0000000000000E+00
(PID.TID 0000.0001) %MON AngleSN_min                  =   0.0000000000000E+00
(PID.TID 0000.0001) %MON AngleSN_mean                 =   0.0000000000000E+00
(PID.TID 0000.0001) %MON AngleSN_sd                   =   0.0000000000000E+00
(PID.TID 0000.0001) GAD_INIT_FIXED: GAD_OlMinSize=  1  0  1
(PID.TID 0000.0001) 
(PID.TID 0000.0001) // ===================================
(PID.TID 0000.0001) // GAD parameters :
(PID.TID 0000.0001) // ===================================
(PID.TID 0000.0001) tempAdvScheme =   /* Temp. Horiz.Advection scheme selector */
(PID.TID 0000.0001)                       2
(PID.TID 0000.0001)     ;
(PID.TID 0000.0001) tempVertAdvScheme =   /* Temp. Vert. Advection scheme selector */
(PID.TID 0000.0001)                       2
(PID.TID 0000.0001)     ;
(PID.TID 0000.0001) tempMultiDimAdvec =   /* use Muti-Dim Advec method for Temp */
(PID.TID 0000.0001)                   F
(PID.TID 0000.0001)     ;
(PID.TID 0000.0001) tempSOM_Advection = /* use 2nd Order Moment Advection for Temp */
(PID.TID 0000.0001)                   F
(PID.TID 0000.0001)     ;
(PID.TID 0000.0001) AdamsBashforthGt = /* apply Adams-Bashforth extrapolation on Gt */
(PID.TID 0000.0001)                   T
(PID.TID 0000.0001)     ;
(PID.TID 0000.0001) AdamsBashforth_T = /* apply Adams-Bashforth extrapolation on Temp */
(PID.TID 0000.0001)                   F
(PID.TID 0000.0001)     ;
(PID.TID 0000.0001) saltAdvScheme =   /* Salt. Horiz.advection scheme selector */
(PID.TID 0000.0001)                       2
(PID.TID 0000.0001)     ;
(PID.TID 0000.0001) saltVertAdvScheme =   /* Salt. Vert. Advection scheme selector */
(PID.TID 0000.0001)                       2
(PID.TID 0000.0001)     ;
(PID.TID 0000.0001) saltMultiDimAdvec =   /* use Muti-Dim Advec method for Salt */
(PID.TID 0000.0001)                   F
(PID.TID 0000.0001)     ;
(PID.TID 0000.0001) saltSOM_Advection = /* use 2nd Order Moment Advection for Salt */
(PID.TID 0000.0001)                   F
(PID.TID 0000.0001)     ;
(PID.TID 0000.0001) AdamsBashforthGs = /* apply Adams-Bashforth extrapolation on Gs */
(PID.TID 0000.0001)                   T
(PID.TID 0000.0001)     ;
(PID.TID 0000.0001) AdamsBashforth_S = /* apply Adams-Bashforth extrapolation on Salt */
(PID.TID 0000.0001)                   F
(PID.TID 0000.0001)     ;
(PID.TID 0000.0001) // ===================================
(PID.TID 0000.0001) ctrl-wet 1:    nvarlength =       306201
(PID.TID 0000.0001) ctrl-wet 2: surface wet C =            0
(PID.TID 0000.0001) ctrl-wet 3: surface wet W =            0
(PID.TID 0000.0001) ctrl-wet 4: surface wet S =            0
(PID.TID 0000.0001) ctrl-wet 4a:surface wet V =            0
(PID.TID 0000.0001) ctrl-wet 5: 3D wet points =         7200
(PID.TID 0000.0001) ctrl-wet 6: no recs for i =     1           1
(PID.TID 0000.0001) ctrl-wet 6: no recs for i =     2           1
(PID.TID 0000.0001) ctrl-wet 6: no recs for i =     3           0
(PID.TID 0000.0001) ctrl-wet 6: no recs for i =     4           0
(PID.TID 0000.0001) ctrl-wet 6: no recs for i =     5           0
(PID.TID 0000.0001) ctrl-wet 6: no recs for i =     6           0
(PID.TID 0000.0001) ctrl-wet 6: no recs for i =     7           0
(PID.TID 0000.0001) ctrl-wet 6: no recs for i =     8           0
(PID.TID 0000.0001) ctrl-wet 6: no recs for i =     9           0
(PID.TID 0000.0001) ctrl-wet 6: no recs for i =    10           0
(PID.TID 0000.0001) ctrl-wet 6: no recs for i =    11           0
(PID.TID 0000.0001) ctrl-wet 6: no recs for i =    12           0
(PID.TID 0000.0001) ctrl-wet 6: no recs for i =    13           0
(PID.TID 0000.0001) ctrl-wet 6: no recs for i =    14           0
(PID.TID 0000.0001) ctrl-wet 6: no recs for i =    15           1
(PID.TID 0000.0001) ctrl-wet 6: no recs for i =    16           0
(PID.TID 0000.0001) ctrl-wet 6: no recs for i =    17           0
(PID.TID 0000.0001) ctrl-wet 6: no recs for i =    18           0
(PID.TID 0000.0001) ctrl-wet 6: no recs for i =    19           0
(PID.TID 0000.0001) ctrl-wet 6: no recs for i =    20           0
(PID.TID 0000.0001) ctrl-wet 6: no recs for i =    21           0
(PID.TID 0000.0001) ctrl-wet 6: no recs for i =    22           0
(PID.TID 0000.0001) ctrl-wet 6: no recs for i =    23           0
(PID.TID 0000.0001) ctrl-wet 6: no recs for i =    24           0
(PID.TID 0000.0001) ctrl-wet 6: no recs for i =    25           0
(PID.TID 0000.0001) ctrl-wet 6: no recs for i =    26           0
(PID.TID 0000.0001) ctrl-wet 6: no recs for i =    27           0
(PID.TID 0000.0001) ctrl-wet 6: no recs for i =    28           0
(PID.TID 0000.0001) ctrl-wet 6: no recs for i =    29           0
(PID.TID 0000.0001) ctrl-wet 6: no recs for i =    30           0
(PID.TID 0000.0001) ctrl-wet 6: no recs for i =    31           0
(PID.TID 0000.0001) ctrl-wet 6: no recs for i =    32           0
(PID.TID 0000.0001) ctrl-wet 6: no recs for i =    33           0
(PID.TID 0000.0001) ctrl-wet 6: no recs for i =    34           0
(PID.TID 0000.0001) ctrl-wet 6: no recs for i =    35           0
(PID.TID 0000.0001) ctrl-wet 6: no recs for i =    36           0
(PID.TID 0000.0001) ctrl-wet 6: no recs for i =    37           0
(PID.TID 0000.0001) ctrl-wet 6: no recs for i =    38           0
(PID.TID 0000.0001) ctrl-wet 6: no recs for i =    39           0
(PID.TID 0000.0001) ctrl-wet 6: no recs for i =    40           0
(PID.TID 0000.0001) ctrl-wet 6: no recs for i =    41           0
(PID.TID 0000.0001) ctrl-wet 6: no recs for i =    42           0
(PID.TID 0000.0001) ctrl-wet 6: no recs for i =    43           0
(PID.TID 0000.0001) ctrl-wet 6: no recs for i =    44           0
(PID.TID 0000.0001) ctrl-wet 6: no recs for i =    45           1
(PID.TID 0000.0001) ctrl-wet 6: no recs for i =    46           0
(PID.TID 0000.0001) ctrl-wet 6: no recs for i =    47           0
(PID.TID 0000.0001) ctrl-wet 6: no recs for i =    48           0
(PID.TID 0000.0001) ctrl-wet 6: no recs for i =    49           0
(PID.TID 0000.0001) ctrl-wet 6: no recs for i =    50           0
(PID.TID 0000.0001) ctrl-wet 6: no recs for i =    51           0
(PID.TID 0000.0001) ctrl-wet 6: no recs for i =    52           0
(PID.TID 0000.0001) ctrl-wet 6: no recs for i =    53           0
(PID.TID 0000.0001) ctrl-wet 6: no recs for i =    54           0
(PID.TID 0000.0001) ctrl-wet 6: no recs for i =    55           0
(PID.TID 0000.0001) ctrl-wet 6: no recs for i =    56           0
(PID.TID 0000.0001) ctrl-wet 6: no recs for i =    57           0
(PID.TID 0000.0001) ctrl-wet 6: no recs for i =    58           0
(PID.TID 0000.0001) ctrl-wet 6: no recs for i =    59           0
(PID.TID 0000.0001) ctrl-wet 6: no recs for i =    60           0
(PID.TID 0000.0001) ctrl-wet 7: flux         14400
(PID.TID 0000.0001) ctrl-wet 8: atmos        14400
(PID.TID 0000.0001) ctrl-wet -------------------------------------------------
(PID.TID 0000.0001) ctrl-wet 13: global nvarlength for Nr =   30      306201
(PID.TID 0000.0001) ctrl-wet -------------------------------------------------
(PID.TID 0000.0001) ctrl-wet 14: global nWet C/S/W/V k=    1           0           0           0           0
(PID.TID 0000.0001) ctrl-wet 14: global nWet C/S/W/V k=    2           0           0           0           0
(PID.TID 0000.0001) ctrl-wet 14: global nWet C/S/W/V k=    3           0           0           0           0
(PID.TID 0000.0001) ctrl-wet 14: global nWet C/S/W/V k=    4           0           0           0           0
(PID.TID 0000.0001) ctrl-wet 14: global nWet C/S/W/V k=    5           0           0           0           0
(PID.TID 0000.0001) ctrl-wet 14: global nWet C/S/W/V k=    6           0           0           0           0
(PID.TID 0000.0001) ctrl-wet 14: global nWet C/S/W/V k=    7        2989        2940        2928           0
(PID.TID 0000.0001) ctrl-wet 14: global nWet C/S/W/V k=    8        3087        3038        3024           0
(PID.TID 0000.0001) ctrl-wet 14: global nWet C/S/W/V k=    9        3185        3136        3120           0
(PID.TID 0000.0001) ctrl-wet 14: global nWet C/S/W/V k=   10        3332        3283        3264           0
(PID.TID 0000.0001) ctrl-wet 14: global nWet C/S/W/V k=   11        3430        3381        3360           0
(PID.TID 0000.0001) ctrl-wet 14: global nWet C/S/W/V k=   12        3577        3528        3504           0
(PID.TID 0000.0001) ctrl-wet 14: global nWet C/S/W/V k=   13        3675        3626        3600           0
(PID.TID 0000.0001) ctrl-wet 14: global nWet C/S/W/V k=   14        3773        3724        3696           0
(PID.TID 0000.0001) ctrl-wet 14: global nWet C/S/W/V k=   15        3920        3871        3840           0
(PID.TID 0000.0001) ctrl-wet 14: global nWet C/S/W/V k=   16        4018        3969        3936           0
(PID.TID 0000.0001) ctrl-wet 14: global nWet C/S/W/V k=   17        4165        4116        4080           0
(PID.TID 0000.0001) ctrl-wet 14: global nWet C/S/W/V k=   18        4263        4214        4176           0
(PID.TID 0000.0001) ctrl-wet 14: global nWet C/S/W/V k=   19        4361        4312        4272           0
(PID.TID 0000.0001) ctrl-wet 14: global nWet C/S/W/V k=   20        4508        4459        4416           0
(PID.TID 0000.0001) ctrl-wet 14: global nWet C/S/W/V k=   21        4606        4557        4512           0
(PID.TID 0000.0001) ctrl-wet 14: global nWet C/S/W/V k=   22        4753        4704        4656           0
(PID.TID 0000.0001) ctrl-wet 14: global nWet C/S/W/V k=   23        4851        4802        4752           0
(PID.TID 0000.0001) ctrl-wet 14: global nWet C/S/W/V k=   24        4851        4802        4752           0
(PID.TID 0000.0001) ctrl-wet 14: global nWet C/S/W/V k=   25        4851        4802        4752           0
(PID.TID 0000.0001) ctrl-wet 14: global nWet C/S/W/V k=   26        4851        4802        4752           0
(PID.TID 0000.0001) ctrl-wet 14: global nWet C/S/W/V k=   27        4851        4802        4752           0
(PID.TID 0000.0001) ctrl-wet 14: global nWet C/S/W/V k=   28        4851        4802        4752           0
(PID.TID 0000.0001) ctrl-wet 14: global nWet C/S/W/V k=   29        4851        4802        4752           0
(PID.TID 0000.0001) ctrl-wet 14: global nWet C/S/W/V k=   30        4851        4802        4752           0
(PID.TID 0000.0001) ctrl-wet -------------------------------------------------
(PID.TID 0000.0001) ctrl-wet -------------------------------------------------
(PID.TID 0000.0001) ctrl-wet -------------------------------------------------
(PID.TID 0000.0001) ctrl-wet 17a:surface wet I =          576
(PID.TID 0000.0001) ctrl-wet 17b: global nWet I k=    1        4851
(PID.TID 0000.0001) ctrl-wet 17b: global nWet I k=    2           0
(PID.TID 0000.0001) ctrl-wet 17b: global nWet I k=    3           0
(PID.TID 0000.0001) ctrl-wet 17b: global nWet I k=    4           0
(PID.TID 0000.0001) ctrl-wet 17b: global nWet I k=    5           0
(PID.TID 0000.0001) ctrl-wet 17b: global nWet I k=    6           0
(PID.TID 0000.0001) ctrl-wet 17b: global nWet I k=    7        2989
(PID.TID 0000.0001) ctrl-wet 17b: global nWet I k=    8        3087
(PID.TID 0000.0001) ctrl-wet 17b: global nWet I k=    9        3185
(PID.TID 0000.0001) ctrl-wet 17b: global nWet I k=   10        3332
(PID.TID 0000.0001) ctrl-wet 17b: global nWet I k=   11        3430
(PID.TID 0000.0001) ctrl-wet 17b: global nWet I k=   12        3577
(PID.TID 0000.0001) ctrl-wet 17b: global nWet I k=   13        3675
(PID.TID 0000.0001) ctrl-wet 17b: global nWet I k=   14        3773
(PID.TID 0000.0001) ctrl-wet 17b: global nWet I k=   15        3920
(PID.TID 0000.0001) ctrl-wet 17b: global nWet I k=   16        4018
(PID.TID 0000.0001) ctrl-wet 17b: global nWet I k=   17        4165
(PID.TID 0000.0001) ctrl-wet 17b: global nWet I k=   18        4263
(PID.TID 0000.0001) ctrl-wet 17b: global nWet I k=   19        4361
(PID.TID 0000.0001) ctrl-wet 17b: global nWet I k=   20        4508
(PID.TID 0000.0001) ctrl-wet 17b: global nWet I k=   21        4606
(PID.TID 0000.0001) ctrl-wet 17b: global nWet I k=   22        4753
(PID.TID 0000.0001) ctrl-wet 17b: global nWet I k=   23        4851
(PID.TID 0000.0001) ctrl-wet 17b: global nWet I k=   24        4851
(PID.TID 0000.0001) ctrl-wet 17b: global nWet I k=   25        4851
(PID.TID 0000.0001) ctrl-wet 17b: global nWet I k=   26        4851
(PID.TID 0000.0001) ctrl-wet 17b: global nWet I k=   27        4851
(PID.TID 0000.0001) ctrl-wet 17b: global nWet I k=   28        4851
(PID.TID 0000.0001) ctrl-wet 17b: global nWet I k=   29        4851
(PID.TID 0000.0001) ctrl-wet 17b: global nWet I k=   30        4851
(PID.TID 0000.0001) ctrl-wet 17c: global SUM(K) shifwflx         4851
(PID.TID 0000.0001) ctrl-wet -------------------------------------------------
(PID.TID 0000.0001) ctrl_init: no. of control variables:            4
(PID.TID 0000.0001) ctrl_init: control vector length:          306201
(PID.TID 0000.0001) 
(PID.TID 0000.0001) // =======================================================
(PID.TID 0000.0001) // control vector configuration  >>> START <<<
(PID.TID 0000.0001) // =======================================================
(PID.TID 0000.0001) 
(PID.TID 0000.0001)  Total number of ocean points per tile:
(PID.TID 0000.0001)  --------------------------------------
(PID.TID 0000.0001)  snx*sny*nr =    18750
(PID.TID 0000.0001) 
(PID.TID 0000.0001)  Number of ocean points per tile:
(PID.TID 0000.0001)  --------------------------------
(PID.TID 0000.0001)  bi,bj,#(c/s/w): 0001 0001 007200 006792 006900
(PID.TID 0000.0001)  bi,bj,#(c/s/w): 0002 0001 007500 007075 007500
(PID.TID 0000.0001)  bi,bj,#(c/s/w): 0001 0002 013200 013032 012650
(PID.TID 0000.0001)  bi,bj,#(c/s/w): 0002 0002 013750 013575 013750
(PID.TID 0000.0001)  bi,bj,#(c/s/w): 0001 0003 014400 014400 013800
(PID.TID 0000.0001)  bi,bj,#(c/s/w): 0002 0003 015000 015000 015000
(PID.TID 0000.0001)  bi,bj,#(c/s/w): 0001 0004 014400 014400 013800
(PID.TID 0000.0001)  bi,bj,#(c/s/w): 0002 0004 015000 015000 015000
(PID.TID 0000.0001) 
(PID.TID 0000.0001)  Initial state temperature contribution:
(PID.TID 0000.0001)  Control variable index:    0101
(PID.TID 0000.0001) 
(PID.TID 0000.0001)  Initial state salinity contribution:
(PID.TID 0000.0001)  Control variable index:    0102
(PID.TID 0000.0001) 
(PID.TID 0000.0001) // =======================================================
(PID.TID 0000.0001) // control vector configuration  >>> END <<<
(PID.TID 0000.0001) // =======================================================
(PID.TID 0000.0001) 
(PID.TID 0000.0001) %MON fCori_max                    =  -1.3709057042516E-04
(PID.TID 0000.0001) %MON fCori_min                    =  -1.4360464034757E-04
(PID.TID 0000.0001) %MON fCori_mean                   =  -1.4069429304698E-04
(PID.TID 0000.0001) %MON fCori_sd                     =   1.9069739624987E-06
(PID.TID 0000.0001) %MON fCoriG_max                   =  -1.3713394327439E-04
(PID.TID 0000.0001) %MON fCoriG_min                   =  -1.4362679550910E-04
(PID.TID 0000.0001) %MON fCoriG_mean                  =  -1.4072713798624E-04
(PID.TID 0000.0001) %MON fCoriG_sd                    =   1.9008093726821E-06
(PID.TID 0000.0001) %MON fCoriCos_max                 =   4.9761447480159E-05
(PID.TID 0000.0001) %MON fCoriCos_min                 =   2.5450607565678E-05
(PID.TID 0000.0001) %MON fCoriCos_mean                =   3.7698922201606E-05
(PID.TID 0000.0001) %MON fCoriCos_sd                  =   7.0920218535055E-06
(PID.TID 0000.0001) INI_CG2D: CG2D normalisation factor =  1.0404366262810520E-03
(PID.TID 0000.0001) 
(PID.TID 0000.0001) // =======================================================
(PID.TID 0000.0001) // Model configuration
(PID.TID 0000.0001) // =======================================================
(PID.TID 0000.0001) //
(PID.TID 0000.0001) // "Physical" paramters ( PARM01 in namelist )
(PID.TID 0000.0001) //
(PID.TID 0000.0001) buoyancyRelation = /* Type of relation to get Buoyancy */
(PID.TID 0000.0001)               'OCEANIC'
(PID.TID 0000.0001)     ;
(PID.TID 0000.0001) fluidIsAir   =  /* fluid major constituent is Air */
(PID.TID 0000.0001)                   F
(PID.TID 0000.0001)     ;
(PID.TID 0000.0001) fluidIsWater =  /* fluid major constituent is Water */
(PID.TID 0000.0001)                   T
(PID.TID 0000.0001)     ;
(PID.TID 0000.0001) usingPCoords =  /* use p (or p*) vertical coordinate */
(PID.TID 0000.0001)                   F
(PID.TID 0000.0001)     ;
(PID.TID 0000.0001) usingZCoords =  /* use z (or z*) vertical coordinate */
(PID.TID 0000.0001)                   T
(PID.TID 0000.0001)     ;
(PID.TID 0000.0001) tRef =   /* Reference temperature profile ( oC or K ) */
(PID.TID 0000.0001)    30 @ -1.900000000000000E+00              /* K =  1: 30 */
(PID.TID 0000.0001)     ;
(PID.TID 0000.0001) sRef =   /* Reference salinity profile ( psu ) */
(PID.TID 0000.0001)    30 @  3.440000000000000E+01              /* K =  1: 30 */
(PID.TID 0000.0001)     ;
(PID.TID 0000.0001) useStrainTensionVisc= /* Use StrainTension Form of Viscous Operator */
(PID.TID 0000.0001)                   F
(PID.TID 0000.0001)     ;
(PID.TID 0000.0001) useVariableVisc = /* Use variable horizontal viscosity */
(PID.TID 0000.0001)                   F
(PID.TID 0000.0001)     ;
(PID.TID 0000.0001) useHarmonicVisc = /* Use harmonic horizontal viscosity */
(PID.TID 0000.0001)                   T
(PID.TID 0000.0001)     ;
(PID.TID 0000.0001) useBiharmonicVisc= /* Use biharmonic horiz.  viscosity */
(PID.TID 0000.0001)                   F
(PID.TID 0000.0001)     ;
(PID.TID 0000.0001) useSmag3D = /* Use isotropic 3-D Smagorinsky viscosity */
(PID.TID 0000.0001)                   F
(PID.TID 0000.0001)     ;
(PID.TID 0000.0001) viscAh  =   /* Lateral harmonic viscosity ( m^2/s ) */
(PID.TID 0000.0001)                 6.000000000000000E+02
(PID.TID 0000.0001)     ;
(PID.TID 0000.0001) viscA4  =   /* Lateral biharmonic viscosity ( m^4/s ) */
(PID.TID 0000.0001)                 0.000000000000000E+00
(PID.TID 0000.0001)     ;
(PID.TID 0000.0001) no_slip_sides =  /* Viscous BCs: No-slip sides */
(PID.TID 0000.0001)                   F
(PID.TID 0000.0001)     ;
(PID.TID 0000.0001) sideDragFactor = /* side-drag scaling factor (non-dim) */
(PID.TID 0000.0001)                 2.000000000000000E+00
(PID.TID 0000.0001)     ;
(PID.TID 0000.0001) viscArNr = /* vertical profile of vertical viscosity ( m^2/s )*/
(PID.TID 0000.0001)    30 @  1.000000000000000E-03              /* K =  1: 30 */
(PID.TID 0000.0001)     ;
(PID.TID 0000.0001) no_slip_bottom =  /* Viscous BCs: No-slip bottom */
(PID.TID 0000.0001)                   F
(PID.TID 0000.0001)     ;
(PID.TID 0000.0001) bottomVisc_pCell = /* Partial-cell in bottom Visc. BC */
(PID.TID 0000.0001)                   F
(PID.TID 0000.0001)     ;
(PID.TID 0000.0001) bottomDragLinear = /* linear bottom-drag coefficient ( m/s ) */
(PID.TID 0000.0001)                 0.000000000000000E+00
(PID.TID 0000.0001)     ;
(PID.TID 0000.0001) bottomDragQuadratic = /* quadratic bottom-drag coefficient (-) */
(PID.TID 0000.0001)                 2.500000000000000E-03
(PID.TID 0000.0001)     ;
(PID.TID 0000.0001) selectBotDragQuadr = /* select quadratic bottom drag options */
(PID.TID 0000.0001)                       0
(PID.TID 0000.0001)     ;
(PID.TID 0000.0001) diffKhT =   /* Laplacian diffusion of heat laterally ( m^2/s ) */
(PID.TID 0000.0001)                 1.000000000000000E+02
(PID.TID 0000.0001)     ;
(PID.TID 0000.0001) diffK4T =   /* Biharmonic diffusion of heat laterally ( m^4/s ) */
(PID.TID 0000.0001)                 0.000000000000000E+00
(PID.TID 0000.0001)     ;
(PID.TID 0000.0001) diffKhS =   /* Laplacian diffusion of salt laterally ( m^2/s ) */
(PID.TID 0000.0001)                 1.000000000000000E+02
(PID.TID 0000.0001)     ;
(PID.TID 0000.0001) diffK4S =   /* Biharmonic diffusion of salt laterally ( m^4/s ) */
(PID.TID 0000.0001)                 0.000000000000000E+00
(PID.TID 0000.0001)     ;
(PID.TID 0000.0001) diffKrNrT = /* vertical profile of vertical diffusion of Temp ( m^2/s )*/
(PID.TID 0000.0001)    30 @  0.000000000000000E+00              /* K =  1: 30 */
(PID.TID 0000.0001)     ;
(PID.TID 0000.0001) diffKrNrS = /* vertical profile of vertical diffusion of Salt ( m^2/s )*/
(PID.TID 0000.0001)    30 @  5.000000000000000E-05              /* K =  1: 30 */
(PID.TID 0000.0001)     ;
(PID.TID 0000.0001) diffKrBL79surf = /* Surface diffusion for Bryan and Lewis 79 ( m^2/s ) */
(PID.TID 0000.0001)                 0.000000000000000E+00
(PID.TID 0000.0001)     ;
(PID.TID 0000.0001) diffKrBL79deep = /* Deep diffusion for Bryan and Lewis 1979 ( m^2/s ) */
(PID.TID 0000.0001)                 0.000000000000000E+00
(PID.TID 0000.0001)     ;
(PID.TID 0000.0001) diffKrBL79scl = /* Depth scale for Bryan and Lewis 1979 ( m ) */
(PID.TID 0000.0001)                 2.000000000000000E+02
(PID.TID 0000.0001)     ;
(PID.TID 0000.0001) diffKrBL79Ho = /* Turning depth for Bryan and Lewis 1979 ( m ) */
(PID.TID 0000.0001)                -2.000000000000000E+03
(PID.TID 0000.0001)     ;
(PID.TID 0000.0001) ivdc_kappa = /* Implicit Vertical Diffusivity for Convection ( m^2/s) */
(PID.TID 0000.0001)                 0.000000000000000E+00
(PID.TID 0000.0001)     ;
(PID.TID 0000.0001) hMixCriteria=  /* Criteria for mixed-layer diagnostic */
(PID.TID 0000.0001)                -8.000000000000000E-01
(PID.TID 0000.0001)     ;
(PID.TID 0000.0001) dRhoSmall =  /* Parameter for mixed-layer diagnostic */
(PID.TID 0000.0001)                 1.000000000000000E-06
(PID.TID 0000.0001)     ;
(PID.TID 0000.0001) hMixSmooth=  /* Smoothing parameter for mixed-layer diagnostic */
(PID.TID 0000.0001)                 0.000000000000000E+00
(PID.TID 0000.0001)     ;
(PID.TID 0000.0001) eosType =  /* Type of Equation of State */
(PID.TID 0000.0001)               'JMD95Z'
(PID.TID 0000.0001)     ;
(PID.TID 0000.0001) HeatCapacity_Cp =  /* Specific heat capacity ( J/kg/K ) */
(PID.TID 0000.0001)                 3.974000000000000E+03
(PID.TID 0000.0001)     ;
(PID.TID 0000.0001) celsius2K = /* 0 degree Celsius converted to Kelvin ( K ) */
(PID.TID 0000.0001)                 2.731500000000000E+02
(PID.TID 0000.0001)     ;
(PID.TID 0000.0001) rhoConst  = /* Reference density (Boussinesq)  ( kg/m^3 ) */
(PID.TID 0000.0001)                 1.030000000000000E+03
(PID.TID 0000.0001)     ;
(PID.TID 0000.0001) rhoFacC = /* normalized Reference density @ cell-Center (-) */
(PID.TID 0000.0001)    30 @  1.000000000000000E+00              /* K =  1: 30 */
(PID.TID 0000.0001)     ;
(PID.TID 0000.0001) rhoFacF = /* normalized Reference density @ W-Interface (-) */
(PID.TID 0000.0001)    31 @  1.000000000000000E+00              /* K =  1: 31 */
(PID.TID 0000.0001)     ;
(PID.TID 0000.0001) rhoConstFresh = /* Fresh-water reference density ( kg/m^3 ) */
(PID.TID 0000.0001)                 1.030000000000000E+03
(PID.TID 0000.0001)     ;
(PID.TID 0000.0001) gravity =   /* Gravitational acceleration ( m/s^2 ) */
(PID.TID 0000.0001)                 9.810000000000000E+00
(PID.TID 0000.0001)     ;
(PID.TID 0000.0001) gBaro =   /* Barotropic gravity ( m/s^2 ) */
(PID.TID 0000.0001)                 9.810000000000000E+00
(PID.TID 0000.0001)     ;
(PID.TID 0000.0001) rotationPeriod =   /* Rotation Period ( s ) */
(PID.TID 0000.0001)                 8.616400000000000E+04
(PID.TID 0000.0001)     ;
(PID.TID 0000.0001) omega =   /* Angular velocity ( rad/s ) */
(PID.TID 0000.0001)                 7.292123516990375E-05
(PID.TID 0000.0001)     ;
(PID.TID 0000.0001) f0 =   /* Reference coriolis parameter ( 1/s ) */
(PID.TID 0000.0001)                 1.000000000000000E-04
(PID.TID 0000.0001)     ;
(PID.TID 0000.0001) beta =   /* Beta ( 1/(m.s) ) */
(PID.TID 0000.0001)                 9.999999999999999E-12
(PID.TID 0000.0001)     ;
(PID.TID 0000.0001) fPrime =   /* Second coriolis parameter ( 1/s ) */
(PID.TID 0000.0001)                 0.000000000000000E+00
(PID.TID 0000.0001)     ;
(PID.TID 0000.0001) rigidLid =   /* Rigid lid on/off flag */
(PID.TID 0000.0001)                   F
(PID.TID 0000.0001)     ;
(PID.TID 0000.0001) implicitFreeSurface =   /* Implicit free surface on/off flag */
(PID.TID 0000.0001)                   T
(PID.TID 0000.0001)     ;
(PID.TID 0000.0001) freeSurfFac =   /* Implicit free surface factor */
(PID.TID 0000.0001)                 1.000000000000000E+00
(PID.TID 0000.0001)     ;
(PID.TID 0000.0001) implicSurfPress =  /* Surface Pressure implicit factor (0-1)*/
(PID.TID 0000.0001)                 1.000000000000000E+00
(PID.TID 0000.0001)     ;
(PID.TID 0000.0001) implicDiv2Dflow =  /* Barot. Flow Div. implicit factor (0-1)*/
(PID.TID 0000.0001)                 1.000000000000000E+00
(PID.TID 0000.0001)     ;
(PID.TID 0000.0001) uniformLin_PhiSurf = /* use uniform Bo_surf on/off flag*/
(PID.TID 0000.0001)                   T
(PID.TID 0000.0001)     ;
(PID.TID 0000.0001) uniformFreeSurfLev = /* free-surface level-index is uniform */
(PID.TID 0000.0001)                   F
(PID.TID 0000.0001)     ;
(PID.TID 0000.0001) hFacMin =   /* minimum partial cell factor (hFac) */
(PID.TID 0000.0001)                 1.000000000000000E-01
(PID.TID 0000.0001)     ;
(PID.TID 0000.0001) hFacMinDr = /* minimum partial cell thickness ( m) */
(PID.TID 0000.0001)                 0.000000000000000E+00
(PID.TID 0000.0001)     ;
(PID.TID 0000.0001) exactConserv =  /* Exact Volume Conservation on/off flag*/
(PID.TID 0000.0001)                   T
(PID.TID 0000.0001)     ;
(PID.TID 0000.0001) linFSConserveTr = /* Tracer correction for Lin Free Surface on/off flag*/
(PID.TID 0000.0001)                   F
(PID.TID 0000.0001)     ;
(PID.TID 0000.0001) nonlinFreeSurf = /* Non-linear Free Surf. options (-1,0,1,2,3)*/
(PID.TID 0000.0001)                       2
(PID.TID 0000.0001)      -1,0= Off ; 1,2,3= On, 2=+rescale gU,gV, 3=+update cg2d solv.
(PID.TID 0000.0001)     ;
(PID.TID 0000.0001) hFacInf =   /* lower threshold for hFac (nonlinFreeSurf only)*/
(PID.TID 0000.0001)                 5.000000000000000E-02
(PID.TID 0000.0001)     ;
(PID.TID 0000.0001) hFacSup =   /* upper threshold for hFac (nonlinFreeSurf only)*/
(PID.TID 0000.0001)                 2.000000000000000E+00
(PID.TID 0000.0001)     ;
(PID.TID 0000.0001) select_rStar = /* r* Vertical coord. options (=0 r coord.; >0 uses r*)*/
(PID.TID 0000.0001)                       0
(PID.TID 0000.0001)     ;
(PID.TID 0000.0001) useRealFreshWaterFlux = /* Real Fresh Water Flux on/off flag*/
(PID.TID 0000.0001)                   F
(PID.TID 0000.0001)     ;
(PID.TID 0000.0001) temp_EvPrRn = /* Temp. of Evap/Prec/R (UNSET=use local T)(oC)*/
(PID.TID 0000.0001)                 1.234567000000000E+05
(PID.TID 0000.0001)     ;
(PID.TID 0000.0001) salt_EvPrRn = /* Salin. of Evap/Prec/R (UNSET=use local S)(psu)*/
(PID.TID 0000.0001)                 0.000000000000000E+00
(PID.TID 0000.0001)     ;
(PID.TID 0000.0001) selectAddFluid = /* option for mass source/sink of fluid (=0: off) */
(PID.TID 0000.0001)                       0
(PID.TID 0000.0001)     ;
(PID.TID 0000.0001) temp_addMass = /* Temp. of addMass array (UNSET=use local T)(oC)*/
(PID.TID 0000.0001)                 1.234567000000000E+05
(PID.TID 0000.0001)     ;
(PID.TID 0000.0001) salt_addMass = /* Salin. of addMass array (UNSET=use local S)(psu)*/
(PID.TID 0000.0001)                 0.000000000000000E+00
(PID.TID 0000.0001)     ;
(PID.TID 0000.0001) convertFW2Salt = /* convert F.W. Flux to Salt Flux (-1=use local S)(psu)*/
(PID.TID 0000.0001)                 3.340000000000000E+01
(PID.TID 0000.0001)     ;
(PID.TID 0000.0001) use3Dsolver = /* use 3-D pressure solver on/off flag */
(PID.TID 0000.0001)                   F
(PID.TID 0000.0001)     ;
(PID.TID 0000.0001) nonHydrostatic =  /* Non-Hydrostatic on/off flag */
(PID.TID 0000.0001)                   F
(PID.TID 0000.0001)     ;
(PID.TID 0000.0001) nh_Am2 = /* Non-Hydrostatic terms scaling factor */
(PID.TID 0000.0001)                 1.000000000000000E+00
(PID.TID 0000.0001)     ;
(PID.TID 0000.0001) implicitNHPress = /* Non-Hyd Pressure implicit factor (0-1)*/
(PID.TID 0000.0001)                 1.000000000000000E+00
(PID.TID 0000.0001)     ;
(PID.TID 0000.0001) selectNHfreeSurf = /* Non-Hyd (free-)Surface option */
(PID.TID 0000.0001)                       0
(PID.TID 0000.0001)     ;
(PID.TID 0000.0001) quasiHydrostatic = /* Quasi-Hydrostatic on/off flag */
(PID.TID 0000.0001)                   F
(PID.TID 0000.0001)     ;
(PID.TID 0000.0001) calc_wVelocity = /* vertical velocity calculation on/off flag */
(PID.TID 0000.0001)                   T
(PID.TID 0000.0001)     ;
(PID.TID 0000.0001) momStepping =  /* Momentum equation on/off flag */
(PID.TID 0000.0001)                   T
(PID.TID 0000.0001)     ;
(PID.TID 0000.0001) vectorInvariantMomentum= /* Vector-Invariant Momentum on/off */
(PID.TID 0000.0001)                   T
(PID.TID 0000.0001)     ;
(PID.TID 0000.0001) momAdvection =  /* Momentum advection on/off flag */
(PID.TID 0000.0001)                   T
(PID.TID 0000.0001)     ;
(PID.TID 0000.0001) momViscosity =  /* Momentum viscosity on/off flag */
(PID.TID 0000.0001)                   T
(PID.TID 0000.0001)     ;
(PID.TID 0000.0001) momImplVertAdv= /* Momentum implicit vert. advection on/off*/
(PID.TID 0000.0001)                   F
(PID.TID 0000.0001)     ;
(PID.TID 0000.0001) implicitViscosity = /* Implicit viscosity on/off flag */
(PID.TID 0000.0001)                   F
(PID.TID 0000.0001)     ;
(PID.TID 0000.0001) implBottomFriction= /* Implicit bottom friction on/off flag */
(PID.TID 0000.0001)                   F
(PID.TID 0000.0001)     ;
(PID.TID 0000.0001) metricTerms =  /* metric-Terms on/off flag */
(PID.TID 0000.0001)                   T
(PID.TID 0000.0001)     ;
(PID.TID 0000.0001) useNHMTerms = /* Non-Hydrostatic Metric-Terms on/off */
(PID.TID 0000.0001)                   F
(PID.TID 0000.0001)     ;
(PID.TID 0000.0001) selectCoriMap = /* Coriolis Map options (0,1,2,3)*/
(PID.TID 0000.0001)                       2
(PID.TID 0000.0001)     0= f-Plane ; 1= Beta-Plane ; 2= Spherical ; 3= read from file
(PID.TID 0000.0001)     ;
(PID.TID 0000.0001) use3dCoriolis = /* 3-D Coriolis on/off flag */
(PID.TID 0000.0001)                   F
(PID.TID 0000.0001)     ;
(PID.TID 0000.0001) useCoriolis =  /* Coriolis on/off flag */
(PID.TID 0000.0001)                   T
(PID.TID 0000.0001)     ;
(PID.TID 0000.0001) useCDscheme =  /* CD scheme on/off flag */
(PID.TID 0000.0001)                   T
(PID.TID 0000.0001)     ;
(PID.TID 0000.0001) useEnergyConservingCoriolis= /* Flx-Form Coriolis scheme flag */
(PID.TID 0000.0001)                   F
(PID.TID 0000.0001)     ;
(PID.TID 0000.0001) useJamartWetPoints= /* Coriolis WetPoints method flag */
(PID.TID 0000.0001)                   F
(PID.TID 0000.0001)     ;
(PID.TID 0000.0001) useJamartMomAdv= /* V.I Non-linear terms Jamart flag */
(PID.TID 0000.0001)                   F
(PID.TID 0000.0001)     ;
(PID.TID 0000.0001) useAbsVorticity= /* V.I Works with f+zeta in Coriolis */
(PID.TID 0000.0001)                   F
(PID.TID 0000.0001)     ;
(PID.TID 0000.0001) selectVortScheme= /* V.I Scheme selector for Vorticity-Term */
(PID.TID 0000.0001)                       1
(PID.TID 0000.0001)    = 0 : enstrophy (Shallow-Water Eq.) conserving scheme by Sadourny, JAS 75
(PID.TID 0000.0001)    = 1 : same as 0 with modified hFac
(PID.TID 0000.0001)    = 2 : energy conserving scheme (used by Sadourny in JAS 75 paper)
(PID.TID 0000.0001)    = 3 : energy (general) and enstrophy (2D, nonDiv.) conserving scheme
(PID.TID 0000.0001)          from Sadourny (Burridge & Haseler, ECMWF Rep.4, 1977)
(PID.TID 0000.0001)     ;
(PID.TID 0000.0001) upwindVorticity= /* V.I Upwind bias vorticity flag */
(PID.TID 0000.0001)                   F
(PID.TID 0000.0001)     ;
(PID.TID 0000.0001) highOrderVorticity= /* V.I High order vort. advect. flag */
(PID.TID 0000.0001)                   F
(PID.TID 0000.0001)     ;
(PID.TID 0000.0001) upwindShear= /* V.I Upwind vertical Shear advection flag */
(PID.TID 0000.0001)                   F
(PID.TID 0000.0001)     ;
(PID.TID 0000.0001) selectKEscheme= /* V.I Kinetic Energy scheme selector */
(PID.TID 0000.0001)                       0
(PID.TID 0000.0001)     ;
(PID.TID 0000.0001) momForcing =  /* Momentum forcing on/off flag */
(PID.TID 0000.0001)                   T
(PID.TID 0000.0001)     ;
(PID.TID 0000.0001) momPressureForcing =  /* Momentum pressure term on/off flag */
(PID.TID 0000.0001)                   T
(PID.TID 0000.0001)     ;
(PID.TID 0000.0001) implicitIntGravWave= /* Implicit Internal Gravity Wave flag */
(PID.TID 0000.0001)                   F
(PID.TID 0000.0001)     ;
(PID.TID 0000.0001) staggerTimeStep =    /* Stagger time stepping on/off flag */
(PID.TID 0000.0001)                   T
(PID.TID 0000.0001)     ;
(PID.TID 0000.0001) doResetHFactors = /* reset thickness factors @ each time-step */
(PID.TID 0000.0001)                   T
(PID.TID 0000.0001)     ;
(PID.TID 0000.0001) multiDimAdvection =  /* enable/disable Multi-Dim Advection */
(PID.TID 0000.0001)                   T
(PID.TID 0000.0001)     ;
(PID.TID 0000.0001) useMultiDimAdvec =   /* Multi-Dim Advection is/is-not used */
(PID.TID 0000.0001)                   F
(PID.TID 0000.0001)     ;
(PID.TID 0000.0001) implicitDiffusion = /* Implicit Diffusion on/off flag */
(PID.TID 0000.0001)                   T
(PID.TID 0000.0001)     ;
(PID.TID 0000.0001) tempStepping =  /* Temperature equation on/off flag */
(PID.TID 0000.0001)                   T
(PID.TID 0000.0001)     ;
(PID.TID 0000.0001) tempAdvection = /* Temperature advection on/off flag */
(PID.TID 0000.0001)                   T
(PID.TID 0000.0001)     ;
(PID.TID 0000.0001) tempImplVertAdv = /* Temp. implicit vert. advection on/off */
(PID.TID 0000.0001)                   F
(PID.TID 0000.0001)     ;
(PID.TID 0000.0001) tempForcing  =  /* Temperature forcing on/off flag */
(PID.TID 0000.0001)                   T
(PID.TID 0000.0001)     ;
(PID.TID 0000.0001) doThetaClimRelax = /* apply SST relaxation on/off flag */
(PID.TID 0000.0001)                   F
(PID.TID 0000.0001)     ;
(PID.TID 0000.0001) tempIsActiveTr = /* Temp. is a dynamically Active Tracer */
(PID.TID 0000.0001)                   T
(PID.TID 0000.0001)     ;
(PID.TID 0000.0001) saltStepping =  /* Salinity equation on/off flag */
(PID.TID 0000.0001)                   T
(PID.TID 0000.0001)     ;
(PID.TID 0000.0001) saltAdvection = /* Salinity advection on/off flag */
(PID.TID 0000.0001)                   T
(PID.TID 0000.0001)     ;
(PID.TID 0000.0001) saltImplVertAdv = /* Sali. implicit vert. advection on/off */
(PID.TID 0000.0001)                   F
(PID.TID 0000.0001)     ;
(PID.TID 0000.0001) saltForcing  =  /* Salinity forcing on/off flag */
(PID.TID 0000.0001)                   T
(PID.TID 0000.0001)     ;
(PID.TID 0000.0001) doSaltClimRelax = /* apply SSS relaxation on/off flag */
(PID.TID 0000.0001)                   F
(PID.TID 0000.0001)     ;
(PID.TID 0000.0001) saltIsActiveTr = /* Salt  is a dynamically Active Tracer */
(PID.TID 0000.0001)                   T
(PID.TID 0000.0001)     ;
(PID.TID 0000.0001)  readBinaryPrec = /* Precision used for reading binary files */
(PID.TID 0000.0001)                      64
(PID.TID 0000.0001)     ;
(PID.TID 0000.0001) writeBinaryPrec = /* Precision used for writing binary files */
(PID.TID 0000.0001)                      32
(PID.TID 0000.0001)     ;
(PID.TID 0000.0001)  globalFiles = /* write "global" (=not per tile) files */
(PID.TID 0000.0001)                   F
(PID.TID 0000.0001)     ;
(PID.TID 0000.0001)  useSingleCpuIO = /* only master MPI process does I/O */
(PID.TID 0000.0001)                   T
(PID.TID 0000.0001)     ;
(PID.TID 0000.0001)  useSingleCpuInput = /* only master process reads input */
(PID.TID 0000.0001)                   T
(PID.TID 0000.0001)     ;
(PID.TID 0000.0001) /* debLev[*]  : level of debug & auxiliary message printing */
(PID.TID 0000.0001) debLevZero =  0 ; /* level of disabled aux. msg printing */
(PID.TID 0000.0001)    debLevA =  1 ; /* level of minimum  aux. msg printing */
(PID.TID 0000.0001)    debLevB =  2 ; /* level of low aux. print (report read-file opening)*/
(PID.TID 0000.0001)    debLevC =  3 ; /* level of moderate debug prt (most pkgs debug msg) */
(PID.TID 0000.0001)    debLevD =  4 ; /* level of enhanced debug prt (add DEBUG_STATS prt) */
(PID.TID 0000.0001)    debLevE =  5 ; /* level of extensive debug printing */
(PID.TID 0000.0001) debugLevel =  /* select debug printing level */
(PID.TID 0000.0001)                       1
(PID.TID 0000.0001)     ;
(PID.TID 0000.0001) //
(PID.TID 0000.0001) // Elliptic solver(s) paramters ( PARM02 in namelist )
(PID.TID 0000.0001) //
(PID.TID 0000.0001) cg2dMaxIters =   /* Upper limit on 2d con. grad iterations  */
(PID.TID 0000.0001)                    1000
(PID.TID 0000.0001)     ;
(PID.TID 0000.0001) cg2dChkResFreq =   /* 2d con. grad convergence test frequency */
(PID.TID 0000.0001)                       1
(PID.TID 0000.0001)     ;
(PID.TID 0000.0001) cg2dUseMinResSol= /* use cg2d last-iter(=0) / min-resid.(=1) solution */
(PID.TID 0000.0001)                       0
(PID.TID 0000.0001)     ;
(PID.TID 0000.0001) cg2dTargetResidual =   /* 2d con. grad target residual  */
(PID.TID 0000.0001)                 1.000000000000000E-13
(PID.TID 0000.0001)     ;
(PID.TID 0000.0001) cg2dTargetResWunit =   /* CG2d target residual [W units] */
(PID.TID 0000.0001)                -1.000000000000000E+00
(PID.TID 0000.0001)     ;
(PID.TID 0000.0001) cg2dPreCondFreq =   /* Freq. for updating cg2d preconditioner */
(PID.TID 0000.0001)                       1
(PID.TID 0000.0001)     ;
(PID.TID 0000.0001) useSRCGSolver =  /* use single reduction CG solver(s) */
(PID.TID 0000.0001)                   F
(PID.TID 0000.0001)     ;
(PID.TID 0000.0001) printResidualFreq = /* Freq. for printing CG residual */
(PID.TID 0000.0001)                       0
(PID.TID 0000.0001)     ;
(PID.TID 0000.0001) //
(PID.TID 0000.0001) // Time stepping paramters ( PARM03 in namelist )
(PID.TID 0000.0001) //
(PID.TID 0000.0001) deltaTMom =   /* Momentum equation timestep ( s ) */
(PID.TID 0000.0001)                 1.800000000000000E+03
(PID.TID 0000.0001)     ;
(PID.TID 0000.0001) deltaTFreeSurf = /* FreeSurface equation timestep ( s ) */
(PID.TID 0000.0001)                 1.800000000000000E+03
(PID.TID 0000.0001)     ;
(PID.TID 0000.0001) dTtracerLev =  /* Tracer equation timestep ( s ) */
(PID.TID 0000.0001)    30 @  1.800000000000000E+03              /* K =  1: 30 */
(PID.TID 0000.0001)     ;
(PID.TID 0000.0001) deltaTClock  =   /* Model clock timestep ( s ) */
(PID.TID 0000.0001)                 1.800000000000000E+03
(PID.TID 0000.0001)     ;
(PID.TID 0000.0001) cAdjFreq =   /* Convective adjustment interval ( s ) */
(PID.TID 0000.0001)                 1.000000000000000E+00
(PID.TID 0000.0001)     ;
(PID.TID 0000.0001) momForcingOutAB = /* =1: take Momentum Forcing out of Adams-Bash. stepping */
(PID.TID 0000.0001)                       0
(PID.TID 0000.0001)     ;
(PID.TID 0000.0001) tracForcingOutAB = /* =1: take T,S,pTr Forcing out of Adams-Bash. stepping */
(PID.TID 0000.0001)                       0
(PID.TID 0000.0001)     ;
(PID.TID 0000.0001) momDissip_In_AB = /* put Dissipation Tendency in Adams-Bash. stepping */
(PID.TID 0000.0001)                   T
(PID.TID 0000.0001)     ;
(PID.TID 0000.0001) doAB_onGtGs = /* apply AB on Tendencies (rather than on T,S)*/
(PID.TID 0000.0001)                   T
(PID.TID 0000.0001)     ;
(PID.TID 0000.0001) abEps =   /* Adams-Bashforth-2 stabilizing weight */
(PID.TID 0000.0001)                 1.000000000000000E-01
(PID.TID 0000.0001)     ;
(PID.TID 0000.0001) tauCD =   /* CD coupling time-scale ( s ) */
(PID.TID 0000.0001)                 4.000000000000000E+05
(PID.TID 0000.0001)     ;
(PID.TID 0000.0001) rCD =   /* Normalised CD coupling parameter */
(PID.TID 0000.0001)                 9.955000000000001E-01
(PID.TID 0000.0001)     ;
(PID.TID 0000.0001) epsAB_CD = /* AB-2 stabilizing weight for CD-scheme*/
(PID.TID 0000.0001)                 1.000000000000000E-01
(PID.TID 0000.0001)     ;
(PID.TID 0000.0001) pickupStrictlyMatch= /* stop if pickup do not strictly match */
(PID.TID 0000.0001)                   T
(PID.TID 0000.0001)     ;
(PID.TID 0000.0001) nIter0   =   /* Run starting timestep number */
(PID.TID 0000.0001)                    8640
(PID.TID 0000.0001)     ;
(PID.TID 0000.0001) nTimeSteps = /* Number of timesteps */
(PID.TID 0000.0001)                      10
(PID.TID 0000.0001)     ;
(PID.TID 0000.0001) nEndIter =   /* Run ending timestep number */
(PID.TID 0000.0001)                    8650
(PID.TID 0000.0001)     ;
(PID.TID 0000.0001) baseTime =   /* Model base time ( s ) */
(PID.TID 0000.0001)                 0.000000000000000E+00
(PID.TID 0000.0001)     ;
(PID.TID 0000.0001) startTime =  /* Run start time ( s ) */
(PID.TID 0000.0001)                 1.555200000000000E+07
(PID.TID 0000.0001)     ;
(PID.TID 0000.0001) endTime  =   /* Integration ending time ( s ) */
(PID.TID 0000.0001)                 1.557000000000000E+07
(PID.TID 0000.0001)     ;
(PID.TID 0000.0001) pChkPtFreq = /* Permanent restart/pickup file interval ( s ) */
(PID.TID 0000.0001)                 0.000000000000000E+00
(PID.TID 0000.0001)     ;
(PID.TID 0000.0001) chkPtFreq  = /* Rolling restart/pickup file interval ( s ) */
(PID.TID 0000.0001)                 0.000000000000000E+00
(PID.TID 0000.0001)     ;
(PID.TID 0000.0001) pickup_write_mdsio =   /* Model IO flag. */
(PID.TID 0000.0001)                   T
(PID.TID 0000.0001)     ;
(PID.TID 0000.0001) pickup_read_mdsio =   /* Model IO flag. */
(PID.TID 0000.0001)                   T
(PID.TID 0000.0001)     ;
(PID.TID 0000.0001) pickup_write_mnc =   /* Model IO flag. */
(PID.TID 0000.0001)                   F
(PID.TID 0000.0001)     ;
(PID.TID 0000.0001) pickup_read_mnc =   /* Model IO flag. */
(PID.TID 0000.0001)                   F
(PID.TID 0000.0001)     ;
(PID.TID 0000.0001) pickup_write_immed =   /* Model IO flag. */
(PID.TID 0000.0001)                   F
(PID.TID 0000.0001)     ;
(PID.TID 0000.0001) writePickupAtEnd =   /* Model IO flag. */
(PID.TID 0000.0001)                   T
(PID.TID 0000.0001)     ;
(PID.TID 0000.0001) dumpFreq =   /* Model state write out interval ( s ). */
(PID.TID 0000.0001)                 0.000000000000000E+00
(PID.TID 0000.0001)     ;
(PID.TID 0000.0001) dumpInitAndLast= /* write out Initial & Last iter. model state */
(PID.TID 0000.0001)                   T
(PID.TID 0000.0001)     ;
(PID.TID 0000.0001) snapshot_mdsio =   /* Model IO flag. */
(PID.TID 0000.0001)                   T
(PID.TID 0000.0001)     ;
(PID.TID 0000.0001) snapshot_mnc =   /* Model IO flag. */
(PID.TID 0000.0001)                   F
(PID.TID 0000.0001)     ;
(PID.TID 0000.0001) monitorFreq =   /* Monitor output interval ( s ). */
(PID.TID 0000.0001)                 1.000000000000000E+00
(PID.TID 0000.0001)     ;
(PID.TID 0000.0001) monitorSelect = /* select group of variables to monitor */
(PID.TID 0000.0001)                       2
(PID.TID 0000.0001)     ;
(PID.TID 0000.0001) monitor_stdio =   /* Model IO flag. */
(PID.TID 0000.0001)                   T
(PID.TID 0000.0001)     ;
(PID.TID 0000.0001) monitor_mnc =   /* Model IO flag. */
(PID.TID 0000.0001)                   F
(PID.TID 0000.0001)     ;
(PID.TID 0000.0001) externForcingPeriod =   /* forcing period (s) */
(PID.TID 0000.0001)                 0.000000000000000E+00
(PID.TID 0000.0001)     ;
(PID.TID 0000.0001) externForcingCycle =   /* period of the cyle (s). */
(PID.TID 0000.0001)                 0.000000000000000E+00
(PID.TID 0000.0001)     ;
(PID.TID 0000.0001) tauThetaClimRelax =   /* relaxation time scale (s) */
(PID.TID 0000.0001)                 0.000000000000000E+00
(PID.TID 0000.0001)     ;
(PID.TID 0000.0001) tauSaltClimRelax =   /* relaxation time scale (s) */
(PID.TID 0000.0001)                 0.000000000000000E+00
(PID.TID 0000.0001)     ;
(PID.TID 0000.0001) latBandClimRelax =   /* max. Lat. where relaxation */
(PID.TID 0000.0001)                 1.800000000000000E+02
(PID.TID 0000.0001)     ;
(PID.TID 0000.0001) //
(PID.TID 0000.0001) // Gridding paramters ( PARM04 in namelist )
(PID.TID 0000.0001) //
(PID.TID 0000.0001) usingCartesianGrid = /* Cartesian coordinates flag ( True/False ) */
(PID.TID 0000.0001)                   F
(PID.TID 0000.0001)     ;
(PID.TID 0000.0001) usingCylindricalGrid = /* Cylindrical coordinates flag ( True/False ) */
(PID.TID 0000.0001)                   F
(PID.TID 0000.0001)     ;
(PID.TID 0000.0001) usingSphericalPolarGrid = /* Spherical coordinates flag ( True/False ) */
(PID.TID 0000.0001)                   T
(PID.TID 0000.0001)     ;
(PID.TID 0000.0001) usingCurvilinearGrid = /* Curvilinear coordinates flag ( True/False ) */
(PID.TID 0000.0001)                   F
(PID.TID 0000.0001)     ;
(PID.TID 0000.0001) selectSigmaCoord = /* Hybrid-Sigma Vert. Coordinate option */
(PID.TID 0000.0001)                       0
(PID.TID 0000.0001)     ;
(PID.TID 0000.0001) Ro_SeaLevel = /* r(1) ( units of r ==  m ) */
(PID.TID 0000.0001)                 0.000000000000000E+00
(PID.TID 0000.0001)     ;
(PID.TID 0000.0001) rSigmaBnd = /* r/sigma transition ( units of r ==  m ) */
(PID.TID 0000.0001)                 1.234567000000000E+05
(PID.TID 0000.0001)     ;
(PID.TID 0000.0001) rkSign =   /* index orientation relative to vertical coordinate */
(PID.TID 0000.0001)                -1.000000000000000E+00
(PID.TID 0000.0001)     ;
(PID.TID 0000.0001) gravitySign = /* gravity orientation relative to vertical coordinate */
(PID.TID 0000.0001)                -1.000000000000000E+00
(PID.TID 0000.0001)     ;
(PID.TID 0000.0001) mass2rUnit = /* convert mass per unit area [kg/m2] to r-units [m] */
(PID.TID 0000.0001)                 9.708737864077669E-04
(PID.TID 0000.0001)     ;
(PID.TID 0000.0001) rUnit2mass = /* convert r-units [m] to mass per unit area [kg/m2] */
(PID.TID 0000.0001)                 1.030000000000000E+03
(PID.TID 0000.0001)     ;
(PID.TID 0000.0001) drC =   /* C spacing ( units of r ) */
(PID.TID 0000.0001)                 1.500000000000000E+01,      /* K =  1 */
(PID.TID 0000.0001)    29 @  3.000000000000000E+01,             /* K =  2: 30 */
(PID.TID 0000.0001)                 1.500000000000000E+01       /* K = 31 */
(PID.TID 0000.0001)     ;
(PID.TID 0000.0001) drF =   /* W spacing ( units of r ) */
(PID.TID 0000.0001)    30 @  3.000000000000000E+01              /* K =  1: 30 */
(PID.TID 0000.0001)     ;
(PID.TID 0000.0001) delX = /* U spacing ( m - cartesian, degrees - spherical ) */
(PID.TID 0000.0001)    50 @  3.000000000000000E-01              /* I =  1: 50 */
(PID.TID 0000.0001)     ;
(PID.TID 0000.0001) delY = /* V spacing ( m - cartesian, degrees - spherical ) */
(PID.TID 0000.0001)   100 @  1.000000000000000E-01              /* J =  1:100 */
(PID.TID 0000.0001)     ;
(PID.TID 0000.0001) xgOrigin = /* X-axis origin of West  edge (cartesian: m, lat-lon: deg) */
(PID.TID 0000.0001)                 0.000000000000000E+00
(PID.TID 0000.0001)     ;
(PID.TID 0000.0001) ygOrigin = /* Y-axis origin of South edge (cartesian: m, lat-lon: deg) */
(PID.TID 0000.0001)                -8.000000000000000E+01
(PID.TID 0000.0001)     ;
(PID.TID 0000.0001) rSphere =  /* Radius ( ignored - cartesian, m - spherical ) */
(PID.TID 0000.0001)                 6.370000000000000E+06
(PID.TID 0000.0001)     ;
(PID.TID 0000.0001) deepAtmosphere = /* Deep/Shallow Atmosphere flag (True/False) */
(PID.TID 0000.0001)                   F
(PID.TID 0000.0001)     ;
(PID.TID 0000.0001) xC =  /* xC(:,1,:,1) : P-point X coord ( deg. or m if cartesian) */
(PID.TID 0000.0001)                 1.500000000000001E-01,      /* I =  1 */
(PID.TID 0000.0001)                 4.500000000000001E-01,      /* I =  2 */
(PID.TID 0000.0001)                 7.500000000000002E-01,      /* I =  3 */
(PID.TID 0000.0001)                 1.050000000000000E+00,      /* I =  4 */
(PID.TID 0000.0001)                 1.350000000000000E+00,      /* I =  5 */
(PID.TID 0000.0001)                 1.650000000000000E+00,      /* I =  6 */
(PID.TID 0000.0001)                 1.950000000000000E+00,      /* I =  7 */
(PID.TID 0000.0001)                 2.250000000000000E+00,      /* I =  8 */
(PID.TID 0000.0001)                 2.550000000000000E+00,      /* I =  9 */
(PID.TID 0000.0001)                 2.850000000000000E+00,      /* I = 10 */
(PID.TID 0000.0001)                 3.149999999999999E+00,      /* I = 11 */
(PID.TID 0000.0001)                 3.449999999999999E+00,      /* I = 12 */
(PID.TID 0000.0001)                 3.749999999999999E+00,      /* I = 13 */
(PID.TID 0000.0001)                 4.049999999999999E+00,      /* I = 14 */
(PID.TID 0000.0001)                 4.350000000000000E+00,      /* I = 15 */
(PID.TID 0000.0001)                 4.649999999999999E+00,      /* I = 16 */
(PID.TID 0000.0001)                 4.949999999999999E+00,      /* I = 17 */
(PID.TID 0000.0001)                 5.249999999999998E+00,      /* I = 18 */
(PID.TID 0000.0001)                 5.549999999999999E+00,      /* I = 19 */
(PID.TID 0000.0001)                 5.849999999999998E+00,      /* I = 20 */
(PID.TID 0000.0001)                 6.149999999999999E+00,      /* I = 21 */
(PID.TID 0000.0001)                 6.449999999999998E+00,      /* I = 22 */
(PID.TID 0000.0001)                 6.749999999999998E+00,      /* I = 23 */
(PID.TID 0000.0001)                 7.049999999999997E+00,      /* I = 24 */
(PID.TID 0000.0001)                 7.349999999999997E+00,      /* I = 25 */
(PID.TID 0000.0001)                 7.649999999999997E+00,      /* I = 26 */
(PID.TID 0000.0001)                 7.949999999999998E+00,      /* I = 27 */
(PID.TID 0000.0001)                 8.249999999999998E+00,      /* I = 28 */
(PID.TID 0000.0001)                 8.549999999999999E+00,      /* I = 29 */
(PID.TID 0000.0001)                 8.850000000000000E+00,      /* I = 30 */
(PID.TID 0000.0001)                 9.150000000000000E+00,      /* I = 31 */
(PID.TID 0000.0001)                 9.450000000000001E+00,      /* I = 32 */
(PID.TID 0000.0001)                 9.750000000000002E+00,      /* I = 33 */
(PID.TID 0000.0001)                 1.005000000000000E+01,      /* I = 34 */
(PID.TID 0000.0001)                 1.035000000000000E+01,      /* I = 35 */
(PID.TID 0000.0001)                 1.065000000000000E+01,      /* I = 36 */
(PID.TID 0000.0001)                 1.095000000000001E+01,      /* I = 37 */
(PID.TID 0000.0001)                 1.125000000000001E+01,      /* I = 38 */
(PID.TID 0000.0001)                 1.155000000000000E+01,      /* I = 39 */
(PID.TID 0000.0001)                 1.185000000000001E+01,      /* I = 40 */
(PID.TID 0000.0001)                 1.215000000000001E+01,      /* I = 41 */
(PID.TID 0000.0001)                 1.245000000000001E+01,      /* I = 42 */
(PID.TID 0000.0001)                 1.275000000000001E+01,      /* I = 43 */
(PID.TID 0000.0001)                 1.305000000000001E+01,      /* I = 44 */
(PID.TID 0000.0001)                 1.335000000000001E+01,      /* I = 45 */
(PID.TID 0000.0001)                 1.365000000000001E+01,      /* I = 46 */
(PID.TID 0000.0001)                 1.395000000000001E+01,      /* I = 47 */
(PID.TID 0000.0001)                 1.425000000000001E+01,      /* I = 48 */
(PID.TID 0000.0001)                 1.455000000000001E+01,      /* I = 49 */
(PID.TID 0000.0001)                 1.485000000000001E+01       /* I = 50 */
(PID.TID 0000.0001)     ;
(PID.TID 0000.0001) yC =  /* yC(1,:,1,:) : P-point Y coord ( deg. or m if cartesian) */
(PID.TID 0000.0001)                -7.995000000000000E+01,      /* J =  1 */
(PID.TID 0000.0001)                -7.985000000000001E+01,      /* J =  2 */
(PID.TID 0000.0001)                -7.975000000000001E+01,      /* J =  3 */
(PID.TID 0000.0001)      . . .
(PID.TID 0000.0001)                -7.775000000000013E+01,      /* J = 23 */
(PID.TID 0000.0001)                -7.765000000000013E+01,      /* J = 24 */
(PID.TID 0000.0001)                -7.755000000000014E+01,      /* J = 25 */
(PID.TID 0000.0001)                -7.745000000000014E+01,      /* J = 26 */
(PID.TID 0000.0001)                -7.735000000000015E+01,      /* J = 27 */
(PID.TID 0000.0001)                -7.725000000000016E+01,      /* J = 28 */
(PID.TID 0000.0001)      . . .
(PID.TID 0000.0001)                -7.525000000000027E+01,      /* J = 48 */
(PID.TID 0000.0001)                -7.515000000000028E+01,      /* J = 49 */
(PID.TID 0000.0001)                -7.505000000000028E+01,      /* J = 50 */
(PID.TID 0000.0001)                -7.495000000000029E+01,      /* J = 51 */
(PID.TID 0000.0001)                -7.485000000000029E+01,      /* J = 52 */
(PID.TID 0000.0001)                -7.475000000000030E+01,      /* J = 53 */
(PID.TID 0000.0001)      . . .
(PID.TID 0000.0001)                -7.275000000000041E+01,      /* J = 73 */
(PID.TID 0000.0001)                -7.265000000000042E+01,      /* J = 74 */
(PID.TID 0000.0001)                -7.255000000000042E+01,      /* J = 75 */
(PID.TID 0000.0001)                -7.245000000000043E+01,      /* J = 76 */
(PID.TID 0000.0001)                -7.235000000000043E+01,      /* J = 77 */
(PID.TID 0000.0001)                -7.225000000000044E+01,      /* J = 78 */
(PID.TID 0000.0001)      . . .
(PID.TID 0000.0001)                -7.025000000000055E+01,      /* J = 98 */
(PID.TID 0000.0001)                -7.015000000000056E+01,      /* J = 99 */
(PID.TID 0000.0001)                -7.005000000000057E+01       /* J =100 */
(PID.TID 0000.0001)     ;
(PID.TID 0000.0001) rcoord = /* P-point R coordinate (  units of r ) */
(PID.TID 0000.0001)                -1.500000000000000E+01,      /* K =  1 */
(PID.TID 0000.0001)                -4.500000000000000E+01,      /* K =  2 */
(PID.TID 0000.0001)                -7.500000000000000E+01,      /* K =  3 */
(PID.TID 0000.0001)                -1.050000000000000E+02,      /* K =  4 */
(PID.TID 0000.0001)                -1.350000000000000E+02,      /* K =  5 */
(PID.TID 0000.0001)                -1.650000000000000E+02,      /* K =  6 */
(PID.TID 0000.0001)                -1.950000000000000E+02,      /* K =  7 */
(PID.TID 0000.0001)                -2.250000000000000E+02,      /* K =  8 */
(PID.TID 0000.0001)                -2.550000000000000E+02,      /* K =  9 */
(PID.TID 0000.0001)                -2.850000000000000E+02,      /* K = 10 */
(PID.TID 0000.0001)                -3.150000000000000E+02,      /* K = 11 */
(PID.TID 0000.0001)                -3.450000000000000E+02,      /* K = 12 */
(PID.TID 0000.0001)                -3.750000000000000E+02,      /* K = 13 */
(PID.TID 0000.0001)                -4.050000000000000E+02,      /* K = 14 */
(PID.TID 0000.0001)                -4.350000000000000E+02,      /* K = 15 */
(PID.TID 0000.0001)                -4.650000000000000E+02,      /* K = 16 */
(PID.TID 0000.0001)                -4.950000000000000E+02,      /* K = 17 */
(PID.TID 0000.0001)                -5.250000000000000E+02,      /* K = 18 */
(PID.TID 0000.0001)                -5.550000000000000E+02,      /* K = 19 */
(PID.TID 0000.0001)                -5.850000000000000E+02,      /* K = 20 */
(PID.TID 0000.0001)                -6.150000000000000E+02,      /* K = 21 */
(PID.TID 0000.0001)                -6.450000000000000E+02,      /* K = 22 */
(PID.TID 0000.0001)                -6.750000000000000E+02,      /* K = 23 */
(PID.TID 0000.0001)                -7.050000000000000E+02,      /* K = 24 */
(PID.TID 0000.0001)                -7.350000000000000E+02,      /* K = 25 */
(PID.TID 0000.0001)                -7.650000000000000E+02,      /* K = 26 */
(PID.TID 0000.0001)                -7.950000000000000E+02,      /* K = 27 */
(PID.TID 0000.0001)                -8.250000000000000E+02,      /* K = 28 */
(PID.TID 0000.0001)                -8.550000000000000E+02,      /* K = 29 */
(PID.TID 0000.0001)                -8.850000000000000E+02       /* K = 30 */
(PID.TID 0000.0001)     ;
(PID.TID 0000.0001) rF =   /* W-Interf. R coordinate (  units of r ) */
(PID.TID 0000.0001)                 0.000000000000000E+00,      /* K =  1 */
(PID.TID 0000.0001)                -3.000000000000000E+01,      /* K =  2 */
(PID.TID 0000.0001)                -6.000000000000000E+01,      /* K =  3 */
(PID.TID 0000.0001)                -9.000000000000000E+01,      /* K =  4 */
(PID.TID 0000.0001)                -1.200000000000000E+02,      /* K =  5 */
(PID.TID 0000.0001)                -1.500000000000000E+02,      /* K =  6 */
(PID.TID 0000.0001)                -1.800000000000000E+02,      /* K =  7 */
(PID.TID 0000.0001)                -2.100000000000000E+02,      /* K =  8 */
(PID.TID 0000.0001)                -2.400000000000000E+02,      /* K =  9 */
(PID.TID 0000.0001)                -2.700000000000000E+02,      /* K = 10 */
(PID.TID 0000.0001)                -3.000000000000000E+02,      /* K = 11 */
(PID.TID 0000.0001)                -3.300000000000000E+02,      /* K = 12 */
(PID.TID 0000.0001)                -3.600000000000000E+02,      /* K = 13 */
(PID.TID 0000.0001)                -3.900000000000000E+02,      /* K = 14 */
(PID.TID 0000.0001)                -4.200000000000000E+02,      /* K = 15 */
(PID.TID 0000.0001)                -4.500000000000000E+02,      /* K = 16 */
(PID.TID 0000.0001)                -4.800000000000000E+02,      /* K = 17 */
(PID.TID 0000.0001)                -5.100000000000000E+02,      /* K = 18 */
(PID.TID 0000.0001)                -5.400000000000000E+02,      /* K = 19 */
(PID.TID 0000.0001)                -5.700000000000000E+02,      /* K = 20 */
(PID.TID 0000.0001)                -6.000000000000000E+02,      /* K = 21 */
(PID.TID 0000.0001)                -6.300000000000000E+02,      /* K = 22 */
(PID.TID 0000.0001)                -6.600000000000000E+02,      /* K = 23 */
(PID.TID 0000.0001)                -6.900000000000000E+02,      /* K = 24 */
(PID.TID 0000.0001)                -7.200000000000000E+02,      /* K = 25 */
(PID.TID 0000.0001)                -7.500000000000000E+02,      /* K = 26 */
(PID.TID 0000.0001)                -7.800000000000000E+02,      /* K = 27 */
(PID.TID 0000.0001)                -8.100000000000000E+02,      /* K = 28 */
(PID.TID 0000.0001)                -8.400000000000000E+02,      /* K = 29 */
(PID.TID 0000.0001)                -8.700000000000000E+02,      /* K = 30 */
(PID.TID 0000.0001)                -9.000000000000000E+02       /* K = 31 */
(PID.TID 0000.0001)     ;
(PID.TID 0000.0001) deepFacC = /* deep-model grid factor @ cell-Center (-) */
(PID.TID 0000.0001)    30 @  1.000000000000000E+00              /* K =  1: 30 */
(PID.TID 0000.0001)     ;
(PID.TID 0000.0001) deepFacF = /* deep-model grid factor @ W-Interface (-) */
(PID.TID 0000.0001)    31 @  1.000000000000000E+00              /* K =  1: 31 */
(PID.TID 0000.0001)     ;
(PID.TID 0000.0001) rVel2wUnit = /* convert units: rVel -> wSpeed (=1 if z-coord)*/
(PID.TID 0000.0001)    31 @  1.000000000000000E+00              /* K =  1: 31 */
(PID.TID 0000.0001)     ;
(PID.TID 0000.0001) wUnit2rVel = /* convert units: wSpeed -> rVel (=1 if z-coord)*/
(PID.TID 0000.0001)    31 @  1.000000000000000E+00              /* K =  1: 31 */
(PID.TID 0000.0001)     ;
(PID.TID 0000.0001) dBdrRef = /* Vertical grad. of reference buoyancy [(m/s/r)^2] */
(PID.TID 0000.0001)    30 @  0.000000000000000E+00              /* K =  1: 30 */
(PID.TID 0000.0001)     ;
(PID.TID 0000.0001) rotateGrid = /* use rotated grid ( True/False ) */
(PID.TID 0000.0001)                   F
(PID.TID 0000.0001)     ;
(PID.TID 0000.0001) phiEuler = /* Euler angle, rotation about original z-coordinate [rad] */
(PID.TID 0000.0001)                 0.000000000000000E+00
(PID.TID 0000.0001)     ;
(PID.TID 0000.0001) thetaEuler = /* Euler angle, rotation about new x-coordinate [rad] */
(PID.TID 0000.0001)                 0.000000000000000E+00
(PID.TID 0000.0001)     ;
(PID.TID 0000.0001) psiEuler = /* Euler angle, rotation about new z-coordinate [rad] */
(PID.TID 0000.0001)                 0.000000000000000E+00
(PID.TID 0000.0001)     ;
(PID.TID 0000.0001) dxF =  /* dxF(:,1,:,1) ( units: m ) */
(PID.TID 0000.0001)    50 @  5.820391490558872E+03              /* I =  1: 50 */
(PID.TID 0000.0001)     ;
(PID.TID 0000.0001) dxF =  /* dxF(1,:,1,:) ( units: m ) */
(PID.TID 0000.0001)                 5.820391490558872E+03,      /* J =  1 */
(PID.TID 0000.0001)                 5.877701765291692E+03,      /* J =  2 */
(PID.TID 0000.0001)                 5.934994135525598E+03,      /* J =  3 */
(PID.TID 0000.0001)      . . .
(PID.TID 0000.0001)                 7.076813247621209E+03,      /* J = 23 */
(PID.TID 0000.0001)                 7.133689397375063E+03,      /* J = 24 */
(PID.TID 0000.0001)                 7.190543816673855E+03,      /* J = 25 */
(PID.TID 0000.0001)                 7.247376332329164E+03,      /* J = 26 */
(PID.TID 0000.0001)                 7.304186771219292E+03,      /* J = 27 */
(PID.TID 0000.0001)                 7.360974960289787E+03,      /* J = 28 */
(PID.TID 0000.0001)      . . .
(PID.TID 0000.0001)                 8.491800393599013E+03,      /* J = 48 */
(PID.TID 0000.0001)                 8.548081485571185E+03,      /* J = 49 */
(PID.TID 0000.0001)                 8.604336538604706E+03,      /* J = 50 */
(PID.TID 0000.0001)                 8.660565381336924E+03,      /* J = 51 */
(PID.TID 0000.0001)                 8.716767842485036E+03,      /* J = 52 */
(PID.TID 0000.0001)                 8.772943750846600E+03,      /* J = 53 */
(PID.TID 0000.0001)      . . .
(PID.TID 0000.0001)                 9.890622914885218E+03,      /* J = 73 */
(PID.TID 0000.0001)                 9.946201814818334E+03,      /* J = 74 */
(PID.TID 0000.0001)                 1.000175041689580E+04,      /* J = 75 */
(PID.TID 0000.0001)                 1.005726855190695E+04,      /* J = 76 */
(PID.TID 0000.0001)                 1.011275605073392E+04,      /* J = 77 */
(PID.TID 0000.0001)                 1.016821274435215E+04,      /* J = 78 */
(PID.TID 0000.0001)      . . .
(PID.TID 0000.0001)                 1.127061807330668E+04,      /* J = 98 */
(PID.TID 0000.0001)                 1.132538898360582E+04,      /* J = 99 */
(PID.TID 0000.0001)                 1.138012539480601E+04       /* J =100 */
(PID.TID 0000.0001)     ;
(PID.TID 0000.0001) dyF =  /* dyF(:,1,:,1) ( units: m ) */
(PID.TID 0000.0001)    50 @  1.111774733520388E+04              /* I =  1: 50 */
(PID.TID 0000.0001)     ;
(PID.TID 0000.0001) dyF =  /* dyF(1,:,1,:) ( units: m ) */
(PID.TID 0000.0001)   100 @  1.111774733520388E+04              /* J =  1:100 */
(PID.TID 0000.0001)     ;
(PID.TID 0000.0001) dxG =  /* dxG(:,1,:,1) ( units: m ) */
(PID.TID 0000.0001)    50 @  5.791729693558576E+03              /* I =  1: 50 */
(PID.TID 0000.0001)     ;
(PID.TID 0000.0001) dxG =  /* dxG(1,:,1,:) ( units: m ) */
(PID.TID 0000.0001)                 5.791729693558576E+03,      /* J =  1 */
(PID.TID 0000.0001)                 5.849048855077854E+03,      /* J =  2 */
(PID.TID 0000.0001)                 5.906350199379949E+03,      /* J =  3 */
(PID.TID 0000.0001)      . . .
(PID.TID 0000.0001)                 7.048367077963129E+03,      /* J = 23 */
(PID.TID 0000.0001)                 7.105254027978149E+03,      /* J = 24 */
(PID.TID 0000.0001)                 7.162119334157175E+03,      /* J = 25 */
(PID.TID 0000.0001)                 7.218962823278620E+03,      /* J = 26 */
(PID.TID 0000.0001)                 7.275784322187360E+03,      /* J = 27 */
(PID.TID 0000.0001)                 7.332583657795253E+03,      /* J = 28 */
(PID.TID 0000.0001)      . . .
(PID.TID 0000.0001)                 8.463650136583461E+03,      /* J = 48 */
(PID.TID 0000.0001)                 8.519944183739159E+03,      /* J = 49 */
(PID.TID 0000.0001)                 8.576212277667308E+03,      /* J = 50 */
(PID.TID 0000.0001)                 8.632454246965530E+03,      /* J = 51 */
(PID.TID 0000.0001)                 8.688669920311038E+03,      /* J = 52 */
(PID.TID 0000.0001)                 8.744859126461139E+03,      /* J = 53 */
(PID.TID 0000.0001)      . . .
(PID.TID 0000.0001)                 9.862822156126382E+03,      /* J = 73 */
(PID.TID 0000.0001)                 9.918416141504455E+03,      /* J = 74 */
(PID.TID 0000.0001)                 9.973979913666863E+03,      /* J = 75 */
(PID.TID 0000.0001)                 1.002951330335672E+04,      /* J = 76 */
(PID.TID 0000.0001)                 1.008501614140969E+04,      /* J = 77 */
(PID.TID 0000.0001)                 1.014048825875450E+04,      /* J = 78 */
(PID.TID 0000.0001)      . . .
(PID.TID 0000.0001)                 1.124321973312895E+04,      /* J = 98 */
(PID.TID 0000.0001)                 1.129800783041847E+04,      /* J = 99 */
(PID.TID 0000.0001)                 1.135276151201679E+04       /* J =100 */
(PID.TID 0000.0001)     ;
(PID.TID 0000.0001) dyG =  /* dyG(:,1,:,1) ( units: m ) */
(PID.TID 0000.0001)    50 @  1.111774733520388E+04              /* I =  1: 50 */
(PID.TID 0000.0001)     ;
(PID.TID 0000.0001) dyG =  /* dyG(1,:,1,:) ( units: m ) */
(PID.TID 0000.0001)   100 @  1.111774733520388E+04              /* J =  1:100 */
(PID.TID 0000.0001)     ;
(PID.TID 0000.0001) dxC =  /* dxC(:,1,:,1) ( units: m ) */
(PID.TID 0000.0001)    50 @  5.820391490558872E+03              /* I =  1: 50 */
(PID.TID 0000.0001)     ;
(PID.TID 0000.0001) dxC =  /* dxC(1,:,1,:) ( units: m ) */
(PID.TID 0000.0001)                 5.820391490558872E+03,      /* J =  1 */
(PID.TID 0000.0001)                 5.877701765291692E+03,      /* J =  2 */
(PID.TID 0000.0001)                 5.934994135525598E+03,      /* J =  3 */
(PID.TID 0000.0001)      . . .
(PID.TID 0000.0001)                 7.076813247621209E+03,      /* J = 23 */
(PID.TID 0000.0001)                 7.133689397375063E+03,      /* J = 24 */
(PID.TID 0000.0001)                 7.190543816673855E+03,      /* J = 25 */
(PID.TID 0000.0001)                 7.247376332329164E+03,      /* J = 26 */
(PID.TID 0000.0001)                 7.304186771219292E+03,      /* J = 27 */
(PID.TID 0000.0001)                 7.360974960289787E+03,      /* J = 28 */
(PID.TID 0000.0001)      . . .
(PID.TID 0000.0001)                 8.491800393599013E+03,      /* J = 48 */
(PID.TID 0000.0001)                 8.548081485571185E+03,      /* J = 49 */
(PID.TID 0000.0001)                 8.604336538604706E+03,      /* J = 50 */
(PID.TID 0000.0001)                 8.660565381336924E+03,      /* J = 51 */
(PID.TID 0000.0001)                 8.716767842485036E+03,      /* J = 52 */
(PID.TID 0000.0001)                 8.772943750846600E+03,      /* J = 53 */
(PID.TID 0000.0001)      . . .
(PID.TID 0000.0001)                 9.890622914885218E+03,      /* J = 73 */
(PID.TID 0000.0001)                 9.946201814818334E+03,      /* J = 74 */
(PID.TID 0000.0001)                 1.000175041689580E+04,      /* J = 75 */
(PID.TID 0000.0001)                 1.005726855190695E+04,      /* J = 76 */
(PID.TID 0000.0001)                 1.011275605073392E+04,      /* J = 77 */
(PID.TID 0000.0001)                 1.016821274435215E+04,      /* J = 78 */
(PID.TID 0000.0001)      . . .
(PID.TID 0000.0001)                 1.127061807330668E+04,      /* J = 98 */
(PID.TID 0000.0001)                 1.132538898360582E+04,      /* J = 99 */
(PID.TID 0000.0001)                 1.138012539480601E+04       /* J =100 */
(PID.TID 0000.0001)     ;
(PID.TID 0000.0001) dyC =  /* dyC(:,1,:,1) ( units: m ) */
(PID.TID 0000.0001)    50 @  1.111774733520388E+04              /* I =  1: 50 */
(PID.TID 0000.0001)     ;
(PID.TID 0000.0001) dyC =  /* dyC(1,:,1,:) ( units: m ) */
(PID.TID 0000.0001)   100 @  1.111774733520388E+04              /* J =  1:100 */
(PID.TID 0000.0001)     ;
(PID.TID 0000.0001) dxV =  /* dxV(:,1,:,1) ( units: m ) */
(PID.TID 0000.0001)    50 @  5.791729693558576E+03              /* I =  1: 50 */
(PID.TID 0000.0001)     ;
(PID.TID 0000.0001) dxV =  /* dxV(1,:,1,:) ( units: m ) */
(PID.TID 0000.0001)                 5.791729693558576E+03,      /* J =  1 */
(PID.TID 0000.0001)                 5.849048855077854E+03,      /* J =  2 */
(PID.TID 0000.0001)                 5.906350199379949E+03,      /* J =  3 */
(PID.TID 0000.0001)      . . .
(PID.TID 0000.0001)                 7.048367077963129E+03,      /* J = 23 */
(PID.TID 0000.0001)                 7.105254027978149E+03,      /* J = 24 */
(PID.TID 0000.0001)                 7.162119334157175E+03,      /* J = 25 */
(PID.TID 0000.0001)                 7.218962823278620E+03,      /* J = 26 */
(PID.TID 0000.0001)                 7.275784322187360E+03,      /* J = 27 */
(PID.TID 0000.0001)                 7.332583657795253E+03,      /* J = 28 */
(PID.TID 0000.0001)      . . .
(PID.TID 0000.0001)                 8.463650136583461E+03,      /* J = 48 */
(PID.TID 0000.0001)                 8.519944183739159E+03,      /* J = 49 */
(PID.TID 0000.0001)                 8.576212277667308E+03,      /* J = 50 */
(PID.TID 0000.0001)                 8.632454246965530E+03,      /* J = 51 */
(PID.TID 0000.0001)                 8.688669920311038E+03,      /* J = 52 */
(PID.TID 0000.0001)                 8.744859126461139E+03,      /* J = 53 */
(PID.TID 0000.0001)      . . .
(PID.TID 0000.0001)                 9.862822156126382E+03,      /* J = 73 */
(PID.TID 0000.0001)                 9.918416141504455E+03,      /* J = 74 */
(PID.TID 0000.0001)                 9.973979913666863E+03,      /* J = 75 */
(PID.TID 0000.0001)                 1.002951330335672E+04,      /* J = 76 */
(PID.TID 0000.0001)                 1.008501614140969E+04,      /* J = 77 */
(PID.TID 0000.0001)                 1.014048825875450E+04,      /* J = 78 */
(PID.TID 0000.0001)      . . .
(PID.TID 0000.0001)                 1.124321973312895E+04,      /* J = 98 */
(PID.TID 0000.0001)                 1.129800783041847E+04,      /* J = 99 */
(PID.TID 0000.0001)                 1.135276151201679E+04       /* J =100 */
(PID.TID 0000.0001)     ;
(PID.TID 0000.0001) dyU =  /* dyU(:,1,:,1) ( units: m ) */
(PID.TID 0000.0001)    50 @  1.111774733520388E+04              /* I =  1: 50 */
(PID.TID 0000.0001)     ;
(PID.TID 0000.0001) dyU =  /* dyU(1,:,1,:) ( units: m ) */
(PID.TID 0000.0001)   100 @  1.111774733520388E+04              /* J =  1:100 */
(PID.TID 0000.0001)     ;
(PID.TID 0000.0001) rA  =  /* rA (:,1,:,1) ( units: m^2 ) */
(PID.TID 0000.0001)    50 @  6.470963377080289E+07              /* I =  1: 50 */
(PID.TID 0000.0001)     ;
(PID.TID 0000.0001) rA  =  /* rA (1,:,1,:) ( units: m^2 ) */
(PID.TID 0000.0001)                 6.470963377080289E+07,      /* J =  1 */
(PID.TID 0000.0001)                 6.534679484410104E+07,      /* J =  2 */
(PID.TID 0000.0001)                 6.598375685977945E+07,      /* J =  3 */
(PID.TID 0000.0001)      . . .
(PID.TID 0000.0001)                 7.867821163932665E+07,      /* J = 23 */
(PID.TID 0000.0001)                 7.931054622142966E+07,      /* J = 24 */
(PID.TID 0000.0001)                 7.994263920984067E+07,      /* J = 25 */
(PID.TID 0000.0001)                 8.057448867913349E+07,      /* J = 26 */
(PID.TID 0000.0001)                 8.120609270456599E+07,      /* J = 27 */
(PID.TID 0000.0001)                 8.183744936212724E+07,      /* J = 28 */
(PID.TID 0000.0001)      . . .
(PID.TID 0000.0001)                 9.440967921416211E+07,      /* J = 48 */
(PID.TID 0000.0001)                 9.503539809503193E+07,      /* J = 49 */
(PID.TID 0000.0001)                 9.566082748163140E+07,      /* J = 50 */
(PID.TID 0000.0001)                 9.628596546870193E+07,      /* J = 51 */
(PID.TID 0000.0001)                 9.691081015209354E+07,      /* J = 52 */
(PID.TID 0000.0001)                 9.753535962826957E+07,      /* J = 53 */
(PID.TID 0000.0001)      . . .
(PID.TID 0000.0001)                 1.099614325987181E+08,      /* J = 73 */
(PID.TID 0000.0001)                 1.105793446869293E+08,      /* J = 74 */
(PID.TID 0000.0001)                 1.111969199312560E+08,      /* J = 75 */
(PID.TID 0000.0001)                 1.118141564504991E+08,      /* J = 76 */
(PID.TID 0000.0001)                 1.124310523644033E+08,      /* J = 77 */
(PID.TID 0000.0001)                 1.130476057938687E+08,      /* J = 78 */
(PID.TID 0000.0001)      . . .
(PID.TID 0000.0001)                 1.253038681465364E+08,      /* J = 98 */
(PID.TID 0000.0001)                 1.259127972112936E+08,      /* J = 99 */
(PID.TID 0000.0001)                 1.265213427237870E+08       /* J =100 */
(PID.TID 0000.0001)     ;
(PID.TID 0000.0001) rAw =  /* rAw(:,1,:,1) ( units: m^2 ) */
(PID.TID 0000.0001)    50 @  6.470963377080289E+07              /* I =  1: 50 */
(PID.TID 0000.0001)     ;
(PID.TID 0000.0001) rAw =  /* rAw(1,:,1,:) ( units: m^2 ) */
(PID.TID 0000.0001)                 6.470963377080289E+07,      /* J =  1 */
(PID.TID 0000.0001)                 6.534679484410104E+07,      /* J =  2 */
(PID.TID 0000.0001)                 6.598375685977945E+07,      /* J =  3 */
(PID.TID 0000.0001)      . . .
(PID.TID 0000.0001)                 7.867821163932665E+07,      /* J = 23 */
(PID.TID 0000.0001)                 7.931054622142966E+07,      /* J = 24 */
(PID.TID 0000.0001)                 7.994263920984067E+07,      /* J = 25 */
(PID.TID 0000.0001)                 8.057448867913349E+07,      /* J = 26 */
(PID.TID 0000.0001)                 8.120609270456599E+07,      /* J = 27 */
(PID.TID 0000.0001)                 8.183744936212724E+07,      /* J = 28 */
(PID.TID 0000.0001)      . . .
(PID.TID 0000.0001)                 9.440967921416211E+07,      /* J = 48 */
(PID.TID 0000.0001)                 9.503539809503193E+07,      /* J = 49 */
(PID.TID 0000.0001)                 9.566082748163140E+07,      /* J = 50 */
(PID.TID 0000.0001)                 9.628596546870193E+07,      /* J = 51 */
(PID.TID 0000.0001)                 9.691081015209354E+07,      /* J = 52 */
(PID.TID 0000.0001)                 9.753535962826957E+07,      /* J = 53 */
(PID.TID 0000.0001)      . . .
(PID.TID 0000.0001)                 1.099614325987181E+08,      /* J = 73 */
(PID.TID 0000.0001)                 1.105793446869293E+08,      /* J = 74 */
(PID.TID 0000.0001)                 1.111969199312560E+08,      /* J = 75 */
(PID.TID 0000.0001)                 1.118141564504991E+08,      /* J = 76 */
(PID.TID 0000.0001)                 1.124310523644033E+08,      /* J = 77 */
(PID.TID 0000.0001)                 1.130476057938687E+08,      /* J = 78 */
(PID.TID 0000.0001)      . . .
(PID.TID 0000.0001)                 1.253038681465364E+08,      /* J = 98 */
(PID.TID 0000.0001)                 1.259127972112936E+08,      /* J = 99 */
(PID.TID 0000.0001)                 1.265213427237870E+08       /* J =100 */
(PID.TID 0000.0001)     ;
(PID.TID 0000.0001) rAs =  /* rAs(:,1,:,1) ( units: m^2 ) */
(PID.TID 0000.0001)    50 @  6.439097919401864E+07              /* I =  1: 50 */
(PID.TID 0000.0001)     ;
(PID.TID 0000.0001) rAs =  /* rAs(1,:,1,:) ( units: m^2 ) */
(PID.TID 0000.0001)                 6.439097919401864E+07,      /* J =  1 */
(PID.TID 0000.0001)                 6.502823906837179E+07,      /* J =  2 */
(PID.TID 0000.0001)                 6.566530085543716E+07,      /* J =  3 */
(PID.TID 0000.0001)      . . .
(PID.TID 0000.0001)                 7.836195435256335E+07,      /* J = 23 */
(PID.TID 0000.0001)                 7.899440900921808E+07,      /* J = 24 */
(PID.TID 0000.0001)                 7.962662303520055E+07,      /* J = 25 */
(PID.TID 0000.0001)                 8.025859450470714E+07,      /* J = 26 */
(PID.TID 0000.0001)                 8.089032149259475E+07,      /* J = 27 */
(PID.TID 0000.0001)                 8.152180207452223E+07,      /* J = 28 */
(PID.TID 0000.0001)      . . .
(PID.TID 0000.0001)                 9.409671180895932E+07,      /* J = 48 */
(PID.TID 0000.0001)                 9.472257472228888E+07,      /* J = 49 */
(PID.TID 0000.0001)                 9.534814909420149E+07,      /* J = 50 */
(PID.TID 0000.0001)                 9.597343301913190E+07,      /* J = 51 */
(PID.TID 0000.0001)                 9.659842459236403E+07,      /* J = 52 */
(PID.TID 0000.0001)                 9.722312190998378E+07,      /* J = 53 */
(PID.TID 0000.0001)      . . .
(PID.TID 0000.0001)                 1.096523508263446E+08,      /* J = 73 */
(PID.TID 0000.0001)                 1.102704306306916E+08,      /* J = 74 */
(PID.TID 0000.0001)                 1.108881745321664E+08,      /* J = 75 */
(PID.TID 0000.0001)                 1.115055806490511E+08,      /* J = 76 */
(PID.TID 0000.0001)                 1.121226471005947E+08,      /* J = 77 */
(PID.TID 0000.0001)                 1.127393720071080E+08,      /* J = 78 */
(PID.TID 0000.0001)      . . .
(PID.TID 0000.0001)                 1.249992603617116E+08,      /* J = 98 */
(PID.TID 0000.0001)                 1.256083805070198E+08,      /* J = 99 */
(PID.TID 0000.0001)                 1.262171180274426E+08       /* J =100 */
(PID.TID 0000.0001)     ;
(PID.TID 0000.0001) globalArea = /* Integrated horizontal Area (m^2) */
(PID.TID 0000.0001)                 4.665024516720074E+11
(PID.TID 0000.0001)     ;
(PID.TID 0000.0001) // =======================================================
(PID.TID 0000.0001) // End of Model config. summary
(PID.TID 0000.0001) // =======================================================
(PID.TID 0000.0001) 
(PID.TID 0000.0001) == Packages configuration : Check & print summary ==
(PID.TID 0000.0001) 
(PID.TID 0000.0001) SHELFICE_CHECK: #define ALLOW_SHELFICE
(PID.TID 0000.0001) CTRL_CHECK: ctrl package
(PID.TID 0000.0001) COST_CHECK: cost package
(PID.TID 0000.0001) GRDCHK_CHECK: grdchk package
(PID.TID 0000.0001) GAD_CHECK: #define ALLOW_GENERIC_ADVDIFF
(PID.TID 0000.0001) // =======================================================
(PID.TID 0000.0001) // Check Model config. (CONFIG_CHECK):
(PID.TID 0000.0001) // CONFIG_CHECK : Normal End
(PID.TID 0000.0001) // =======================================================
(PID.TID 0000.0001) 
(PID.TID 0000.0001)  nRecords = 243 ; filePrec =  64 ; fileIter =      8640
(PID.TID 0000.0001)     nDims =   2 , dims:
(PID.TID 0000.0001)    1:  50   1  50
(PID.TID 0000.0001)    2: 100   1 100
(PID.TID 0000.0001)     nFlds =  11 , nFl3D =   8 , fields:
(PID.TID 0000.0001)  >Uvel    < >Vvel    < >Theta   < >Salt    < >GuNm1   < >GvNm1   < >GtNm1   < >GsNm1   < >EtaN    < >dEtaHdt < >EtaH    <
(PID.TID 0000.0001) missingVal=  1.00000000000000E+00 ; nTimRec =   1 , timeList:
(PID.TID 0000.0001)   1.555200000000E+07
(PID.TID 0000.0001) READ_MFLDS_3D_RL: read field: "Uvel    ", #   1 in fldList, rec=   1
(PID.TID 0000.0001) READ_MFLDS_3D_RL: read field: "Vvel    ", #   2 in fldList, rec=   2
(PID.TID 0000.0001) READ_MFLDS_3D_RL: read field: "Theta   ", #   3 in fldList, rec=   3
(PID.TID 0000.0001) READ_MFLDS_3D_RL: read field: "Salt    ", #   4 in fldList, rec=   4
(PID.TID 0000.0001) READ_MFLDS_3D_RL: read field: "GuNm1   ", #   5 in fldList, rec=   5
(PID.TID 0000.0001) READ_MFLDS_3D_RL: read field: "GvNm1   ", #   6 in fldList, rec=   6
(PID.TID 0000.0001) READ_MFLDS_3D_RL: read field: "GtNm1   ", #   7 in fldList, rec=   7
(PID.TID 0000.0001) READ_MFLDS_3D_RL: read field: "GsNm1   ", #   8 in fldList, rec=   8
(PID.TID 0000.0001) READ_MFLDS_3D_RL: read field: "EtaN    ", #   9 in fldList, rec= 241
(PID.TID 0000.0001) READ_MFLDS_3D_RL: read field: "dEtaHdt ", #  10 in fldList, rec= 242
(PID.TID 0000.0001) READ_MFLDS_3D_RL: read field: "EtaH    ", #  11 in fldList, rec= 243
(PID.TID 0000.0001) READ_MFLDS_CHECK: - normal end ; reset MFLDS file-name: pickup.0000008640
(PID.TID 0000.0001) // =======================================================
(PID.TID 0000.0001) // Begin MONITOR dynamic field statistics
(PID.TID 0000.0001) // =======================================================
(PID.TID 0000.0001) %MON time_tsnumber                =                  8640
(PID.TID 0000.0001) %MON time_secondsf                =   1.5552000000000E+07
(PID.TID 0000.0001) %MON dynstat_eta_max              =   1.1547478263152E-02
(PID.TID 0000.0001) %MON dynstat_eta_min              =  -2.6792518859505E-03
(PID.TID 0000.0001) %MON dynstat_eta_mean             =  -2.8025747994407E-16
(PID.TID 0000.0001) %MON dynstat_eta_sd               =   1.0200397966504E-03
(PID.TID 0000.0001) %MON dynstat_eta_del2             =   2.5371559200346E-05
(PID.TID 0000.0001) %MON dynstat_uvel_max             =   7.0225293882088E-03
(PID.TID 0000.0001) %MON dynstat_uvel_min             =  -1.1431056075099E-02
(PID.TID 0000.0001) %MON dynstat_uvel_mean            =   2.8733073796793E-05
(PID.TID 0000.0001) %MON dynstat_uvel_sd              =   1.1583626065939E-03
(PID.TID 0000.0001) %MON dynstat_uvel_del2            =   1.2791047697505E-06
(PID.TID 0000.0001) %MON dynstat_vvel_max             =   3.9338955473099E-02
(PID.TID 0000.0001) %MON dynstat_vvel_min             =  -1.3256941080851E-02
(PID.TID 0000.0001) %MON dynstat_vvel_mean            =  -9.2488922405085E-08
(PID.TID 0000.0001) %MON dynstat_vvel_sd              =   2.7751519144804E-03
(PID.TID 0000.0001) %MON dynstat_vvel_del2            =   4.9212700380926E-06
(PID.TID 0000.0001) %MON dynstat_wvel_max             =   4.2878246713501E-05
(PID.TID 0000.0001) %MON dynstat_wvel_min             =  -1.2010769874736E-04
(PID.TID 0000.0001) %MON dynstat_wvel_mean            =  -2.4994065928904E-10
(PID.TID 0000.0001) %MON dynstat_wvel_sd              =   4.2032455157767E-06
(PID.TID 0000.0001) %MON dynstat_wvel_del2            =   1.8639167581262E-08
(PID.TID 0000.0001) %MON dynstat_theta_max            =  -1.8364995507330E+00
(PID.TID 0000.0001) %MON dynstat_theta_min            =  -2.0000000000000E+00
(PID.TID 0000.0001) %MON dynstat_theta_mean           =  -1.9142907392762E+00
(PID.TID 0000.0001) %MON dynstat_theta_sd             =   3.1084271484799E-02
(PID.TID 0000.0001) %MON dynstat_theta_del2           =   6.3421694822619E-06
(PID.TID 0000.0001) %MON dynstat_salt_max             =   3.4425235078521E+01
(PID.TID 0000.0001) %MON dynstat_salt_min             =   3.4119681589956E+01
(PID.TID 0000.0001) %MON dynstat_salt_mean            =   3.4391243316095E+01
(PID.TID 0000.0001) %MON dynstat_salt_sd              =   2.3889924168882E-02
(PID.TID 0000.0001) %MON dynstat_salt_del2            =   3.3297324617654E-06
(PID.TID 0000.0001) %MON advcfl_uvel_max              =   3.4012427019763E-03
(PID.TID 0000.0001) %MON advcfl_vvel_max              =   6.3691067728586E-03
(PID.TID 0000.0001) %MON advcfl_wvel_max              =   7.2064619248418E-03
(PID.TID 0000.0001) %MON advcfl_W_hf_max              =   7.2064619248418E-03
(PID.TID 0000.0001) %MON pe_b_mean                    =   8.1423589033282E-09
(PID.TID 0000.0001) %MON ke_max                       =   7.7392672876306E-04
(PID.TID 0000.0001) %MON ke_mean                      =   4.4630698962803E-06
(PID.TID 0000.0001) %MON ke_vol                       =   2.9239970672193E+14
(PID.TID 0000.0001) %MON vort_r_min                   =  -2.3549373278644E-06
(PID.TID 0000.0001) %MON vort_r_max                   =   4.2468259247500E-06
(PID.TID 0000.0001) %MON vort_a_mean                  =  -1.4007197040361E-04
(PID.TID 0000.0001) %MON vort_a_sd                    =   1.7881275277953E-06
(PID.TID 0000.0001) %MON vort_p_mean                  =  -1.5023213240562E-04
(PID.TID 0000.0001) %MON vort_p_sd                    =   7.5278512043545E-05
(PID.TID 0000.0001) %MON surfExpan_theta_mean         =  -7.8766161303357E-23
(PID.TID 0000.0001) %MON surfExpan_salt_mean          =  -2.1702042447947E-11
(PID.TID 0000.0001) // =======================================================
(PID.TID 0000.0001) // End MONITOR dynamic field statistics
(PID.TID 0000.0001) // =======================================================
(PID.TID 0000.0001) SOLVE_FOR_PRESSURE: putPmEinXvector =    F
 cg2d: Sum(rhs),rhsMax =   7.02882196890187E-13  5.97860431289981E-02
(PID.TID 0000.0001)      cg2d_init_res =   5.92331127616910E+00
(PID.TID 0000.0001)      cg2d_iters(min,last) =      -1     208
(PID.TID 0000.0001)      cg2d_last_res =   8.67906716520419E-14
(PID.TID 0000.0001) // =======================================================
(PID.TID 0000.0001) // Begin MONITOR dynamic field statistics
(PID.TID 0000.0001) // =======================================================
(PID.TID 0000.0001) %MON time_tsnumber                =                  8641
(PID.TID 0000.0001) %MON time_secondsf                =   1.5553800000000E+07
(PID.TID 0000.0001) %MON dynstat_eta_max              =   1.1277835806489E-02
(PID.TID 0000.0001) %MON dynstat_eta_min              =  -3.3100274749332E-03
(PID.TID 0000.0001) %MON dynstat_eta_mean             =  -2.8003601333175E-16
(PID.TID 0000.0001) %MON dynstat_eta_sd               =   9.7652378576615E-04
(PID.TID 0000.0001) %MON dynstat_eta_del2             =   8.2685609362194E-06
(PID.TID 0000.0001) %MON dynstat_uvel_max             =   6.9546551411593E-03
(PID.TID 0000.0001) %MON dynstat_uvel_min             =  -1.2109505261735E-02
(PID.TID 0000.0001) %MON dynstat_uvel_mean            =   2.5153644200267E-05
(PID.TID 0000.0001) %MON dynstat_uvel_sd              =   1.1686715425638E-03
(PID.TID 0000.0001) %MON dynstat_uvel_del2            =   1.6836980058922E-06
(PID.TID 0000.0001) %MON dynstat_vvel_max             =   3.9571337511667E-02
(PID.TID 0000.0001) %MON dynstat_vvel_min             =  -1.3257547772188E-02
(PID.TID 0000.0001) %MON dynstat_vvel_mean            =   4.6557943794560E-06
(PID.TID 0000.0001) %MON dynstat_vvel_sd              =   2.7773783645128E-03
(PID.TID 0000.0001) %MON dynstat_vvel_del2            =   4.9154622171643E-06
(PID.TID 0000.0001) %MON dynstat_wvel_max             =   4.6556690295145E-05
(PID.TID 0000.0001) %MON dynstat_wvel_min             =  -1.2002081992161E-04
(PID.TID 0000.0001) %MON dynstat_wvel_mean            =   3.8663726072453E-09
(PID.TID 0000.0001) %MON dynstat_wvel_sd              =   4.1001516809161E-06
(PID.TID 0000.0001) %MON dynstat_wvel_del2            =   1.8108872745437E-08
(PID.TID 0000.0001) %MON dynstat_theta_max            =  -1.8769131963364E+00
(PID.TID 0000.0001) %MON dynstat_theta_min            =  -2.0007840743761E+00
(PID.TID 0000.0001) %MON dynstat_theta_mean           =  -1.9142988819092E+00
(PID.TID 0000.0001) %MON dynstat_theta_sd             =   3.1104431867851E-02
(PID.TID 0000.0001) %MON dynstat_theta_del2           =   6.2917085150207E-06
(PID.TID 0000.0001) %MON dynstat_salt_max             =   3.4409203525770E+01
(PID.TID 0000.0001) %MON dynstat_salt_min             =   3.4119639485228E+01
(PID.TID 0000.0001) %MON dynstat_salt_mean            =   3.4391240378523E+01
(PID.TID 0000.0001) %MON dynstat_salt_sd              =   2.3901550078413E-02
(PID.TID 0000.0001) %MON dynstat_salt_del2            =   3.3322961611585E-06
(PID.TID 0000.0001) %MON advcfl_uvel_max              =   3.6031112195961E-03
(PID.TID 0000.0001) %MON advcfl_vvel_max              =   6.4067301921369E-03
(PID.TID 0000.0001) %MON advcfl_wvel_max              =   7.2012491952965E-03
(PID.TID 0000.0001) %MON advcfl_W_hf_max              =   7.2012491952965E-03
(PID.TID 0000.0001) %MON pe_b_mean                    =  -3.5738018353862E-07
(PID.TID 0000.0001) %MON ke_max                       =   7.7643731152919E-04
(PID.TID 0000.0001) %MON ke_mean                      =   4.4808444981482E-06
(PID.TID 0000.0001) %MON ke_vol                       =   2.9239970672193E+14
(PID.TID 0000.0001) %MON vort_r_min                   =  -2.3577016281599E-06
(PID.TID 0000.0001) %MON vort_r_max                   =   4.2945433831566E-06
(PID.TID 0000.0001) %MON vort_a_mean                  =  -1.4007161344052E-04
(PID.TID 0000.0001) %MON vort_a_sd                    =   1.7877722076025E-06
(PID.TID 0000.0001) %MON vort_p_mean                  =  -1.5023174955087E-04
(PID.TID 0000.0001) %MON vort_p_sd                    =   7.5268862837488E-05
(PID.TID 0000.0001) %MON surfExpan_theta_mean         =   4.4445720538151E-12
(PID.TID 0000.0001) %MON surfExpan_salt_mean          =   1.5717368119292E-09
(PID.TID 0000.0001) // =======================================================
(PID.TID 0000.0001) // End MONITOR dynamic field statistics
(PID.TID 0000.0001) // =======================================================
 cg2d: Sum(rhs),rhsMax =   7.16468551154037E-13  5.85512053457478E-02
(PID.TID 0000.0001)      cg2d_init_res =   8.59751441166280E-02
(PID.TID 0000.0001)      cg2d_iters(min,last) =      -1     199
(PID.TID 0000.0001)      cg2d_last_res =   7.55911407667411E-14
(PID.TID 0000.0001) // =======================================================
(PID.TID 0000.0001) // Begin MONITOR dynamic field statistics
(PID.TID 0000.0001) // =======================================================
(PID.TID 0000.0001) %MON time_tsnumber                =                  8642
(PID.TID 0000.0001) %MON time_secondsf                =   1.5555600000000E+07
(PID.TID 0000.0001) %MON dynstat_eta_max              =   1.1443560257669E-02
(PID.TID 0000.0001) %MON dynstat_eta_min              =  -3.5259207379218E-03
(PID.TID 0000.0001) %MON dynstat_eta_mean             =  -2.8002749538512E-16
(PID.TID 0000.0001) %MON dynstat_eta_sd               =   1.0073325445837E-03
(PID.TID 0000.0001) %MON dynstat_eta_del2             =   8.2966575074394E-06
(PID.TID 0000.0001) %MON dynstat_uvel_max             =   6.9392221881330E-03
(PID.TID 0000.0001) %MON dynstat_uvel_min             =  -1.2349235338339E-02
(PID.TID 0000.0001) %MON dynstat_uvel_mean            =   2.5617782085526E-05
(PID.TID 0000.0001) %MON dynstat_uvel_sd              =   1.1757607571746E-03
(PID.TID 0000.0001) %MON dynstat_uvel_del2            =   1.8725003006854E-06
(PID.TID 0000.0001) %MON dynstat_vvel_max             =   3.9889220418962E-02
(PID.TID 0000.0001) %MON dynstat_vvel_min             =  -1.3257027843585E-02
(PID.TID 0000.0001) %MON dynstat_vvel_mean            =   8.3203762242043E-06
(PID.TID 0000.0001) %MON dynstat_vvel_sd              =   2.7837131424914E-03
(PID.TID 0000.0001) %MON dynstat_vvel_del2            =   4.9142521328084E-06
(PID.TID 0000.0001) %MON dynstat_wvel_max             =   4.6583131059818E-05
(PID.TID 0000.0001) %MON dynstat_wvel_min             =  -1.2002438842128E-04
(PID.TID 0000.0001) %MON dynstat_wvel_mean            =   7.2177579257673E-09
(PID.TID 0000.0001) %MON dynstat_wvel_sd              =   4.0323154403673E-06
(PID.TID 0000.0001) %MON dynstat_wvel_del2            =   1.7560782380851E-08
(PID.TID 0000.0001) %MON dynstat_theta_max            =  -1.8819023984771E+00
(PID.TID 0000.0001) %MON dynstat_theta_min            =  -2.0012905981592E+00
(PID.TID 0000.0001) %MON dynstat_theta_mean           =  -1.9143043027246E+00
(PID.TID 0000.0001) %MON dynstat_theta_sd             =   3.1118192149372E-02
(PID.TID 0000.0001) %MON dynstat_theta_del2           =   6.2637230003636E-06
(PID.TID 0000.0001) %MON dynstat_salt_max             =   3.4407234073343E+01
(PID.TID 0000.0001) %MON dynstat_salt_min             =   3.4119644872658E+01
(PID.TID 0000.0001) %MON dynstat_salt_mean            =   3.4391238414239E+01
(PID.TID 0000.0001) %MON dynstat_salt_sd              =   2.3909079612088E-02
(PID.TID 0000.0001) %MON dynstat_salt_del2            =   3.3331792659394E-06
(PID.TID 0000.0001) %MON advcfl_uvel_max              =   3.6744414771102E-03
(PID.TID 0000.0001) %MON advcfl_vvel_max              =   6.4581964843524E-03
(PID.TID 0000.0001) %MON advcfl_wvel_max              =   7.2014633052768E-03
(PID.TID 0000.0001) %MON advcfl_W_hf_max              =   7.2014633052768E-03
(PID.TID 0000.0001) %MON pe_b_mean                    =  -3.3134348060223E-07
(PID.TID 0000.0001) %MON ke_max                       =   7.8660926497658E-04
(PID.TID 0000.0001) %MON ke_mean                      =   4.5064270511066E-06
(PID.TID 0000.0001) %MON ke_vol                       =   2.9239970672193E+14
(PID.TID 0000.0001) %MON vort_r_min                   =  -2.3607308062644E-06
(PID.TID 0000.0001) %MON vort_r_max                   =   4.3418815456589E-06
(PID.TID 0000.0001) %MON vort_a_mean                  =  -1.4007161342166E-04
(PID.TID 0000.0001) %MON vort_a_sd                    =   1.7878691293507E-06
(PID.TID 0000.0001) %MON vort_p_mean                  =  -1.5023175000278E-04
(PID.TID 0000.0001) %MON vort_p_sd                    =   7.5270555007108E-05
(PID.TID 0000.0001) %MON surfExpan_theta_mean         =   1.1373889999750E-11
(PID.TID 0000.0001) %MON surfExpan_salt_mean          =   1.6188881307243E-09
(PID.TID 0000.0001) // =======================================================
(PID.TID 0000.0001) // End MONITOR dynamic field statistics
(PID.TID 0000.0001) // =======================================================
 cg2d: Sum(rhs),rhsMax =   7.19369008805870E-13  5.84775812599496E-02
(PID.TID 0000.0001)      cg2d_init_res =   4.21217859277353E-02
(PID.TID 0000.0001)      cg2d_iters(min,last) =      -1     199
(PID.TID 0000.0001)      cg2d_last_res =   8.28847663501126E-14
(PID.TID 0000.0001) // =======================================================
(PID.TID 0000.0001) // Begin MONITOR dynamic field statistics
(PID.TID 0000.0001) // =======================================================
(PID.TID 0000.0001) %MON time_tsnumber                =                  8643
(PID.TID 0000.0001) %MON time_secondsf                =   1.5557400000000E+07
(PID.TID 0000.0001) %MON dynstat_eta_max              =   1.1515573065895E-02
(PID.TID 0000.0001) %MON dynstat_eta_min              =  -3.6552429056742E-03
(PID.TID 0000.0001) %MON dynstat_eta_mean             =  -2.8013396971797E-16
(PID.TID 0000.0001) %MON dynstat_eta_sd               =   1.0180736663936E-03
(PID.TID 0000.0001) %MON dynstat_eta_del2             =   8.2841705533452E-06
(PID.TID 0000.0001) %MON dynstat_uvel_max             =   6.9300387969460E-03
(PID.TID 0000.0001) %MON dynstat_uvel_min             =  -1.2558234218677E-02
(PID.TID 0000.0001) %MON dynstat_uvel_mean            =   2.7278615029523E-05
(PID.TID 0000.0001) %MON dynstat_uvel_sd              =   1.1848853850842E-03
(PID.TID 0000.0001) %MON dynstat_uvel_del2            =   2.0064626786459E-06
(PID.TID 0000.0001) %MON dynstat_vvel_max             =   4.0227587568931E-02
(PID.TID 0000.0001) %MON dynstat_vvel_min             =  -1.3254974873122E-02
(PID.TID 0000.0001) %MON dynstat_vvel_mean            =   1.1334883120006E-05
(PID.TID 0000.0001) %MON dynstat_vvel_sd              =   2.7899836287187E-03
(PID.TID 0000.0001) %MON dynstat_vvel_del2            =   4.9136019219261E-06
(PID.TID 0000.0001) %MON dynstat_wvel_max             =   4.6976815243217E-05
(PID.TID 0000.0001) %MON dynstat_wvel_min             =  -1.2010270529487E-04
(PID.TID 0000.0001) %MON dynstat_wvel_mean            =   8.0357869082119E-09
(PID.TID 0000.0001) %MON dynstat_wvel_sd              =   4.0039085004908E-06
(PID.TID 0000.0001) %MON dynstat_wvel_del2            =   1.7346502355204E-08
(PID.TID 0000.0001) %MON dynstat_theta_max            =  -1.8848535180615E+00
(PID.TID 0000.0001) %MON dynstat_theta_min            =  -2.0017966829179E+00
(PID.TID 0000.0001) %MON dynstat_theta_mean           =  -1.9143097199731E+00
(PID.TID 0000.0001) %MON dynstat_theta_sd             =   3.1131994127232E-02
(PID.TID 0000.0001) %MON dynstat_theta_del2           =   6.2366161780848E-06
(PID.TID 0000.0001) %MON dynstat_salt_max             =   3.4406074121501E+01
(PID.TID 0000.0001) %MON dynstat_salt_min             =   3.4119648487139E+01
(PID.TID 0000.0001) %MON dynstat_salt_mean            =   3.4391236451126E+01
(PID.TID 0000.0001) %MON dynstat_salt_sd              =   2.3916626473366E-02
(PID.TID 0000.0001) %MON dynstat_salt_del2            =   3.3337565828950E-06
(PID.TID 0000.0001) %MON advcfl_uvel_max              =   3.7366278500751E-03
(PID.TID 0000.0001) %MON advcfl_vvel_max              =   6.5129792430876E-03
(PID.TID 0000.0001) %MON advcfl_wvel_max              =   7.2061623176925E-03
(PID.TID 0000.0001) %MON advcfl_W_hf_max              =   7.2061623176925E-03
(PID.TID 0000.0001) %MON pe_b_mean                    =  -2.8590108456066E-07
(PID.TID 0000.0001) %MON ke_max                       =   7.9870251741381E-04
(PID.TID 0000.0001) %MON ke_mean                      =   4.5343189839202E-06
(PID.TID 0000.0001) %MON ke_vol                       =   2.9239970672193E+14
(PID.TID 0000.0001) %MON vort_r_min                   =  -2.3686840780950E-06
(PID.TID 0000.0001) %MON vort_r_max                   =   4.3806685471215E-06
(PID.TID 0000.0001) %MON vort_a_mean                  =  -1.4007161343370E-04
(PID.TID 0000.0001) %MON vort_a_sd                    =   1.7879378192048E-06
(PID.TID 0000.0001) %MON vort_p_mean                  =  -1.5023175015767E-04
(PID.TID 0000.0001) %MON vort_p_sd                    =   7.5270171126195E-05
(PID.TID 0000.0001) %MON surfExpan_theta_mean         =   1.7175116561529E-11
(PID.TID 0000.0001) %MON surfExpan_salt_mean          =   1.6722083792120E-09
(PID.TID 0000.0001) // =======================================================
(PID.TID 0000.0001) // End MONITOR dynamic field statistics
(PID.TID 0000.0001) // =======================================================
 cg2d: Sum(rhs),rhsMax =   7.18897164020404E-13  5.84638697229424E-02
(PID.TID 0000.0001)      cg2d_init_res =   3.97392569104912E-02
(PID.TID 0000.0001)      cg2d_iters(min,last) =      -1     198
(PID.TID 0000.0001)      cg2d_last_res =   8.57444059274454E-14
(PID.TID 0000.0001) // =======================================================
(PID.TID 0000.0001) // Begin MONITOR dynamic field statistics
(PID.TID 0000.0001) // =======================================================
(PID.TID 0000.0001) %MON time_tsnumber                =                  8644
(PID.TID 0000.0001) %MON time_secondsf                =   1.5559200000000E+07
(PID.TID 0000.0001) %MON dynstat_eta_max              =   1.1484195631088E-02
(PID.TID 0000.0001) %MON dynstat_eta_min              =  -3.6775786819560E-03
(PID.TID 0000.0001) %MON dynstat_eta_mean             =  -2.8003601333175E-16
(PID.TID 0000.0001) %MON dynstat_eta_sd               =   1.0148363998203E-03
(PID.TID 0000.0001) %MON dynstat_eta_del2             =   8.2847860459074E-06
(PID.TID 0000.0001) %MON dynstat_uvel_max             =   6.9284820147402E-03
(PID.TID 0000.0001) %MON dynstat_uvel_min             =  -1.2735256013207E-02
(PID.TID 0000.0001) %MON dynstat_uvel_mean            =   2.8792162934429E-05
(PID.TID 0000.0001) %MON dynstat_uvel_sd              =   1.1960602669526E-03
(PID.TID 0000.0001) %MON dynstat_uvel_del2            =   2.0685158967916E-06
(PID.TID 0000.0001) %MON dynstat_vvel_max             =   4.0558462247722E-02
(PID.TID 0000.0001) %MON dynstat_vvel_min             =  -1.3263977593047E-02
(PID.TID 0000.0001) %MON dynstat_vvel_mean            =   1.3424713020206E-05
(PID.TID 0000.0001) %MON dynstat_vvel_sd              =   2.7956709919228E-03
(PID.TID 0000.0001) %MON dynstat_vvel_del2            =   4.9136984621552E-06
(PID.TID 0000.0001) %MON dynstat_wvel_max             =   4.7398610834948E-05
(PID.TID 0000.0001) %MON dynstat_wvel_min             =  -1.2024871521667E-04
(PID.TID 0000.0001) %MON dynstat_wvel_mean            =   7.6255069158300E-09
(PID.TID 0000.0001) %MON dynstat_wvel_sd              =   4.0048163431783E-06
(PID.TID 0000.0001) %MON dynstat_wvel_del2            =   1.7328714199172E-08
(PID.TID 0000.0001) %MON dynstat_theta_max            =  -1.8867202791459E+00
(PID.TID 0000.0001) %MON dynstat_theta_min            =  -2.0023021460345E+00
(PID.TID 0000.0001) %MON dynstat_theta_mean           =  -1.9143151317600E+00
(PID.TID 0000.0001) %MON dynstat_theta_sd             =   3.1145820036439E-02
(PID.TID 0000.0001) %MON dynstat_theta_del2           =   6.2101776512384E-06
(PID.TID 0000.0001) %MON dynstat_salt_max             =   3.4405345011395E+01
(PID.TID 0000.0001) %MON dynstat_salt_min             =   3.4119652973447E+01
(PID.TID 0000.0001) %MON dynstat_salt_mean            =   3.4391234490766E+01
(PID.TID 0000.0001) %MON dynstat_salt_sd              =   2.3924165263451E-02
(PID.TID 0000.0001) %MON dynstat_salt_del2            =   3.3343346638019E-06
(PID.TID 0000.0001) %MON advcfl_uvel_max              =   3.7892996314731E-03
(PID.TID 0000.0001) %MON advcfl_vvel_max              =   6.5665489460020E-03
(PID.TID 0000.0001) %MON advcfl_wvel_max              =   7.2149229130000E-03
(PID.TID 0000.0001) %MON advcfl_W_hf_max              =   7.2149229130000E-03
(PID.TID 0000.0001) %MON pe_b_mean                    =  -2.3195482255828E-07
(PID.TID 0000.0001) %MON ke_max                       =   8.1155248607869E-04
(PID.TID 0000.0001) %MON ke_mean                      =   4.5631150647417E-06
(PID.TID 0000.0001) %MON ke_vol                       =   2.9239970672193E+14
(PID.TID 0000.0001) %MON vort_r_min                   =  -2.3719471207480E-06
(PID.TID 0000.0001) %MON vort_r_max                   =   4.4115970857815E-06
(PID.TID 0000.0001) %MON vort_a_mean                  =  -1.4007161358950E-04
(PID.TID 0000.0001) %MON vort_a_sd                    =   1.7879711334439E-06
(PID.TID 0000.0001) %MON vort_p_mean                  =  -1.5023175041108E-04
(PID.TID 0000.0001) %MON vort_p_sd                    =   7.5269977276846E-05
(PID.TID 0000.0001) %MON surfExpan_theta_mean         =   2.0467139333642E-11
(PID.TID 0000.0001) %MON surfExpan_salt_mean          =   1.5271539417310E-09
(PID.TID 0000.0001) // =======================================================
(PID.TID 0000.0001) // End MONITOR dynamic field statistics
(PID.TID 0000.0001) // =======================================================
 cg2d: Sum(rhs),rhsMax =   7.16315895488151E-13  5.84152095863145E-02
(PID.TID 0000.0001)      cg2d_init_res =   3.94328181824453E-02
(PID.TID 0000.0001)      cg2d_iters(min,last) =      -1     196
(PID.TID 0000.0001)      cg2d_last_res =   8.76500219867932E-14
(PID.TID 0000.0001) // =======================================================
(PID.TID 0000.0001) // Begin MONITOR dynamic field statistics
(PID.TID 0000.0001) // =======================================================
(PID.TID 0000.0001) %MON time_tsnumber                =                  8645
(PID.TID 0000.0001) %MON time_secondsf                =   1.5561000000000E+07
(PID.TID 0000.0001) %MON dynstat_eta_max              =   1.1382733094586E-02
(PID.TID 0000.0001) %MON dynstat_eta_min              =  -3.6398898194314E-03
(PID.TID 0000.0001) %MON dynstat_eta_mean             =  -2.8021489021093E-16
(PID.TID 0000.0001) %MON dynstat_eta_sd               =   1.0046737977209E-03
(PID.TID 0000.0001) %MON dynstat_eta_del2             =   8.2866387551047E-06
(PID.TID 0000.0001) %MON dynstat_uvel_max             =   6.9343375976629E-03
(PID.TID 0000.0001) %MON dynstat_uvel_min             =  -1.2878741794097E-02
(PID.TID 0000.0001) %MON dynstat_uvel_mean            =   2.9626631541873E-05
(PID.TID 0000.0001) %MON dynstat_uvel_sd              =   1.2084379559315E-03
(PID.TID 0000.0001) %MON dynstat_uvel_del2            =   2.0580275368633E-06
(PID.TID 0000.0001) %MON dynstat_vvel_max             =   4.0880033023019E-02
(PID.TID 0000.0001) %MON dynstat_vvel_min             =  -1.3279344052840E-02
(PID.TID 0000.0001) %MON dynstat_vvel_mean            =   1.4144854973029E-05
(PID.TID 0000.0001) %MON dynstat_vvel_sd              =   2.8005742030697E-03
(PID.TID 0000.0001) %MON dynstat_vvel_del2            =   4.9145855231541E-06
(PID.TID 0000.0001) %MON dynstat_wvel_max             =   4.7853530217335E-05
(PID.TID 0000.0001) %MON dynstat_wvel_min             =  -1.2044416291725E-04
(PID.TID 0000.0001) %MON dynstat_wvel_mean            =   6.4270357710678E-09
(PID.TID 0000.0001) %MON dynstat_wvel_sd              =   4.0300055228642E-06
(PID.TID 0000.0001) %MON dynstat_wvel_del2            =   1.7479083495189E-08
(PID.TID 0000.0001) %MON dynstat_theta_max            =  -1.8880327476606E+00
(PID.TID 0000.0001) %MON dynstat_theta_min            =  -2.0028069838862E+00
(PID.TID 0000.0001) %MON dynstat_theta_mean           =  -1.9143205380859E+00
(PID.TID 0000.0001) %MON dynstat_theta_sd             =   3.1159664501352E-02
(PID.TID 0000.0001) %MON dynstat_theta_del2           =   6.1843038068080E-06
(PID.TID 0000.0001) %MON dynstat_salt_max             =   3.4404835970875E+01
(PID.TID 0000.0001) %MON dynstat_salt_min             =   3.4119658306831E+01
(PID.TID 0000.0001) %MON dynstat_salt_mean            =   3.4391232532847E+01
(PID.TID 0000.0001) %MON dynstat_salt_sd              =   2.3931695283222E-02
(PID.TID 0000.0001) %MON dynstat_salt_del2            =   3.3350479390488E-06
(PID.TID 0000.0001) %MON advcfl_uvel_max              =   3.8319929716058E-03
(PID.TID 0000.0001) %MON advcfl_vvel_max              =   6.6186123162229E-03
(PID.TID 0000.0001) %MON advcfl_wvel_max              =   7.2266497750347E-03
(PID.TID 0000.0001) %MON advcfl_W_hf_max              =   7.2266497750347E-03
(PID.TID 0000.0001) %MON pe_b_mean                    =  -1.7978608797221E-07
(PID.TID 0000.0001) %MON ke_max                       =   8.2451274761953E-04
(PID.TID 0000.0001) %MON ke_mean                      =   4.5912845818007E-06
(PID.TID 0000.0001) %MON ke_vol                       =   2.9239970672193E+14
(PID.TID 0000.0001) %MON vort_r_min                   =  -2.3692666895502E-06
(PID.TID 0000.0001) %MON vort_r_max                   =   4.4341746248032E-06
(PID.TID 0000.0001) %MON vort_a_mean                  =  -1.4007161401737E-04
(PID.TID 0000.0001) %MON vort_a_sd                    =   1.7879711292903E-06
(PID.TID 0000.0001) %MON vort_p_mean                  =  -1.5023175093311E-04
(PID.TID 0000.0001) %MON vort_p_sd                    =   7.5269971017775E-05
(PID.TID 0000.0001) %MON surfExpan_theta_mean         =   2.0696427567198E-11
(PID.TID 0000.0001) %MON surfExpan_salt_mean          =   1.2512972117743E-09
(PID.TID 0000.0001) // =======================================================
(PID.TID 0000.0001) // End MONITOR dynamic field statistics
(PID.TID 0000.0001) // =======================================================
 cg2d: Sum(rhs),rhsMax =   7.16607329032115E-13  5.83794409564810E-02
(PID.TID 0000.0001)      cg2d_init_res =   3.86881425848445E-02
(PID.TID 0000.0001)      cg2d_iters(min,last) =      -1     193
(PID.TID 0000.0001)      cg2d_last_res =   9.43640910456670E-14
(PID.TID 0000.0001) // =======================================================
(PID.TID 0000.0001) // Begin MONITOR dynamic field statistics
(PID.TID 0000.0001) // =======================================================
(PID.TID 0000.0001) %MON time_tsnumber                =                  8646
(PID.TID 0000.0001) %MON time_secondsf                =   1.5562800000000E+07
(PID.TID 0000.0001) %MON dynstat_eta_max              =   1.1267020874328E-02
(PID.TID 0000.0001) %MON dynstat_eta_min              =  -3.5758009865910E-03
(PID.TID 0000.0001) %MON dynstat_eta_mean             =  -2.8004879025169E-16
(PID.TID 0000.0001) %MON dynstat_eta_sd               =   9.9349915565322E-04
(PID.TID 0000.0001) %MON dynstat_eta_del2             =   8.2888059204055E-06
(PID.TID 0000.0001) %MON dynstat_uvel_max             =   6.9469355126259E-03
(PID.TID 0000.0001) %MON dynstat_uvel_min             =  -1.2970081344634E-02
(PID.TID 0000.0001) %MON dynstat_uvel_mean            =   2.9909838664513E-05
(PID.TID 0000.0001) %MON dynstat_uvel_sd              =   1.2212301346269E-03
(PID.TID 0000.0001) %MON dynstat_uvel_del2            =   1.9872532291107E-06
(PID.TID 0000.0001) %MON dynstat_vvel_max             =   4.1170523847714E-02
(PID.TID 0000.0001) %MON dynstat_vvel_min             =  -1.3296252513723E-02
(PID.TID 0000.0001) %MON dynstat_vvel_mean            =   1.3204005887277E-05
(PID.TID 0000.0001) %MON dynstat_vvel_sd              =   2.8046275899013E-03
(PID.TID 0000.0001) %MON dynstat_vvel_del2            =   4.9163103229218E-06
(PID.TID 0000.0001) %MON dynstat_wvel_max             =   4.8320863714449E-05
(PID.TID 0000.0001) %MON dynstat_wvel_min             =  -1.2066799082042E-04
(PID.TID 0000.0001) %MON dynstat_wvel_mean            =   4.8259670409001E-09
(PID.TID 0000.0001) %MON dynstat_wvel_sd              =   4.0756939513059E-06
(PID.TID 0000.0001) %MON dynstat_wvel_del2            =   1.7769380756909E-08
(PID.TID 0000.0001) %MON dynstat_theta_max            =  -1.8889941480658E+00
(PID.TID 0000.0001) %MON dynstat_theta_min            =  -2.0033111958426E+00
(PID.TID 0000.0001) %MON dynstat_theta_mean           =  -1.9143259389564E+00
(PID.TID 0000.0001) %MON dynstat_theta_sd             =   3.1173525139600E-02
(PID.TID 0000.0001) %MON dynstat_theta_del2           =   6.1589292621545E-06
(PID.TID 0000.0001) %MON dynstat_salt_max             =   3.4404466065995E+01
(PID.TID 0000.0001) %MON dynstat_salt_min             =   3.4119663542982E+01
(PID.TID 0000.0001) %MON dynstat_salt_mean            =   3.4391230577036E+01
(PID.TID 0000.0001) %MON dynstat_salt_sd              =   2.3939217317004E-02
(PID.TID 0000.0001) %MON dynstat_salt_del2            =   3.3359340315298E-06
(PID.TID 0000.0001) %MON advcfl_uvel_max              =   3.8591705112508E-03
(PID.TID 0000.0001) %MON advcfl_vvel_max              =   6.6656437398275E-03
(PID.TID 0000.0001) %MON advcfl_wvel_max              =   7.2400794492253E-03
(PID.TID 0000.0001) %MON advcfl_W_hf_max              =   7.2400794492253E-03
(PID.TID 0000.0001) %MON pe_b_mean                    =  -1.3633508775941E-07
(PID.TID 0000.0001) %MON ke_max                       =   8.3698587669986E-04
(PID.TID 0000.0001) %MON ke_mean                      =   4.6177297968093E-06
(PID.TID 0000.0001) %MON ke_vol                       =   2.9239970672193E+14
(PID.TID 0000.0001) %MON vort_r_min                   =  -2.3630509910019E-06
(PID.TID 0000.0001) %MON vort_r_max                   =   4.4484539548933E-06
(PID.TID 0000.0001) %MON vort_a_mean                  =  -1.4007161475640E-04
(PID.TID 0000.0001) %MON vort_a_sd                    =   1.7879477049023E-06
(PID.TID 0000.0001) %MON vort_p_mean                  =  -1.5023175177287E-04
(PID.TID 0000.0001) %MON vort_p_sd                    =   7.5270128390575E-05
(PID.TID 0000.0001) %MON surfExpan_theta_mean         =   1.8083295297411E-11
(PID.TID 0000.0001) %MON surfExpan_salt_mean          =   9.1755196266745E-10
(PID.TID 0000.0001) // =======================================================
(PID.TID 0000.0001) // End MONITOR dynamic field statistics
(PID.TID 0000.0001) // =======================================================
 cg2d: Sum(rhs),rhsMax =   7.20208614968243E-13  5.84375404312250E-02
(PID.TID 0000.0001)      cg2d_init_res =   3.78829854793202E-02
(PID.TID 0000.0001)      cg2d_iters(min,last) =      -1     195
(PID.TID 0000.0001)      cg2d_last_res =   7.25072388192175E-14
(PID.TID 0000.0001) // =======================================================
(PID.TID 0000.0001) // Begin MONITOR dynamic field statistics
(PID.TID 0000.0001) // =======================================================
(PID.TID 0000.0001) %MON time_tsnumber                =                  8647
(PID.TID 0000.0001) %MON time_secondsf                =   1.5564600000000E+07
(PID.TID 0000.0001) %MON dynstat_eta_max              =   1.1171971166731E-02
(PID.TID 0000.0001) %MON dynstat_eta_min              =  -3.5029317051583E-03
(PID.TID 0000.0001) %MON dynstat_eta_mean             =  -2.8013822869128E-16
(PID.TID 0000.0001) %MON dynstat_eta_sd               =   9.8399676885322E-04
(PID.TID 0000.0001) %MON dynstat_eta_del2             =   8.2908634301672E-06
(PID.TID 0000.0001) %MON dynstat_uvel_max             =   6.9653103735015E-03
(PID.TID 0000.0001) %MON dynstat_uvel_min             =  -1.3005894408039E-02
(PID.TID 0000.0001) %MON dynstat_uvel_mean            =   3.0007636623343E-05
(PID.TID 0000.0001) %MON dynstat_uvel_sd              =   1.2338531262739E-03
(PID.TID 0000.0001) %MON dynstat_uvel_del2            =   1.8778923627381E-06
(PID.TID 0000.0001) %MON dynstat_vvel_max             =   4.1413809833747E-02
(PID.TID 0000.0001) %MON dynstat_vvel_min             =  -1.3310826857382E-02
(PID.TID 0000.0001) %MON dynstat_vvel_mean            =   1.0688991521432E-05
(PID.TID 0000.0001) %MON dynstat_vvel_sd              =   2.8078222796627E-03
(PID.TID 0000.0001) %MON dynstat_vvel_del2            =   4.9189105076101E-06
(PID.TID 0000.0001) %MON dynstat_wvel_max             =   4.8762150746832E-05
(PID.TID 0000.0001) %MON dynstat_wvel_min             =  -1.2090138094055E-04
(PID.TID 0000.0001) %MON dynstat_wvel_mean            =   3.1336147574797E-09
(PID.TID 0000.0001) %MON dynstat_wvel_sd              =   4.1388307222599E-06
(PID.TID 0000.0001) %MON dynstat_wvel_del2            =   1.8169427182594E-08
(PID.TID 0000.0001) %MON dynstat_theta_max            =  -1.8897089914597E+00
(PID.TID 0000.0001) %MON dynstat_theta_min            =  -2.0038147857340E+00
(PID.TID 0000.0001) %MON dynstat_theta_mean           =  -1.9143313343824E+00
(PID.TID 0000.0001) %MON dynstat_theta_sd             =   3.1187400659736E-02
(PID.TID 0000.0001) %MON dynstat_theta_del2           =   6.1340083630412E-06
(PID.TID 0000.0001) %MON dynstat_salt_max             =   3.4404193592412E+01
(PID.TID 0000.0001) %MON dynstat_salt_min             =   3.4119667884078E+01
(PID.TID 0000.0001) %MON dynstat_salt_mean            =   3.4391228623079E+01
(PID.TID 0000.0001) %MON dynstat_salt_sd              =   2.3946732018190E-02
(PID.TID 0000.0001) %MON dynstat_salt_del2            =   3.3370181572256E-06
(PID.TID 0000.0001) %MON advcfl_uvel_max              =   3.8698264751216E-03
(PID.TID 0000.0001) %MON advcfl_vvel_max              =   6.7050325442008E-03
(PID.TID 0000.0001) %MON advcfl_wvel_max              =   7.2540828564333E-03
(PID.TID 0000.0001) %MON advcfl_W_hf_max              =   7.2540828564333E-03
(PID.TID 0000.0001) %MON pe_b_mean                    =  -1.0507175753897E-07
(PID.TID 0000.0001) %MON ke_max                       =   8.4836895847825E-04
(PID.TID 0000.0001) %MON ke_mean                      =   4.6417415946665E-06
(PID.TID 0000.0001) %MON ke_vol                       =   2.9239970672193E+14
(PID.TID 0000.0001) %MON vort_r_min                   =  -2.3619091293083E-06
(PID.TID 0000.0001) %MON vort_r_max                   =   4.4546688054862E-06
(PID.TID 0000.0001) %MON vort_a_mean                  =  -1.4007161568955E-04
(PID.TID 0000.0001) %MON vort_a_sd                    =   1.7879141242967E-06
(PID.TID 0000.0001) %MON vort_p_mean                  =  -1.5023175281478E-04
(PID.TID 0000.0001) %MON vort_p_sd                    =   7.5270430931434E-05
(PID.TID 0000.0001) %MON surfExpan_theta_mean         =   1.3336072475421E-11
(PID.TID 0000.0001) %MON surfExpan_salt_mean          =   5.8011988456211E-10
(PID.TID 0000.0001) // =======================================================
(PID.TID 0000.0001) // End MONITOR dynamic field statistics
(PID.TID 0000.0001) // =======================================================
 cg2d: Sum(rhs),rhsMax =   7.14935055601273E-13  5.85071225412134E-02
(PID.TID 0000.0001)      cg2d_init_res =   3.72891804862488E-02
(PID.TID 0000.0001)      cg2d_iters(min,last) =      -1     195
(PID.TID 0000.0001)      cg2d_last_res =   9.24707981327110E-14
(PID.TID 0000.0001) // =======================================================
(PID.TID 0000.0001) // Begin MONITOR dynamic field statistics
(PID.TID 0000.0001) // =======================================================
(PID.TID 0000.0001) %MON time_tsnumber                =                  8648
(PID.TID 0000.0001) %MON time_secondsf                =   1.5566400000000E+07
(PID.TID 0000.0001) %MON dynstat_eta_max              =   1.1101154014828E-02
(PID.TID 0000.0001) %MON dynstat_eta_min              =  -3.4232635633682E-03
(PID.TID 0000.0001) %MON dynstat_eta_mean             =  -2.8003707807508E-16
(PID.TID 0000.0001) %MON dynstat_eta_sd               =   9.7645696021477E-04
(PID.TID 0000.0001) %MON dynstat_eta_del2             =   8.2925840805362E-06
(PID.TID 0000.0001) %MON dynstat_uvel_max             =   6.9882015472020E-03
(PID.TID 0000.0001) %MON dynstat_uvel_min             =  -1.2986858377614E-02
(PID.TID 0000.0001) %MON dynstat_uvel_mean            =   3.0158902851948E-05
(PID.TID 0000.0001) %MON dynstat_uvel_sd              =   1.2459017095643E-03
(PID.TID 0000.0001) %MON dynstat_uvel_del2            =   1.7585599892319E-06
(PID.TID 0000.0001) %MON dynstat_vvel_max             =   4.1599819532980E-02
(PID.TID 0000.0001) %MON dynstat_vvel_min             =  -1.3321109902915E-02
(PID.TID 0000.0001) %MON dynstat_vvel_mean            =   7.0522404240175E-06
(PID.TID 0000.0001) %MON dynstat_vvel_sd              =   2.8101602633086E-03
(PID.TID 0000.0001) %MON dynstat_vvel_del2            =   4.9223901577333E-06
(PID.TID 0000.0001) %MON dynstat_wvel_max             =   4.9142486610527E-05
(PID.TID 0000.0001) %MON dynstat_wvel_min             =  -1.2112945122288E-04
(PID.TID 0000.0001) %MON dynstat_wvel_mean            =   1.5533929668720E-09
(PID.TID 0000.0001) %MON dynstat_wvel_sd              =   4.2163430525935E-06
(PID.TID 0000.0001) %MON dynstat_wvel_del2            =   1.8646034308684E-08
(PID.TID 0000.0001) %MON dynstat_theta_max            =  -1.8902436110008E+00
(PID.TID 0000.0001) %MON dynstat_theta_min            =  -2.0043177598801E+00
(PID.TID 0000.0001) %MON dynstat_theta_mean           =  -1.9143367243751E+00
(PID.TID 0000.0001) %MON dynstat_theta_sd             =   3.1201290284965E-02
(PID.TID 0000.0001) %MON dynstat_theta_del2           =   6.1095104873923E-06
(PID.TID 0000.0001) %MON dynstat_salt_max             =   3.4403992028793E+01
(PID.TID 0000.0001) %MON dynstat_salt_min             =   3.4119670766371E+01
(PID.TID 0000.0001) %MON dynstat_salt_mean            =   3.4391226670824E+01
(PID.TID 0000.0001) %MON dynstat_salt_sd              =   2.3954239747781E-02
(PID.TID 0000.0001) %MON dynstat_salt_del2            =   3.3383138171467E-06
(PID.TID 0000.0001) %MON advcfl_uvel_max              =   3.8641624175637E-03
(PID.TID 0000.0001) %MON advcfl_vvel_max              =   6.7351481286375E-03
(PID.TID 0000.0001) %MON advcfl_wvel_max              =   7.2677670733730E-03
(PID.TID 0000.0001) %MON advcfl_W_hf_max              =   7.2677670733730E-03
(PID.TID 0000.0001) %MON pe_b_mean                    =  -8.6853394763145E-08
(PID.TID 0000.0001) %MON ke_max                       =   8.5808809301773E-04
(PID.TID 0000.0001) %MON ke_mean                      =   4.6628382170741E-06
(PID.TID 0000.0001) %MON ke_vol                       =   2.9239970672193E+14
(PID.TID 0000.0001) %MON vort_r_min                   =  -2.3604104026370E-06
(PID.TID 0000.0001) %MON vort_r_max                   =   4.4532421433775E-06
(PID.TID 0000.0001) %MON vort_a_mean                  =  -1.4007161656998E-04
(PID.TID 0000.0001) %MON vort_a_sd                    =   1.7878829563306E-06
(PID.TID 0000.0001) %MON vort_p_mean                  =  -1.5023175380006E-04
(PID.TID 0000.0001) %MON vort_p_sd                    =   7.5270850389705E-05
(PID.TID 0000.0001) %MON surfExpan_theta_mean         =   7.2996846140020E-12
(PID.TID 0000.0001) %MON surfExpan_salt_mean          =   2.7199059819472E-10
(PID.TID 0000.0001) // =======================================================
(PID.TID 0000.0001) // End MONITOR dynamic field statistics
(PID.TID 0000.0001) // =======================================================
 cg2d: Sum(rhs),rhsMax =   7.16780801379713E-13  5.85886560035637E-02
(PID.TID 0000.0001)      cg2d_init_res =   3.69461471258381E-02
(PID.TID 0000.0001)      cg2d_iters(min,last) =      -1     195
(PID.TID 0000.0001)      cg2d_last_res =   8.49181712173844E-14
(PID.TID 0000.0001) // =======================================================
(PID.TID 0000.0001) // Begin MONITOR dynamic field statistics
(PID.TID 0000.0001) // =======================================================
(PID.TID 0000.0001) %MON time_tsnumber                =                  8649
(PID.TID 0000.0001) %MON time_secondsf                =   1.5568200000000E+07
(PID.TID 0000.0001) %MON dynstat_eta_max              =   1.1052483557751E-02
(PID.TID 0000.0001) %MON dynstat_eta_min              =  -3.3337765644189E-03
(PID.TID 0000.0001) %MON dynstat_eta_mean             =  -2.8005198448168E-16
(PID.TID 0000.0001) %MON dynstat_eta_sd               =   9.7017986875983E-04
(PID.TID 0000.0001) %MON dynstat_eta_del2             =   8.2939144561586E-06
(PID.TID 0000.0001) %MON dynstat_uvel_max             =   7.0140863291468E-03
(PID.TID 0000.0001) %MON dynstat_uvel_min             =  -1.2918017088825E-02
(PID.TID 0000.0001) %MON dynstat_uvel_mean            =   3.0372551351058E-05
(PID.TID 0000.0001) %MON dynstat_uvel_sd              =   1.2570325275092E-03
(PID.TID 0000.0001) %MON dynstat_uvel_del2            =   1.6603058731987E-06
(PID.TID 0000.0001) %MON dynstat_vvel_max             =   4.1721876863004E-02
(PID.TID 0000.0001) %MON dynstat_vvel_min             =  -1.3326695488874E-02
(PID.TID 0000.0001) %MON dynstat_vvel_mean            =   2.9346148691887E-06
(PID.TID 0000.0001) %MON dynstat_vvel_sd              =   2.8116644617769E-03
(PID.TID 0000.0001) %MON dynstat_vvel_del2            =   4.9266888844033E-06
(PID.TID 0000.0001) %MON dynstat_wvel_max             =   4.9438976027805E-05
(PID.TID 0000.0001) %MON dynstat_wvel_min             =  -1.2134011244725E-04
(PID.TID 0000.0001) %MON dynstat_wvel_mean            =   1.7391987315579E-10
(PID.TID 0000.0001) %MON dynstat_wvel_sd              =   4.3043500565619E-06
(PID.TID 0000.0001) %MON dynstat_wvel_del2            =   1.9163006328613E-08
(PID.TID 0000.0001) %MON dynstat_theta_max            =  -1.8906447038206E+00
(PID.TID 0000.0001) %MON dynstat_theta_min            =  -2.0048201243251E+00
(PID.TID 0000.0001) %MON dynstat_theta_mean           =  -1.9143421089453E+00
(PID.TID 0000.0001) %MON dynstat_theta_sd             =   3.1215193507070E-02
(PID.TID 0000.0001) %MON dynstat_theta_del2           =   6.0854184861009E-06
(PID.TID 0000.0001) %MON dynstat_salt_max             =   3.4403842678596E+01
(PID.TID 0000.0001) %MON dynstat_salt_min             =   3.4119671769963E+01
(PID.TID 0000.0001) %MON dynstat_salt_mean            =   3.4391224720210E+01
(PID.TID 0000.0001) %MON dynstat_salt_sd              =   2.3961740541397E-02
(PID.TID 0000.0001) %MON dynstat_salt_del2            =   3.3398223236788E-06
(PID.TID 0000.0001) %MON advcfl_uvel_max              =   3.8436791018008E-03
(PID.TID 0000.0001) %MON advcfl_vvel_max              =   6.7549096133537E-03
(PID.TID 0000.0001) %MON advcfl_wvel_max              =   7.2804067468353E-03
(PID.TID 0000.0001) %MON advcfl_W_hf_max              =   7.2804067468353E-03
(PID.TID 0000.0001) %MON pe_b_mean                    =  -8.0932105812825E-08
(PID.TID 0000.0001) %MON ke_max                       =   8.6566220166369E-04
(PID.TID 0000.0001) %MON ke_mean                      =   4.6806482533097E-06
(PID.TID 0000.0001) %MON ke_vol                       =   2.9239970672193E+14
(PID.TID 0000.0001) %MON vort_r_min                   =  -2.3588353683533E-06
(PID.TID 0000.0001) %MON vort_r_max                   =   4.4449042065828E-06
(PID.TID 0000.0001) %MON vort_a_mean                  =  -1.4007161712291E-04
(PID.TID 0000.0001) %MON vort_a_sd                    =   1.7878634685258E-06
(PID.TID 0000.0001) %MON vort_p_mean                  =  -1.5023175443779E-04
(PID.TID 0000.0001) %MON vort_p_sd                    =   7.5271348544137E-05
(PID.TID 0000.0001) %MON surfExpan_theta_mean         =   6.2691167640913E-13
(PID.TID 0000.0001) %MON surfExpan_salt_mean          =   5.8026257989237E-12
(PID.TID 0000.0001) // =======================================================
(PID.TID 0000.0001) // End MONITOR dynamic field statistics
(PID.TID 0000.0001) // =======================================================
 cg2d: Sum(rhs),rhsMax =   7.16823302104874E-13  5.86804176939742E-02
(PID.TID 0000.0001)      cg2d_init_res =   3.68044178240045E-02
(PID.TID 0000.0001)      cg2d_iters(min,last) =      -1     193
(PID.TID 0000.0001)      cg2d_last_res =   8.30449791466058E-14
(PID.TID 0000.0001) // =======================================================
(PID.TID 0000.0001) // Begin MONITOR dynamic field statistics
(PID.TID 0000.0001) // =======================================================
(PID.TID 0000.0001) %MON time_tsnumber                =                  8650
(PID.TID 0000.0001) %MON time_secondsf                =   1.5570000000000E+07
(PID.TID 0000.0001) %MON dynstat_eta_max              =   1.1021331054191E-02
(PID.TID 0000.0001) %MON dynstat_eta_min              =  -3.3332077205049E-03
(PID.TID 0000.0001) %MON dynstat_eta_mean             =  -2.8012971074465E-16
(PID.TID 0000.0001) %MON dynstat_eta_sd               =   9.6456338901879E-04
(PID.TID 0000.0001) %MON dynstat_eta_del2             =   8.2948751531440E-06
(PID.TID 0000.0001) %MON dynstat_uvel_max             =   7.0412915917873E-03
(PID.TID 0000.0001) %MON dynstat_uvel_min             =  -1.2808044590241E-02
(PID.TID 0000.0001) %MON dynstat_uvel_mean            =   3.0524669117520E-05
(PID.TID 0000.0001) %MON dynstat_uvel_sd              =   1.2668470233346E-03
(PID.TID 0000.0001) %MON dynstat_uvel_del2            =   1.6082679811907E-06
(PID.TID 0000.0001) %MON dynstat_vvel_max             =   4.1777685493485E-02
(PID.TID 0000.0001) %MON dynstat_vvel_min             =  -1.3328046510255E-02
(PID.TID 0000.0001) %MON dynstat_vvel_mean            =  -1.0378655684390E-06
(PID.TID 0000.0001) %MON dynstat_vvel_sd              =   2.8124030779488E-03
(PID.TID 0000.0001) %MON dynstat_vvel_del2            =   4.9316587359965E-06
(PID.TID 0000.0001) %MON dynstat_wvel_max             =   4.9640297184621E-05
(PID.TID 0000.0001) %MON dynstat_wvel_min             =  -1.2152299262222E-04
(PID.TID 0000.0001) %MON dynstat_wvel_mean            =  -9.9672137125617E-10
(PID.TID 0000.0001) %MON dynstat_wvel_sd              =   4.3977410994097E-06
(PID.TID 0000.0001) %MON dynstat_wvel_del2            =   1.9682561652693E-08
(PID.TID 0000.0001) %MON dynstat_theta_max            =  -1.8909464850975E+00
(PID.TID 0000.0001) %MON dynstat_theta_min            =  -2.0053218832175E+00
(PID.TID 0000.0001) %MON dynstat_theta_mean           =  -1.9143474881030E+00
(PID.TID 0000.0001) %MON dynstat_theta_sd             =   3.1229109967434E-02
(PID.TID 0000.0001) %MON dynstat_theta_del2           =   6.0617265163826E-06
(PID.TID 0000.0001) %MON dynstat_salt_max             =   3.4403731841929E+01
(PID.TID 0000.0001) %MON dynstat_salt_min             =   3.4119670593136E+01
(PID.TID 0000.0001) %MON dynstat_salt_mean            =   3.4391222771241E+01
(PID.TID 0000.0001) %MON dynstat_salt_sd              =   2.3969234214579E-02
(PID.TID 0000.0001) %MON dynstat_salt_del2            =   3.3415353512704E-06
(PID.TID 0000.0001) %MON advcfl_uvel_max              =   3.8109574393605E-03
(PID.TID 0000.0001) %MON advcfl_vvel_max              =   6.7639452148869E-03
(PID.TID 0000.0001) %MON advcfl_wvel_max              =   7.2913795573334E-03
(PID.TID 0000.0001) %MON advcfl_W_hf_max              =   7.2913795573334E-03
(PID.TID 0000.0001) %MON pe_b_mean                    =  -8.5746812999511E-08
(PID.TID 0000.0001) %MON ke_max                       =   8.7075772265541E-04
(PID.TID 0000.0001) %MON ke_mean                      =   4.6948341981495E-06
(PID.TID 0000.0001) %MON ke_vol                       =   2.9239970672193E+14
(PID.TID 0000.0001) %MON vort_r_min                   =  -2.3574943944461E-06
(PID.TID 0000.0001) %MON vort_r_max                   =   4.4307535845811E-06
(PID.TID 0000.0001) %MON vort_a_mean                  =  -1.4007161715895E-04
(PID.TID 0000.0001) %MON vort_a_sd                    =   1.7878605287248E-06
(PID.TID 0000.0001) %MON vort_p_mean                  =  -1.5023175450613E-04
(PID.TID 0000.0001) %MON vort_p_sd                    =   7.5271883379793E-05
(PID.TID 0000.0001) %MON surfExpan_theta_mean         =  -6.3271180284150E-12
(PID.TID 0000.0001) %MON surfExpan_salt_mean          =  -2.1955919077476E-10
(PID.TID 0000.0001) // =======================================================
(PID.TID 0000.0001) // End MONITOR dynamic field statistics
(PID.TID 0000.0001) // =======================================================
(PID.TID 0000.0001) %CHECKPOINT      8650 ckptA
 --> objf_shelfice(bi,bj) =  0.000000000000000D+00
 --> objf_shifwflx(bi,bj) =  0.000000000000000D+00
 --> objf_shelfice(bi,bj) =  0.000000000000000D+00
 --> objf_shifwflx(bi,bj) =  0.000000000000000D+00
 --> objf_shelfice(bi,bj) =  0.000000000000000D+00
 --> objf_shifwflx(bi,bj) =  0.000000000000000D+00
 --> objf_shelfice(bi,bj) =  0.000000000000000D+00
 --> objf_shifwflx(bi,bj) =  0.000000000000000D+00
 --> objf_shelfice(bi,bj) =  0.000000000000000D+00
 --> objf_shifwflx(bi,bj) =  0.000000000000000D+00
 --> objf_shelfice(bi,bj) =  0.000000000000000D+00
 --> objf_shifwflx(bi,bj) =  0.000000000000000D+00
 --> objf_shelfice(bi,bj) =  0.000000000000000D+00
 --> objf_shifwflx(bi,bj) =  0.000000000000000D+00
 --> objf_shelfice(bi,bj) =  0.000000000000000D+00
 --> objf_shifwflx(bi,bj) =  0.000000000000000D+00
  early fc =  0.000000000000000D+00
 --> objf_test(bi,bj)   =  0.272346690770725D+05
 --> objf_test(bi,bj)   =  0.280682933684484D+05
 --> objf_test(bi,bj)   =  0.489343509974690D+05
 --> objf_test(bi,bj)   =  0.505651389020868D+05
 --> objf_test(bi,bj)   =  0.526343248743839D+05
 --> objf_test(bi,bj)   =  0.548257103139520D+05
 --> objf_test(bi,bj)   =  0.526324412261016D+05
 --> objf_test(bi,bj)   =  0.548254596779668D+05
  local fc =  0.369720388437481D+06
 global fc =  0.369720388437481D+06
(PID.TID 0000.0001) SOLVE_FOR_PRESSURE: putPmEinXvector =    F
 cg2d: Sum(rhs),rhsMax =   7.02882196890187E-13  5.97860431289981E-02
 cg2d: Sum(rhs),rhsMax =   7.16468551154037E-13  5.85512053457478E-02
 cg2d: Sum(rhs),rhsMax =   7.19369008805870E-13  5.84775812599496E-02
 cg2d: Sum(rhs),rhsMax =   7.18897164020404E-13  5.84638697229424E-02
 cg2d: Sum(rhs),rhsMax =   7.16315895488151E-13  5.84152095863145E-02
 cg2d: Sum(rhs),rhsMax =   7.16607329032115E-13  5.83794409564810E-02
 cg2d: Sum(rhs),rhsMax =   7.20208614968243E-13  5.84375404312250E-02
 cg2d: Sum(rhs),rhsMax =   7.14935055601273E-13  5.85071225412134E-02
 cg2d: Sum(rhs),rhsMax =   7.16780801379713E-13  5.85886560035637E-02
 cg2d: Sum(rhs),rhsMax =   7.16823302104874E-13  5.86804176939742E-02
(PID.TID 0000.0001) Did not write pickup because writePickupAtEnd = FALSE
 cg2d: Sum(rhs),rhsMax =   7.16780801379713E-13  5.85886560035637E-02
 cg2d: Sum(rhs),rhsMax =   7.16823302104874E-13  5.86804176939742E-02
(PID.TID 0000.0001) Did not write pickup because writePickupAtEnd = FALSE
 cg2d: Sum(rhs),rhsMax =   7.16823302104874E-13  5.86804176939742E-02
(PID.TID 0000.0001) Did not write pickup because writePickupAtEnd = FALSE
(PID.TID 0000.0001) // =======================================================
(PID.TID 0000.0001) // Begin MONITOR dynamic field statistics
(PID.TID 0000.0001) // =======================================================
(PID.TID 0000.0001) %MON ad_time_tsnumber             =                  8650
(PID.TID 0000.0001) %MON ad_time_secondsf             =   1.5570000000000E+07
(PID.TID 0000.0001) %MON ad_dynstat_adeta_max         =   0.0000000000000E+00
(PID.TID 0000.0001) %MON ad_dynstat_adeta_min         =   0.0000000000000E+00
(PID.TID 0000.0001) %MON ad_dynstat_adeta_mean        =   0.0000000000000E+00
(PID.TID 0000.0001) %MON ad_dynstat_adeta_sd          =   0.0000000000000E+00
(PID.TID 0000.0001) %MON ad_dynstat_adeta_del2        =   0.0000000000000E+00
(PID.TID 0000.0001) %MON ad_dynstat_aduvel_max        =   0.0000000000000E+00
(PID.TID 0000.0001) %MON ad_dynstat_aduvel_min        =   0.0000000000000E+00
(PID.TID 0000.0001) %MON ad_dynstat_aduvel_mean       =   0.0000000000000E+00
(PID.TID 0000.0001) %MON ad_dynstat_aduvel_sd         =   0.0000000000000E+00
(PID.TID 0000.0001) %MON ad_dynstat_aduvel_del2       =   0.0000000000000E+00
(PID.TID 0000.0001) %MON ad_dynstat_advvel_max        =   0.0000000000000E+00
(PID.TID 0000.0001) %MON ad_dynstat_advvel_min        =   0.0000000000000E+00
(PID.TID 0000.0001) %MON ad_dynstat_advvel_mean       =   0.0000000000000E+00
(PID.TID 0000.0001) %MON ad_dynstat_advvel_sd         =   0.0000000000000E+00
(PID.TID 0000.0001) %MON ad_dynstat_advvel_del2       =   0.0000000000000E+00
(PID.TID 0000.0001) %MON ad_dynstat_adwvel_max        =   0.0000000000000E+00
(PID.TID 0000.0001) %MON ad_dynstat_adwvel_min        =   0.0000000000000E+00
(PID.TID 0000.0001) %MON ad_dynstat_adwvel_mean       =   0.0000000000000E+00
(PID.TID 0000.0001) %MON ad_dynstat_adwvel_sd         =   0.0000000000000E+00
(PID.TID 0000.0001) %MON ad_dynstat_adwvel_del2       =   0.0000000000000E+00
(PID.TID 0000.0001) %MON ad_dynstat_adtheta_max       =  -3.7818929701951E+00
(PID.TID 0000.0001) %MON ad_dynstat_adtheta_min       =  -4.0106437664351E+00
(PID.TID 0000.0001) %MON ad_dynstat_adtheta_mean      =  -3.8286949762059E+00
(PID.TID 0000.0001) %MON ad_dynstat_adtheta_sd        =   6.2458219934869E-02
(PID.TID 0000.0001) %MON ad_dynstat_adtheta_del2      =   3.9055694399660E-03
(PID.TID 0000.0001) %MON ad_dynstat_adsalt_max        =   0.0000000000000E+00
(PID.TID 0000.0001) %MON ad_dynstat_adsalt_min        =   0.0000000000000E+00
(PID.TID 0000.0001) %MON ad_dynstat_adsalt_mean       =   0.0000000000000E+00
(PID.TID 0000.0001) %MON ad_dynstat_adsalt_sd         =   0.0000000000000E+00
(PID.TID 0000.0001) %MON ad_dynstat_adsalt_del2       =   0.0000000000000E+00
(PID.TID 0000.0001) // =======================================================
(PID.TID 0000.0001) // End MONITOR dynamic field statistics
(PID.TID 0000.0001) // =======================================================
 cg2d: Sum(rhs),rhsMax =  -1.11022302462516E-13  2.25405084552970E-05
 cg2d: Sum(rhs),rhsMax =   7.16780801379713E-13  5.85886560035637E-02
(PID.TID 0000.0001) // =======================================================
(PID.TID 0000.0001) // Begin MONITOR dynamic field statistics
(PID.TID 0000.0001) // =======================================================
(PID.TID 0000.0001) %MON ad_time_tsnumber             =                  8649
(PID.TID 0000.0001) %MON ad_time_secondsf             =   1.5568200000000E+07
(PID.TID 0000.0001) %MON ad_dynstat_adeta_max         =   9.7836181397443E-03
(PID.TID 0000.0001) %MON ad_dynstat_adeta_min         =  -1.2971821307698E-02
(PID.TID 0000.0001) %MON ad_dynstat_adeta_mean        =  -1.2800232002677E-07
(PID.TID 0000.0001) %MON ad_dynstat_adeta_sd          =   1.6227265081940E-03
(PID.TID 0000.0001) %MON ad_dynstat_adeta_del2        =   2.4512934242575E-05
(PID.TID 0000.0001) %MON ad_dynstat_aduvel_max        =   3.9547525507215E-04
(PID.TID 0000.0001) %MON ad_dynstat_aduvel_min        =  -6.0200574857299E-04
(PID.TID 0000.0001) %MON ad_dynstat_aduvel_mean       =  -1.0058428647188E-06
(PID.TID 0000.0001) %MON ad_dynstat_aduvel_sd         =   9.0465328057532E-06
(PID.TID 0000.0001) %MON ad_dynstat_aduvel_del2       =   3.1331736156555E-08
(PID.TID 0000.0001) %MON ad_dynstat_advvel_max        =   8.6940226728844E-04
(PID.TID 0000.0001) %MON ad_dynstat_advvel_min        =  -8.2835972613152E-04
(PID.TID 0000.0001) %MON ad_dynstat_advvel_mean       =   4.1020146420291E-04
(PID.TID 0000.0001) %MON ad_dynstat_advvel_sd         =   2.2883404208634E-04
(PID.TID 0000.0001) %MON ad_dynstat_advvel_del2       =   5.3576878412311E-07
(PID.TID 0000.0001) %MON ad_dynstat_adwvel_max        =   8.2769749779277E-04
(PID.TID 0000.0001) %MON ad_dynstat_adwvel_min        =  -2.4790372229672E-04
(PID.TID 0000.0001) %MON ad_dynstat_adwvel_mean       =  -5.2621996932250E-07
(PID.TID 0000.0001) %MON ad_dynstat_adwvel_sd         =   6.5017662090845E-06
(PID.TID 0000.0001) %MON ad_dynstat_adwvel_del2       =   3.7956551684670E-08
(PID.TID 0000.0001) %MON ad_dynstat_adtheta_max       =  -8.8769010019064E-01
(PID.TID 0000.0001) %MON ad_dynstat_adtheta_min       =  -7.0995151458871E+00
(PID.TID 0000.0001) %MON ad_dynstat_adtheta_mean      =  -3.8286242538434E+00
(PID.TID 0000.0001) %MON ad_dynstat_adtheta_sd        =   7.1783296369232E-02
(PID.TID 0000.0001) %MON ad_dynstat_adtheta_del2      =   3.9155660199983E-03
(PID.TID 0000.0001) %MON ad_dynstat_adsalt_max        =   8.0540269476927E-04
(PID.TID 0000.0001) %MON ad_dynstat_adsalt_min        =  -2.0002579521053E-04
(PID.TID 0000.0001) %MON ad_dynstat_adsalt_mean       =   2.1004737256855E-05
(PID.TID 0000.0001) %MON ad_dynstat_adsalt_sd         =   1.0001021198153E-04
(PID.TID 0000.0001) %MON ad_dynstat_adsalt_del2       =   2.0987103702422E-07
(PID.TID 0000.0001) // =======================================================
(PID.TID 0000.0001) // End MONITOR dynamic field statistics
(PID.TID 0000.0001) // =======================================================
 cg2d: Sum(rhs),rhsMax =  -2.27595720048157E-15  4.63901289659774E-04
 cg2d: Sum(rhs),rhsMax =   7.20208614968243E-13  5.84375404312250E-02
 cg2d: Sum(rhs),rhsMax =   7.14935055601273E-13  5.85071225412134E-02
 cg2d: Sum(rhs),rhsMax =   7.14935055601273E-13  5.85071225412134E-02
(PID.TID 0000.0001) // =======================================================
(PID.TID 0000.0001) // Begin MONITOR dynamic field statistics
(PID.TID 0000.0001) // =======================================================
(PID.TID 0000.0001) %MON ad_time_tsnumber             =                  8648
(PID.TID 0000.0001) %MON ad_time_secondsf             =   1.5566400000000E+07
(PID.TID 0000.0001) %MON ad_dynstat_adeta_max         =   1.8522545110185E-02
(PID.TID 0000.0001) %MON ad_dynstat_adeta_min         =  -2.4690389461705E-02
(PID.TID 0000.0001) %MON ad_dynstat_adeta_mean        =  -9.3978898214627E-06
(PID.TID 0000.0001) %MON ad_dynstat_adeta_sd          =   3.0342929997559E-03
(PID.TID 0000.0001) %MON ad_dynstat_adeta_del2        =   4.5746384976848E-05
(PID.TID 0000.0001) %MON ad_dynstat_aduvel_max        =   4.8756772908061E-04
(PID.TID 0000.0001) %MON ad_dynstat_aduvel_min        =  -8.9859846384232E-04
(PID.TID 0000.0001) %MON ad_dynstat_aduvel_mean       =  -9.6620551978338E-05
(PID.TID 0000.0001) %MON ad_dynstat_aduvel_sd         =   4.7223228846910E-05
(PID.TID 0000.0001) %MON ad_dynstat_aduvel_del2       =   1.1807343957515E-07
(PID.TID 0000.0001) %MON ad_dynstat_advvel_max        =   1.0847759537542E-03
(PID.TID 0000.0001) %MON ad_dynstat_advvel_min        =  -1.3182209767279E-03
(PID.TID 0000.0001) %MON ad_dynstat_advvel_mean       =   4.7359944416239E-04
(PID.TID 0000.0001) %MON ad_dynstat_advvel_sd         =   3.2169481575788E-04
(PID.TID 0000.0001) %MON ad_dynstat_advvel_del2       =   6.6104565710510E-07
(PID.TID 0000.0001) %MON ad_dynstat_adwvel_max        =   8.0496970994212E-04
(PID.TID 0000.0001) %MON ad_dynstat_adwvel_min        =  -2.8331876442470E-04
(PID.TID 0000.0001) %MON ad_dynstat_adwvel_mean       =  -1.1840795199039E-06
(PID.TID 0000.0001) %MON ad_dynstat_adwvel_sd         =   8.9328896956236E-06
(PID.TID 0000.0001) %MON ad_dynstat_adwvel_del2       =   5.9359197259219E-08
(PID.TID 0000.0001) %MON ad_dynstat_adtheta_max       =  -8.8658218408407E-01
(PID.TID 0000.0001) %MON ad_dynstat_adtheta_min       =  -7.0912243204662E+00
(PID.TID 0000.0001) %MON ad_dynstat_adtheta_mean      =  -3.8283883531533E+00
(PID.TID 0000.0001) %MON ad_dynstat_adtheta_sd        =   7.1191628045533E-02
(PID.TID 0000.0001) %MON ad_dynstat_adtheta_del2      =   3.9151933419251E-03
(PID.TID 0000.0001) %MON ad_dynstat_adsalt_max        =   1.3148746305434E-03
(PID.TID 0000.0001) %MON ad_dynstat_adsalt_min        =  -3.8284030379141E-04
(PID.TID 0000.0001) %MON ad_dynstat_adsalt_mean       =   3.1844639445077E-05
(PID.TID 0000.0001) %MON ad_dynstat_adsalt_sd         =   1.6412273690466E-04
(PID.TID 0000.0001) %MON ad_dynstat_adsalt_del2       =   3.4384350320927E-07
(PID.TID 0000.0001) // =======================================================
(PID.TID 0000.0001) // End MONITOR dynamic field statistics
(PID.TID 0000.0001) // =======================================================
 cg2d: Sum(rhs),rhsMax =  -9.29811783123569E-16  8.93489436126882E-04
 cg2d: Sum(rhs),rhsMax =   7.20208614968243E-13  5.84375404312250E-02
(PID.TID 0000.0001) // =======================================================
(PID.TID 0000.0001) // Begin MONITOR dynamic field statistics
(PID.TID 0000.0001) // =======================================================
(PID.TID 0000.0001) %MON ad_time_tsnumber             =                  8647
(PID.TID 0000.0001) %MON ad_time_secondsf             =   1.5564600000000E+07
(PID.TID 0000.0001) %MON ad_dynstat_adeta_max         =   2.5414089571269E-02
(PID.TID 0000.0001) %MON ad_dynstat_adeta_min         =  -3.4946920903013E-02
(PID.TID 0000.0001) %MON ad_dynstat_adeta_mean        =  -2.9266690799299E-05
(PID.TID 0000.0001) %MON ad_dynstat_adeta_sd          =   4.2076085729044E-03
(PID.TID 0000.0001) %MON ad_dynstat_adeta_del2        =   6.3271747443140E-05
(PID.TID 0000.0001) %MON ad_dynstat_aduvel_max        =   5.5901527792021E-04
(PID.TID 0000.0001) %MON ad_dynstat_aduvel_min        =  -1.0420562921124E-03
(PID.TID 0000.0001) %MON ad_dynstat_aduvel_mean       =  -2.3776003210179E-04
(PID.TID 0000.0001) %MON ad_dynstat_aduvel_sd         =   8.9293537836601E-05
(PID.TID 0000.0001) %MON ad_dynstat_aduvel_del2       =   2.7918772496254E-07
(PID.TID 0000.0001) %MON ad_dynstat_advvel_max        =   1.1010010384112E-03
(PID.TID 0000.0001) %MON ad_dynstat_advvel_min        =  -1.5856492200232E-03
(PID.TID 0000.0001) %MON ad_dynstat_advvel_mean       =   4.1429046189749E-04
(PID.TID 0000.0001) %MON ad_dynstat_advvel_sd         =   3.5879325721543E-04
(PID.TID 0000.0001) %MON ad_dynstat_advvel_del2       =   6.3512382415875E-07
(PID.TID 0000.0001) %MON ad_dynstat_adwvel_max        =   7.9161970342059E-04
(PID.TID 0000.0001) %MON ad_dynstat_adwvel_min        =  -3.8255928117461E-04
(PID.TID 0000.0001) %MON ad_dynstat_adwvel_mean       =  -2.4775452449305E-06
(PID.TID 0000.0001) %MON ad_dynstat_adwvel_sd         =   1.7118029976545E-05
(PID.TID 0000.0001) %MON ad_dynstat_adwvel_del2       =   1.0748594259696E-07
(PID.TID 0000.0001) %MON ad_dynstat_adtheta_max       =  -8.8509208734209E-01
(PID.TID 0000.0001) %MON ad_dynstat_adtheta_min       =  -7.0832189301727E+00
(PID.TID 0000.0001) %MON ad_dynstat_adtheta_mean      =  -3.8281523048953E+00
(PID.TID 0000.0001) %MON ad_dynstat_adtheta_sd        =   7.0593118744828E-02
(PID.TID 0000.0001) %MON ad_dynstat_adtheta_del2      =   3.9147980529768E-03
(PID.TID 0000.0001) %MON ad_dynstat_adsalt_max        =   1.8396020682318E-03
(PID.TID 0000.0001) %MON ad_dynstat_adsalt_min        =  -5.6191741815222E-04
(PID.TID 0000.0001) %MON ad_dynstat_adsalt_mean       =   4.2397594678354E-05
(PID.TID 0000.0001) %MON ad_dynstat_adsalt_sd         =   2.2895148731590E-04
(PID.TID 0000.0001) %MON ad_dynstat_adsalt_del2       =   4.8153195552123E-07
(PID.TID 0000.0001) // =======================================================
(PID.TID 0000.0001) // End MONITOR dynamic field statistics
(PID.TID 0000.0001) // =======================================================
 cg2d: Sum(rhs),rhsMax =  -9.78384040450919E-16  1.27571246122128E-03
 cg2d: Sum(rhs),rhsMax =   7.16315895488151E-13  5.84152095863145E-02
 cg2d: Sum(rhs),rhsMax =   7.16607329032115E-13  5.83794409564810E-02
 cg2d: Sum(rhs),rhsMax =   7.16607329032115E-13  5.83794409564810E-02
(PID.TID 0000.0001) // =======================================================
(PID.TID 0000.0001) // Begin MONITOR dynamic field statistics
(PID.TID 0000.0001) // =======================================================
(PID.TID 0000.0001) %MON ad_time_tsnumber             =                  8646
(PID.TID 0000.0001) %MON ad_time_secondsf             =   1.5562800000000E+07
(PID.TID 0000.0001) %MON ad_dynstat_adeta_max         =   2.8588296678338E-02
(PID.TID 0000.0001) %MON ad_dynstat_adeta_min         =  -4.1420292863250E-02
(PID.TID 0000.0001) %MON ad_dynstat_adeta_mean        =  -5.7761662743113E-05
(PID.TID 0000.0001) %MON ad_dynstat_adeta_sd          =   4.9163909725714E-03
(PID.TID 0000.0001) %MON ad_dynstat_adeta_del2        =   7.3748368981975E-05
(PID.TID 0000.0001) %MON ad_dynstat_aduvel_max        =   5.7769786789422E-04
(PID.TID 0000.0001) %MON ad_dynstat_aduvel_min        =  -1.0001456562120E-03
(PID.TID 0000.0001) %MON ad_dynstat_aduvel_mean       =  -3.6926006638169E-04
(PID.TID 0000.0001) %MON ad_dynstat_aduvel_sd         =   1.2572630755999E-04
(PID.TID 0000.0001) %MON ad_dynstat_aduvel_del2       =   4.3545538781667E-07
(PID.TID 0000.0001) %MON ad_dynstat_advvel_max        =   1.0054999940149E-03
(PID.TID 0000.0001) %MON ad_dynstat_advvel_min        =  -1.6502706918996E-03
(PID.TID 0000.0001) %MON ad_dynstat_advvel_mean       =   2.5179741387256E-04
(PID.TID 0000.0001) %MON ad_dynstat_advvel_sd         =   3.5461767337516E-04
(PID.TID 0000.0001) %MON ad_dynstat_advvel_del2       =   5.0701707623949E-07
(PID.TID 0000.0001) %MON ad_dynstat_adwvel_max        =   6.5898061790553E-04
(PID.TID 0000.0001) %MON ad_dynstat_adwvel_min        =  -4.6508569868471E-04
(PID.TID 0000.0001) %MON ad_dynstat_adwvel_mean       =  -3.8435102332888E-06
(PID.TID 0000.0001) %MON ad_dynstat_adwvel_sd         =   2.6647857554549E-05
(PID.TID 0000.0001) %MON ad_dynstat_adwvel_del2       =   1.5471559680248E-07
(PID.TID 0000.0001) %MON ad_dynstat_adtheta_max       =  -8.8360428242865E-01
(PID.TID 0000.0001) %MON ad_dynstat_adtheta_min       =  -7.0751961386605E+00
(PID.TID 0000.0001) %MON ad_dynstat_adtheta_mean      =  -3.8279198264712E+00
(PID.TID 0000.0001) %MON ad_dynstat_adtheta_sd        =   6.9991926583882E-02
(PID.TID 0000.0001) %MON ad_dynstat_adtheta_del2      =   3.9146520105059E-03
(PID.TID 0000.0001) %MON ad_dynstat_adsalt_max        =   2.3686572109172E-03
(PID.TID 0000.0001) %MON ad_dynstat_adsalt_min        =  -7.2631472731457E-04
(PID.TID 0000.0001) %MON ad_dynstat_adsalt_mean       =   5.3221610875169E-05
(PID.TID 0000.0001) %MON ad_dynstat_adsalt_sd         =   2.9409867439699E-04
(PID.TID 0000.0001) %MON ad_dynstat_adsalt_del2       =   6.1993474503953E-07
(PID.TID 0000.0001) // =======================================================
(PID.TID 0000.0001) // End MONITOR dynamic field statistics
(PID.TID 0000.0001) // =======================================================
 cg2d: Sum(rhs),rhsMax =  -3.20576898360514E-15  1.52508791811890E-03
 cg2d: Sum(rhs),rhsMax =   7.16315895488151E-13  5.84152095863145E-02
(PID.TID 0000.0001) // =======================================================
(PID.TID 0000.0001) // Begin MONITOR dynamic field statistics
(PID.TID 0000.0001) // =======================================================
(PID.TID 0000.0001) %MON ad_time_tsnumber             =                  8645
(PID.TID 0000.0001) %MON ad_time_secondsf             =   1.5561000000000E+07
(PID.TID 0000.0001) %MON ad_dynstat_adeta_max         =   2.7060202761020E-02
(PID.TID 0000.0001) %MON ad_dynstat_adeta_min         =  -4.2756996206335E-02
(PID.TID 0000.0001) %MON ad_dynstat_adeta_mean        =  -9.0186800632454E-05
(PID.TID 0000.0001) %MON ad_dynstat_adeta_sd          =   5.0611295706330E-03
(PID.TID 0000.0001) %MON ad_dynstat_adeta_del2        =   7.5816171868201E-05
(PID.TID 0000.0001) %MON ad_dynstat_aduvel_max        =   5.4817200057224E-04
(PID.TID 0000.0001) %MON ad_dynstat_aduvel_min        =  -7.9287918951255E-04
(PID.TID 0000.0001) %MON ad_dynstat_aduvel_mean       =  -4.4245244874980E-04
(PID.TID 0000.0001) %MON ad_dynstat_aduvel_sd         =   1.4542167654145E-04
(PID.TID 0000.0001) %MON ad_dynstat_aduvel_del2       =   5.2273762103047E-07
(PID.TID 0000.0001) %MON ad_dynstat_advvel_max        =   8.2144976140366E-04
(PID.TID 0000.0001) %MON ad_dynstat_advvel_min        =  -1.5344395455365E-03
(PID.TID 0000.0001) %MON ad_dynstat_advvel_mean       =   1.7902427472821E-05
(PID.TID 0000.0001) %MON ad_dynstat_advvel_sd         =   3.2907689445149E-04
(PID.TID 0000.0001) %MON ad_dynstat_advvel_del2       =   3.8387448344887E-07
(PID.TID 0000.0001) %MON ad_dynstat_adwvel_max        =   4.3426144669083E-04
(PID.TID 0000.0001) %MON ad_dynstat_adwvel_min        =  -5.3123695884288E-04
(PID.TID 0000.0001) %MON ad_dynstat_adwvel_mean       =  -5.0491386751438E-06
(PID.TID 0000.0001) %MON ad_dynstat_adwvel_sd         =   3.5449139796898E-05
(PID.TID 0000.0001) %MON ad_dynstat_adwvel_del2       =   1.9233238323470E-07
(PID.TID 0000.0001) %MON ad_dynstat_adtheta_max       =  -7.1461301877791E-01
(PID.TID 0000.0001) %MON ad_dynstat_adtheta_min       =  -7.0607374726200E+00
(PID.TID 0000.0001) %MON ad_dynstat_adtheta_mean      =  -3.8277075310146E+00
(PID.TID 0000.0001) %MON ad_dynstat_adtheta_sd        =   6.9629893928270E-02
(PID.TID 0000.0001) %MON ad_dynstat_adtheta_del2      =   3.9144693446442E-03
(PID.TID 0000.0001) %MON ad_dynstat_adsalt_max        =   2.8965583482888E-03
(PID.TID 0000.0001) %MON ad_dynstat_adsalt_min        =  -8.8655645974890E-04
(PID.TID 0000.0001) %MON ad_dynstat_adsalt_mean       =   6.4751923761442E-05
(PID.TID 0000.0001) %MON ad_dynstat_adsalt_sd         =   3.5934055580408E-04
(PID.TID 0000.0001) %MON ad_dynstat_adsalt_del2       =   7.5598284532188E-07
(PID.TID 0000.0001) // =======================================================
(PID.TID 0000.0001) // End MONITOR dynamic field statistics
(PID.TID 0000.0001) // =======================================================
 cg2d: Sum(rhs),rhsMax =  -1.64104840827406E-15  1.59227017757022E-03
 cg2d: Sum(rhs),rhsMax =   7.19369008805870E-13  5.84775812599496E-02
 cg2d: Sum(rhs),rhsMax =   7.18897164020404E-13  5.84638697229424E-02
 cg2d: Sum(rhs),rhsMax =   7.18897164020404E-13  5.84638697229424E-02
(PID.TID 0000.0001) // =======================================================
(PID.TID 0000.0001) // Begin MONITOR dynamic field statistics
(PID.TID 0000.0001) // =======================================================
(PID.TID 0000.0001) %MON ad_time_tsnumber             =                  8644
(PID.TID 0000.0001) %MON ad_time_secondsf             =   1.5559200000000E+07
(PID.TID 0000.0001) %MON ad_dynstat_adeta_max         =   2.0762792778303E-02
(PID.TID 0000.0001) %MON ad_dynstat_adeta_min         =  -3.8730674921179E-02
(PID.TID 0000.0001) %MON ad_dynstat_adeta_mean        =  -1.2087776410129E-04
(PID.TID 0000.0001) %MON ad_dynstat_adeta_sd          =   4.7152183696163E-03
(PID.TID 0000.0001) %MON ad_dynstat_adeta_del2        =   7.0810007152448E-05
(PID.TID 0000.0001) %MON ad_dynstat_aduvel_max        =   4.8152157980601E-04
(PID.TID 0000.0001) %MON ad_dynstat_aduvel_min        =  -7.1884655064685E-04
(PID.TID 0000.0001) %MON ad_dynstat_aduvel_mean       =  -4.3107019300310E-04
(PID.TID 0000.0001) %MON ad_dynstat_aduvel_sd         =   1.4531072077574E-04
(PID.TID 0000.0001) %MON ad_dynstat_aduvel_del2       =   5.1011480256455E-07
(PID.TID 0000.0001) %MON ad_dynstat_advvel_max        =   5.6986186433100E-04
(PID.TID 0000.0001) %MON ad_dynstat_advvel_min        =  -1.5211721181305E-03
(PID.TID 0000.0001) %MON ad_dynstat_advvel_mean       =  -2.4697264173655E-04
(PID.TID 0000.0001) %MON ad_dynstat_advvel_sd         =   2.9986678217622E-04
(PID.TID 0000.0001) %MON ad_dynstat_advvel_del2       =   4.3802388679204E-07
(PID.TID 0000.0001) %MON ad_dynstat_adwvel_max        =   3.7969591008734E-04
(PID.TID 0000.0001) %MON ad_dynstat_adwvel_min        =  -6.7308262608218E-04
(PID.TID 0000.0001) %MON ad_dynstat_adwvel_mean       =  -6.0282315128018E-06
(PID.TID 0000.0001) %MON ad_dynstat_adwvel_sd         =   4.2935909330893E-05
(PID.TID 0000.0001) %MON ad_dynstat_adwvel_del2       =   2.2001608268240E-07
(PID.TID 0000.0001) %MON ad_dynstat_adtheta_max       =  -6.6138945784481E-01
(PID.TID 0000.0001) %MON ad_dynstat_adtheta_min       =  -7.0323334875185E+00
(PID.TID 0000.0001) %MON ad_dynstat_adtheta_mean      =  -3.8274813275041E+00
(PID.TID 0000.0001) %MON ad_dynstat_adtheta_sd        =   6.8595104450156E-02
(PID.TID 0000.0001) %MON ad_dynstat_adtheta_del2      =   3.9136842709650E-03
(PID.TID 0000.0001) %MON ad_dynstat_adsalt_max        =   3.4209653255788E-03
(PID.TID 0000.0001) %MON ad_dynstat_adsalt_min        =  -1.0702810299217E-03
(PID.TID 0000.0001) %MON ad_dynstat_adsalt_mean       =   7.7291920332311E-05
(PID.TID 0000.0001) %MON ad_dynstat_adsalt_sd         =   4.2457941748680E-04
(PID.TID 0000.0001) %MON ad_dynstat_adsalt_del2       =   8.8963079567476E-07
(PID.TID 0000.0001) // =======================================================
(PID.TID 0000.0001) // End MONITOR dynamic field statistics
(PID.TID 0000.0001) // =======================================================
 cg2d: Sum(rhs),rhsMax =  -1.70696790036118E-15  1.47292345840901E-03
 cg2d: Sum(rhs),rhsMax =   7.19369008805870E-13  5.84775812599496E-02
(PID.TID 0000.0001) // =======================================================
(PID.TID 0000.0001) // Begin MONITOR dynamic field statistics
(PID.TID 0000.0001) // =======================================================
(PID.TID 0000.0001) %MON ad_time_tsnumber             =                  8643
(PID.TID 0000.0001) %MON ad_time_secondsf             =   1.5557400000000E+07
(PID.TID 0000.0001) %MON ad_dynstat_adeta_max         =   1.0351954911816E-02
(PID.TID 0000.0001) %MON ad_dynstat_adeta_min         =  -2.9915451373924E-02
(PID.TID 0000.0001) %MON ad_dynstat_adeta_mean        =  -1.4460341864771E-04
(PID.TID 0000.0001) %MON ad_dynstat_adeta_sd          =   4.2067689714323E-03
(PID.TID 0000.0001) %MON ad_dynstat_adeta_del2        =   6.3983732802016E-05
(PID.TID 0000.0001) %MON ad_dynstat_aduvel_max        =   4.6692460235924E-04
(PID.TID 0000.0001) %MON ad_dynstat_aduvel_min        =  -5.9212365924545E-04
(PID.TID 0000.0001) %MON ad_dynstat_aduvel_mean       =  -3.3302342557033E-04
(PID.TID 0000.0001) %MON ad_dynstat_aduvel_sd         =   1.3220104224152E-04
(PID.TID 0000.0001) %MON ad_dynstat_aduvel_del2       =   3.9951980619819E-07
(PID.TID 0000.0001) %MON ad_dynstat_advvel_max        =   3.1452548828548E-04
(PID.TID 0000.0001) %MON ad_dynstat_advvel_min        =  -1.5243881827278E-03
(PID.TID 0000.0001) %MON ad_dynstat_advvel_mean       =  -4.9949420607620E-04
(PID.TID 0000.0001) %MON ad_dynstat_advvel_sd         =   2.7823006837307E-04
(PID.TID 0000.0001) %MON ad_dynstat_advvel_del2       =   6.3655104304047E-07
(PID.TID 0000.0001) %MON ad_dynstat_adwvel_max        =   4.1313587738394E-04
(PID.TID 0000.0001) %MON ad_dynstat_adwvel_min        =  -8.0258852533988E-04
(PID.TID 0000.0001) %MON ad_dynstat_adwvel_mean       =  -6.8047306502775E-06
(PID.TID 0000.0001) %MON ad_dynstat_adwvel_sd         =   4.9111751012786E-05
(PID.TID 0000.0001) %MON ad_dynstat_adwvel_del2       =   2.4059744340285E-07
(PID.TID 0000.0001) %MON ad_dynstat_adtheta_max       =  -6.4489402126299E-01
(PID.TID 0000.0001) %MON ad_dynstat_adtheta_min       =  -7.0204981141624E+00
(PID.TID 0000.0001) %MON ad_dynstat_adtheta_mean      =  -3.8273003041344E+00
(PID.TID 0000.0001) %MON ad_dynstat_adtheta_sd        =   6.9283299835565E-02
(PID.TID 0000.0001) %MON ad_dynstat_adtheta_del2      =   3.9131463930299E-03
(PID.TID 0000.0001) %MON ad_dynstat_adsalt_max        =   3.9406146848980E-03
(PID.TID 0000.0001) %MON ad_dynstat_adsalt_min        =  -1.2878932106769E-03
(PID.TID 0000.0001) %MON ad_dynstat_adsalt_mean       =   9.1003388917553E-05
(PID.TID 0000.0001) %MON ad_dynstat_adsalt_sd         =   4.8991518619677E-04
(PID.TID 0000.0001) %MON ad_dynstat_adsalt_del2       =   1.0209258650557E-06
(PID.TID 0000.0001) // =======================================================
(PID.TID 0000.0001) // End MONITOR dynamic field statistics
(PID.TID 0000.0001) // =======================================================
 cg2d: Sum(rhs),rhsMax =  -2.96984659087229E-15  1.18325764860277E-03
(PID.TID 0000.0001) SOLVE_FOR_PRESSURE: putPmEinXvector =    F
 cg2d: Sum(rhs),rhsMax =   7.02882196890187E-13  5.97860431289981E-02
 cg2d: Sum(rhs),rhsMax =   7.16468551154037E-13  5.85512053457478E-02
 cg2d: Sum(rhs),rhsMax =   7.16468551154037E-13  5.85512053457478E-02
(PID.TID 0000.0001) // =======================================================
(PID.TID 0000.0001) // Begin MONITOR dynamic field statistics
(PID.TID 0000.0001) // =======================================================
(PID.TID 0000.0001) %MON ad_time_tsnumber             =                  8642
(PID.TID 0000.0001) %MON ad_time_secondsf             =   1.5555600000000E+07
(PID.TID 0000.0001) %MON ad_dynstat_adeta_max         =   1.0349660053550E-02
(PID.TID 0000.0001) %MON ad_dynstat_adeta_min         =  -4.3360729114848E-02
(PID.TID 0000.0001) %MON ad_dynstat_adeta_mean        =  -1.5734121563496E-04
(PID.TID 0000.0001) %MON ad_dynstat_adeta_sd          =   4.1689254884644E-03
(PID.TID 0000.0001) %MON ad_dynstat_adeta_del2        =   6.4808436160440E-05
(PID.TID 0000.0001) %MON ad_dynstat_aduvel_max        =   7.4375307561117E-04
(PID.TID 0000.0001) %MON ad_dynstat_aduvel_min        =  -3.7705015786926E-04
(PID.TID 0000.0001) %MON ad_dynstat_aduvel_mean       =  -1.6373789483582E-04
(PID.TID 0000.0001) %MON ad_dynstat_aduvel_sd         =   1.1996343630777E-04
(PID.TID 0000.0001) %MON ad_dynstat_aduvel_del2       =   2.2080258758290E-07
(PID.TID 0000.0001) %MON ad_dynstat_advvel_max        =   8.8416794556840E-05
(PID.TID 0000.0001) %MON ad_dynstat_advvel_min        =  -1.5396931418090E-03
(PID.TID 0000.0001) %MON ad_dynstat_advvel_mean       =  -7.0008178027168E-04
(PID.TID 0000.0001) %MON ad_dynstat_advvel_sd         =   2.6850060667386E-04
(PID.TID 0000.0001) %MON ad_dynstat_advvel_del2       =   8.3471434716379E-07
(PID.TID 0000.0001) %MON ad_dynstat_adwvel_max        =   4.4258203590997E-04
(PID.TID 0000.0001) %MON ad_dynstat_adwvel_min        =  -9.1573248340998E-04
(PID.TID 0000.0001) %MON ad_dynstat_adwvel_mean       =  -7.4007446976213E-06
(PID.TID 0000.0001) %MON ad_dynstat_adwvel_sd         =   5.3981432129985E-05
(PID.TID 0000.0001) %MON ad_dynstat_adwvel_del2       =   2.5620121944531E-07
(PID.TID 0000.0001) %MON ad_dynstat_adtheta_max       =  -6.3958075289718E-01
(PID.TID 0000.0001) %MON ad_dynstat_adtheta_min       =  -7.0105838278845E+00
(PID.TID 0000.0001) %MON ad_dynstat_adtheta_mean      =  -3.8271439877132E+00
(PID.TID 0000.0001) %MON ad_dynstat_adtheta_sd        =   7.0116177808609E-02
(PID.TID 0000.0001) %MON ad_dynstat_adtheta_del2      =   3.9130417370647E-03
(PID.TID 0000.0001) %MON ad_dynstat_adsalt_max        =   4.4545969345212E-03
(PID.TID 0000.0001) %MON ad_dynstat_adsalt_min        =  -1.5685879924106E-03
(PID.TID 0000.0001) %MON ad_dynstat_adsalt_mean       =   1.0589654590736E-04
(PID.TID 0000.0001) %MON ad_dynstat_adsalt_sd         =   5.5525899881216E-04
(PID.TID 0000.0001) %MON ad_dynstat_adsalt_del2       =   1.1511408324714E-06
(PID.TID 0000.0001) // =======================================================
(PID.TID 0000.0001) // End MONITOR dynamic field statistics
(PID.TID 0000.0001) // =======================================================
 cg2d: Sum(rhs),rhsMax =  -3.19189119579733E-16  1.84670267188111E-03
(PID.TID 0000.0001) SOLVE_FOR_PRESSURE: putPmEinXvector =    F
 cg2d: Sum(rhs),rhsMax =   7.02882196890187E-13  5.97860431289981E-02
(PID.TID 0000.0001) // =======================================================
(PID.TID 0000.0001) // Begin MONITOR dynamic field statistics
(PID.TID 0000.0001) // =======================================================
(PID.TID 0000.0001) %MON ad_time_tsnumber             =                  8641
(PID.TID 0000.0001) %MON ad_time_secondsf             =   1.5553800000000E+07
(PID.TID 0000.0001) %MON ad_dynstat_adeta_max         =   1.0847965265577E-02
(PID.TID 0000.0001) %MON ad_dynstat_adeta_min         =  -6.1786320668213E-02
(PID.TID 0000.0001) %MON ad_dynstat_adeta_mean        =  -1.5661237012929E-04
(PID.TID 0000.0001) %MON ad_dynstat_adeta_sd          =   5.0529879760167E-03
(PID.TID 0000.0001) %MON ad_dynstat_adeta_del2        =   7.9127244810142E-05
(PID.TID 0000.0001) %MON ad_dynstat_aduvel_max        =   1.3928341095679E-03
(PID.TID 0000.0001) %MON ad_dynstat_aduvel_min        =  -2.8840094796522E-04
(PID.TID 0000.0001) %MON ad_dynstat_aduvel_mean       =   5.1687679910570E-05
(PID.TID 0000.0001) %MON ad_dynstat_aduvel_sd         =   1.2433402164506E-04
(PID.TID 0000.0001) %MON ad_dynstat_aduvel_del2       =   1.3645522655583E-07
(PID.TID 0000.0001) %MON ad_dynstat_advvel_max        =   3.9911305835535E-04
(PID.TID 0000.0001) %MON ad_dynstat_advvel_min        =  -1.4003203685509E-03
(PID.TID 0000.0001) %MON ad_dynstat_advvel_mean       =  -8.1884604201186E-04
(PID.TID 0000.0001) %MON ad_dynstat_advvel_sd         =   2.7033762064194E-04
(PID.TID 0000.0001) %MON ad_dynstat_advvel_del2       =   9.6352702910082E-07
(PID.TID 0000.0001) %MON ad_dynstat_adwvel_max        =   4.6059789657606E-04
(PID.TID 0000.0001) %MON ad_dynstat_adwvel_min        =  -1.0467958096737E-03
(PID.TID 0000.0001) %MON ad_dynstat_adwvel_mean       =  -7.7994481026890E-06
(PID.TID 0000.0001) %MON ad_dynstat_adwvel_sd         =   5.7369957566138E-05
(PID.TID 0000.0001) %MON ad_dynstat_adwvel_del2       =   2.6675006359120E-07
(PID.TID 0000.0001) %MON ad_dynstat_adtheta_max       =  -6.3766982627585E-01
(PID.TID 0000.0001) %MON ad_dynstat_adtheta_min       =  -7.0334096981917E+00
(PID.TID 0000.0001) %MON ad_dynstat_adtheta_mean      =  -3.8270526006087E+00
(PID.TID 0000.0001) %MON ad_dynstat_adtheta_sd        =   7.2400758780688E-02
(PID.TID 0000.0001) %MON ad_dynstat_adtheta_del2      =   3.9171037045567E-03
(PID.TID 0000.0001) %MON ad_dynstat_adsalt_max        =   4.9624132394626E-03
(PID.TID 0000.0001) %MON ad_dynstat_adsalt_min        =  -1.8639688031328E-03
(PID.TID 0000.0001) %MON ad_dynstat_adsalt_mean       =   1.2183190307235E-04
(PID.TID 0000.0001) %MON ad_dynstat_adsalt_sd         =   6.2075550011829E-04
(PID.TID 0000.0001) %MON ad_dynstat_adsalt_del2       =   1.2815784188278E-06
(PID.TID 0000.0001) // =======================================================
(PID.TID 0000.0001) // End MONITOR dynamic field statistics
(PID.TID 0000.0001) // =======================================================
 cg2d: Sum(rhs),rhsMax =  -7.07767178198537E-16  2.52295342165772E-03
(PID.TID 0000.0001)  nRecords = 243 ; filePrec =  64 ; fileIter =      8640
(PID.TID 0000.0001)     nDims =   2 , dims:
(PID.TID 0000.0001)    1:  50   1  50
(PID.TID 0000.0001)    2: 100   1 100
(PID.TID 0000.0001)     nFlds =  11 , nFl3D =   8 , fields:
(PID.TID 0000.0001)  >Uvel    < >Vvel    < >Theta   < >Salt    < >GuNm1   < >GvNm1   < >GtNm1   < >GsNm1   < >EtaN    < >dEtaHdt < >EtaH    <
(PID.TID 0000.0001) missingVal=  1.00000000000000E+00 ; nTimRec =   1 , timeList:
(PID.TID 0000.0001)   1.555200000000E+07
(PID.TID 0000.0001) READ_MFLDS_3D_RL: read field: "Uvel    ", #   1 in fldList, rec=   1
(PID.TID 0000.0001) READ_MFLDS_3D_RL: read field: "Vvel    ", #   2 in fldList, rec=   2
(PID.TID 0000.0001) READ_MFLDS_3D_RL: read field: "Theta   ", #   3 in fldList, rec=   3
(PID.TID 0000.0001) READ_MFLDS_3D_RL: read field: "Salt    ", #   4 in fldList, rec=   4
(PID.TID 0000.0001) READ_MFLDS_3D_RL: read field: "GuNm1   ", #   5 in fldList, rec=   5
(PID.TID 0000.0001) READ_MFLDS_3D_RL: read field: "GvNm1   ", #   6 in fldList, rec=   6
(PID.TID 0000.0001) READ_MFLDS_3D_RL: read field: "GtNm1   ", #   7 in fldList, rec=   7
(PID.TID 0000.0001) READ_MFLDS_3D_RL: read field: "GsNm1   ", #   8 in fldList, rec=   8
(PID.TID 0000.0001) READ_MFLDS_3D_RL: read field: "EtaN    ", #   9 in fldList, rec= 241
(PID.TID 0000.0001) READ_MFLDS_3D_RL: read field: "dEtaHdt ", #  10 in fldList, rec= 242
(PID.TID 0000.0001) READ_MFLDS_3D_RL: read field: "EtaH    ", #  11 in fldList, rec= 243
(PID.TID 0000.0001) READ_MFLDS_CHECK: - normal end ; reset MFLDS file-name: pickup.0000008640
(PID.TID 0000.0001) // =======================================================
(PID.TID 0000.0001) // Begin MONITOR dynamic field statistics
(PID.TID 0000.0001) // =======================================================
(PID.TID 0000.0001) %MON ad_time_tsnumber             =                  8640
(PID.TID 0000.0001) %MON ad_time_secondsf             =   1.5552000000000E+07
(PID.TID 0000.0001) %MON ad_dynstat_adeta_max         =   2.1038506886319E-02
(PID.TID 0000.0001) %MON ad_dynstat_adeta_min         =  -7.8778987822232E-02
(PID.TID 0000.0001) %MON ad_dynstat_adeta_mean        =  -1.4158033849403E-04
(PID.TID 0000.0001) %MON ad_dynstat_adeta_sd          =   6.5434149682580E-03
(PID.TID 0000.0001) %MON ad_dynstat_adeta_del2        =   1.0187592618954E-04
(PID.TID 0000.0001) %MON ad_dynstat_aduvel_max        =   1.9350076990220E-03
(PID.TID 0000.0001) %MON ad_dynstat_aduvel_min        =  -4.6546350870679E-04
(PID.TID 0000.0001) %MON ad_dynstat_aduvel_mean       =   2.8441179604590E-04
(PID.TID 0000.0001) %MON ad_dynstat_aduvel_sd         =   1.4914685155364E-04
(PID.TID 0000.0001) %MON ad_dynstat_aduvel_del2       =   3.4938071521113E-07
(PID.TID 0000.0001) %MON ad_dynstat_advvel_max        =   9.3475880759587E-04
(PID.TID 0000.0001) %MON ad_dynstat_advvel_min        =  -1.2005329483660E-03
(PID.TID 0000.0001) %MON ad_dynstat_advvel_mean       =  -8.3792976834540E-04
(PID.TID 0000.0001) %MON ad_dynstat_advvel_sd         =   2.8156925566368E-04
(PID.TID 0000.0001) %MON ad_dynstat_advvel_del2       =   9.9554617592555E-07
(PID.TID 0000.0001) %MON ad_dynstat_adwvel_max        =   5.1938896622249E-04
(PID.TID 0000.0001) %MON ad_dynstat_adwvel_min        =  -1.3583716416996E-03
(PID.TID 0000.0001) %MON ad_dynstat_adwvel_mean       =  -7.8172002568442E-06
(PID.TID 0000.0001) %MON ad_dynstat_adwvel_sd         =   5.9407080132608E-05
(PID.TID 0000.0001) %MON ad_dynstat_adwvel_del2       =   2.8222465302498E-07
(PID.TID 0000.0001) %MON ad_dynstat_adtheta_max       =  -6.3685861477590E-01
(PID.TID 0000.0001) %MON ad_dynstat_adtheta_min       =  -7.0526386976085E+00
(PID.TID 0000.0001) %MON ad_dynstat_adtheta_mean      =  -3.8271228511298E+00
(PID.TID 0000.0001) %MON ad_dynstat_adtheta_sd        =   8.0263164695033E-02
(PID.TID 0000.0001) %MON ad_dynstat_adtheta_del2      =   3.9224439299622E-03
(PID.TID 0000.0001) %MON ad_dynstat_adsalt_max        =   5.5062785209503E-03
(PID.TID 0000.0001) %MON ad_dynstat_adsalt_min        =  -2.1692280203470E-03
(PID.TID 0000.0001) %MON ad_dynstat_adsalt_mean       =   1.3859626350042E-04
(PID.TID 0000.0001) %MON ad_dynstat_adsalt_sd         =   6.8681457572635E-04
(PID.TID 0000.0001) %MON ad_dynstat_adsalt_del2       =   1.4099218328609E-06
(PID.TID 0000.0001) // =======================================================
(PID.TID 0000.0001) // End MONITOR dynamic field statistics
(PID.TID 0000.0001) // =======================================================
(PID.TID 0000.0001) // =======================================================
(PID.TID 0000.0001) // Gradient-check starts (grdchk_main)
(PID.TID 0000.0001) // =======================================================
(PID.TID 0000.0001) grdchk reference fc: fcref       =  3.69720388437481E+05
grad-res -------------------------------
 grad-res  proc    #    i    j    k   bi   bj iobc       fc ref            fc + eps           fc - eps
 grad-res  proc    #    i    j    k   bi   bj iobc      adj grad            fd grad          1 - fd/adj
 grad-res exact position met: 
 grad-res     0 1579   20   24   20    1    1
(PID.TID 0000.0001) ====== Starts gradient-check number   1 (=ichknum) =======
 ph-test icomp, ncvarcomp, ichknum         1579      100450           1
 ph-grd _loc: bi, bj, icomptest, ichknum            1           1           0           1
 ph-grd _loc: bi, bj, icomptest, ichknum            1           1           0           1
 ph-grd _loc: bi, bj, icomptest, ichknum            1           1           0           1
 ph-grd _loc: bi, bj, icomptest, ichknum            1           1           0           1
 ph-grd _loc: bi, bj, icomptest, ichknum            1           1           0           1
 ph-grd _loc: bi, bj, icomptest, ichknum            1           1           0           1
 ph-grd _loc: bi, bj, icomptest, ichknum            1           1           0           1
 ph-grd _loc: bi, bj, icomptest, ichknum            1           1           0           1
 ph-grd _loc: bi, bj, icomptest, ichknum            1           1           0           1
 ph-grd _loc: bi, bj, icomptest, ichknum            1           1           0           1
 ph-grd _loc: bi, bj, icomptest, ichknum            1           1           0           1
 ph-grd _loc: bi, bj, icomptest, ichknum            1           1           0           1
 ph-grd _loc: bi, bj, icomptest, ichknum            1           1           0           1
 ph-grd _loc: bi, bj, icomptest, ichknum            1           1           0           1
 ph-grd _loc: bi, bj, icomptest, ichknum            1           1          48           1
 ph-grd _loc: bi, bj, icomptest, ichknum            1           1         168           1
 ph-grd _loc: bi, bj, icomptest, ichknum            1           1         336           1
 ph-grd _loc: bi, bj, icomptest, ichknum            1           1         576           1
 ph-grd _loc: bi, bj, icomptest, ichknum            1           1         864           1
 ph-grd _loc: bi, bj, icomptest, ichknum            1           1        1200           1
 ph-grd -->hit<--           20          24          20           1
(PID.TID 0000.0001) grdchk pos: i,j,k=   20   24   20 ; bi,bj=   1   1 ; iobc=  1 ; rec=   1
(PID.TID 0000.0001)  nRecords = 243 ; filePrec =  64 ; fileIter =      8640
(PID.TID 0000.0001)     nDims =   2 , dims:
(PID.TID 0000.0001)    1:  50   1  50
(PID.TID 0000.0001)    2: 100   1 100
(PID.TID 0000.0001)     nFlds =  11 , nFl3D =   8 , fields:
(PID.TID 0000.0001)  >Uvel    < >Vvel    < >Theta   < >Salt    < >GuNm1   < >GvNm1   < >GtNm1   < >GsNm1   < >EtaN    < >dEtaHdt < >EtaH    <
(PID.TID 0000.0001) missingVal=  1.00000000000000E+00 ; nTimRec =   1 , timeList:
(PID.TID 0000.0001)   1.555200000000E+07
(PID.TID 0000.0001) READ_MFLDS_3D_RL: read field: "Uvel    ", #   1 in fldList, rec=   1
(PID.TID 0000.0001) READ_MFLDS_3D_RL: read field: "Vvel    ", #   2 in fldList, rec=   2
(PID.TID 0000.0001) READ_MFLDS_3D_RL: read field: "Theta   ", #   3 in fldList, rec=   3
(PID.TID 0000.0001) READ_MFLDS_3D_RL: read field: "Salt    ", #   4 in fldList, rec=   4
(PID.TID 0000.0001) READ_MFLDS_3D_RL: read field: "GuNm1   ", #   5 in fldList, rec=   5
(PID.TID 0000.0001) READ_MFLDS_3D_RL: read field: "GvNm1   ", #   6 in fldList, rec=   6
(PID.TID 0000.0001) READ_MFLDS_3D_RL: read field: "GtNm1   ", #   7 in fldList, rec=   7
(PID.TID 0000.0001) READ_MFLDS_3D_RL: read field: "GsNm1   ", #   8 in fldList, rec=   8
(PID.TID 0000.0001) READ_MFLDS_3D_RL: read field: "EtaN    ", #   9 in fldList, rec= 241
(PID.TID 0000.0001) READ_MFLDS_3D_RL: read field: "dEtaHdt ", #  10 in fldList, rec= 242
(PID.TID 0000.0001) READ_MFLDS_3D_RL: read field: "EtaH    ", #  11 in fldList, rec= 243
(PID.TID 0000.0001) READ_MFLDS_CHECK: - normal end ; reset MFLDS file-name: pickup.0000008640
(PID.TID 0000.0001) // =======================================================
(PID.TID 0000.0001) // Model current state
(PID.TID 0000.0001) // =======================================================
(PID.TID 0000.0001) 
(PID.TID 0000.0001) SOLVE_FOR_PRESSURE: putPmEinXvector =    F
 cg2d: Sum(rhs),rhsMax =   7.02715663436493E-13  5.97860431289981E-02
 cg2d: Sum(rhs),rhsMax =   7.13831771470552E-13  5.85512047439734E-02
 cg2d: Sum(rhs),rhsMax =   7.17162440544428E-13  5.84775808933155E-02
 cg2d: Sum(rhs),rhsMax =   7.19091453049714E-13  5.84638698925756E-02
 cg2d: Sum(rhs),rhsMax =   7.19313497654639E-13  5.84152099972139E-02
 cg2d: Sum(rhs),rhsMax =   7.17620407542086E-13  5.83794412203797E-02
 cg2d: Sum(rhs),rhsMax =   7.15115466842775E-13  5.84375406845658E-02
 cg2d: Sum(rhs),rhsMax =   7.16458142813181E-13  5.85071228286187E-02
 cg2d: Sum(rhs),rhsMax =   7.18741038907567E-13  5.85886563320759E-02
 cg2d: Sum(rhs),rhsMax =   7.15188325228766E-13  5.86804180328739E-02
(PID.TID 0000.0001) Did not write pickup because writePickupAtEnd = FALSE
 --> objf_shelfice(bi,bj) =  0.000000000000000D+00
 --> objf_shifwflx(bi,bj) =  0.000000000000000D+00
 --> objf_shelfice(bi,bj) =  0.000000000000000D+00
 --> objf_shifwflx(bi,bj) =  0.000000000000000D+00
 --> objf_shelfice(bi,bj) =  0.000000000000000D+00
 --> objf_shifwflx(bi,bj) =  0.000000000000000D+00
 --> objf_shelfice(bi,bj) =  0.000000000000000D+00
 --> objf_shifwflx(bi,bj) =  0.000000000000000D+00
 --> objf_shelfice(bi,bj) =  0.000000000000000D+00
 --> objf_shifwflx(bi,bj) =  0.000000000000000D+00
 --> objf_shelfice(bi,bj) =  0.000000000000000D+00
 --> objf_shifwflx(bi,bj) =  0.000000000000000D+00
 --> objf_shelfice(bi,bj) =  0.000000000000000D+00
 --> objf_shifwflx(bi,bj) =  0.000000000000000D+00
 --> objf_shelfice(bi,bj) =  0.000000000000000D+00
 --> objf_shifwflx(bi,bj) =  0.000000000000000D+00
  early fc =  0.000000000000000D+00
 --> objf_test(bi,bj)   =  0.272346308952072D+05
 --> objf_test(bi,bj)   =  0.280682933683955D+05
 --> objf_test(bi,bj)   =  0.489343509972643D+05
 --> objf_test(bi,bj)   =  0.505651389020738D+05
 --> objf_test(bi,bj)   =  0.526343248743809D+05
 --> objf_test(bi,bj)   =  0.548257103139530D+05
 --> objf_test(bi,bj)   =  0.526324412260975D+05
 --> objf_test(bi,bj)   =  0.548254596779651D+05
  local fc =  0.369720350255337D+06
 global fc =  0.369720350255337D+06
(PID.TID 0000.0001) grdchk perturb(+)fc: fcpertplus  =  3.69720350255337E+05
(PID.TID 0000.0001)  nRecords = 243 ; filePrec =  64 ; fileIter =      8640
(PID.TID 0000.0001)     nDims =   2 , dims:
(PID.TID 0000.0001)    1:  50   1  50
(PID.TID 0000.0001)    2: 100   1 100
(PID.TID 0000.0001)     nFlds =  11 , nFl3D =   8 , fields:
(PID.TID 0000.0001)  >Uvel    < >Vvel    < >Theta   < >Salt    < >GuNm1   < >GvNm1   < >GtNm1   < >GsNm1   < >EtaN    < >dEtaHdt < >EtaH    <
(PID.TID 0000.0001) missingVal=  1.00000000000000E+00 ; nTimRec =   1 , timeList:
(PID.TID 0000.0001)   1.555200000000E+07
(PID.TID 0000.0001) READ_MFLDS_3D_RL: read field: "Uvel    ", #   1 in fldList, rec=   1
(PID.TID 0000.0001) READ_MFLDS_3D_RL: read field: "Vvel    ", #   2 in fldList, rec=   2
(PID.TID 0000.0001) READ_MFLDS_3D_RL: read field: "Theta   ", #   3 in fldList, rec=   3
(PID.TID 0000.0001) READ_MFLDS_3D_RL: read field: "Salt    ", #   4 in fldList, rec=   4
(PID.TID 0000.0001) READ_MFLDS_3D_RL: read field: "GuNm1   ", #   5 in fldList, rec=   5
(PID.TID 0000.0001) READ_MFLDS_3D_RL: read field: "GvNm1   ", #   6 in fldList, rec=   6
(PID.TID 0000.0001) READ_MFLDS_3D_RL: read field: "GtNm1   ", #   7 in fldList, rec=   7
(PID.TID 0000.0001) READ_MFLDS_3D_RL: read field: "GsNm1   ", #   8 in fldList, rec=   8
(PID.TID 0000.0001) READ_MFLDS_3D_RL: read field: "EtaN    ", #   9 in fldList, rec= 241
(PID.TID 0000.0001) READ_MFLDS_3D_RL: read field: "dEtaHdt ", #  10 in fldList, rec= 242
(PID.TID 0000.0001) READ_MFLDS_3D_RL: read field: "EtaH    ", #  11 in fldList, rec= 243
(PID.TID 0000.0001) READ_MFLDS_CHECK: - normal end ; reset MFLDS file-name: pickup.0000008640
(PID.TID 0000.0001) // =======================================================
(PID.TID 0000.0001) // Model current state
(PID.TID 0000.0001) // =======================================================
(PID.TID 0000.0001) 
(PID.TID 0000.0001) SOLVE_FOR_PRESSURE: putPmEinXvector =    F
 cg2d: Sum(rhs),rhsMax =   7.02715663436493E-13  5.97860431289981E-02
 cg2d: Sum(rhs),rhsMax =   7.17287340634698E-13  5.85512059459192E-02
 cg2d: Sum(rhs),rhsMax =   7.18175519054398E-13  5.84775816256077E-02
 cg2d: Sum(rhs),rhsMax =   7.19230230927792E-13  5.84638695535034E-02
 cg2d: Sum(rhs),rhsMax =   7.21589454855120E-13  5.84152091761954E-02
 cg2d: Sum(rhs),rhsMax =   7.15899561853917E-13  5.83794406930533E-02
 cg2d: Sum(rhs),rhsMax =   7.18071435645840E-13  5.84375401789361E-02
 cg2d: Sum(rhs),rhsMax =   7.18411441447131E-13  5.85071222542268E-02
 cg2d: Sum(rhs),rhsMax =   7.17065296029773E-13  5.85886556758931E-02
 cg2d: Sum(rhs),rhsMax =   7.15105058501919E-13  5.86804173556169E-02
(PID.TID 0000.0001) Did not write pickup because writePickupAtEnd = FALSE
 --> objf_shelfice(bi,bj) =  0.000000000000000D+00
 --> objf_shifwflx(bi,bj) =  0.000000000000000D+00
 --> objf_shelfice(bi,bj) =  0.000000000000000D+00
 --> objf_shifwflx(bi,bj) =  0.000000000000000D+00
 --> objf_shelfice(bi,bj) =  0.000000000000000D+00
 --> objf_shifwflx(bi,bj) =  0.000000000000000D+00
 --> objf_shelfice(bi,bj) =  0.000000000000000D+00
 --> objf_shifwflx(bi,bj) =  0.000000000000000D+00
 --> objf_shelfice(bi,bj) =  0.000000000000000D+00
 --> objf_shifwflx(bi,bj) =  0.000000000000000D+00
 --> objf_shelfice(bi,bj) =  0.000000000000000D+00
 --> objf_shifwflx(bi,bj) =  0.000000000000000D+00
 --> objf_shelfice(bi,bj) =  0.000000000000000D+00
 --> objf_shifwflx(bi,bj) =  0.000000000000000D+00
 --> objf_shelfice(bi,bj) =  0.000000000000000D+00
 --> objf_shifwflx(bi,bj) =  0.000000000000000D+00
  early fc =  0.000000000000000D+00
 --> objf_test(bi,bj)   =  0.272347074210918D+05
 --> objf_test(bi,bj)   =  0.280682933685012D+05
 --> objf_test(bi,bj)   =  0.489343509976823D+05
 --> objf_test(bi,bj)   =  0.505651389020997D+05
 --> objf_test(bi,bj)   =  0.526343248743868D+05
 --> objf_test(bi,bj)   =  0.548257103139510D+05
 --> objf_test(bi,bj)   =  0.526324412261057D+05
 --> objf_test(bi,bj)   =  0.548254596779686D+05
  local fc =  0.369720426781787D+06
 global fc =  0.369720426781787D+06
(PID.TID 0000.0001) grdchk perturb(-)fc: fcpertminus =  3.69720426781787E+05
grad-res -------------------------------
 grad-res     0    1   20   24   20    1    1    1   3.69720388437E+05  3.69720350255E+05  3.69720426782E+05
 grad-res     0    1    1 1579    0    1    1    1  -3.82632249393E+00 -3.82632250257E+00 -2.25759144712E-09
(PID.TID 0000.0001)  ADM  ref_cost_function      =  3.69720388437481E+05
(PID.TID 0000.0001)  ADM  adjoint_gradient       = -3.82632249393475E+00
(PID.TID 0000.0001)  ADM  finite-diff_grad       = -3.82632250257302E+00
(PID.TID 0000.0001) ====== End of gradient-check number   1 (ierr=  0) =======
(PID.TID 0000.0001) ====== Starts gradient-check number   2 (=ichknum) =======
 ph-test icomp, ncvarcomp, ichknum         1580      100450           2
 ph-grd _loc: bi, bj, icomptest, ichknum            1           1        1579           2
 ph-grd -->hit<--           21          24          20           1
(PID.TID 0000.0001) grdchk pos: i,j,k=   21   24   20 ; bi,bj=   1   1 ; iobc=  1 ; rec=   1
(PID.TID 0000.0001)  nRecords = 243 ; filePrec =  64 ; fileIter =      8640
(PID.TID 0000.0001)     nDims =   2 , dims:
(PID.TID 0000.0001)    1:  50   1  50
(PID.TID 0000.0001)    2: 100   1 100
(PID.TID 0000.0001)     nFlds =  11 , nFl3D =   8 , fields:
(PID.TID 0000.0001)  >Uvel    < >Vvel    < >Theta   < >Salt    < >GuNm1   < >GvNm1   < >GtNm1   < >GsNm1   < >EtaN    < >dEtaHdt < >EtaH    <
(PID.TID 0000.0001) missingVal=  1.00000000000000E+00 ; nTimRec =   1 , timeList:
(PID.TID 0000.0001)   1.555200000000E+07
(PID.TID 0000.0001) READ_MFLDS_3D_RL: read field: "Uvel    ", #   1 in fldList, rec=   1
(PID.TID 0000.0001) READ_MFLDS_3D_RL: read field: "Vvel    ", #   2 in fldList, rec=   2
(PID.TID 0000.0001) READ_MFLDS_3D_RL: read field: "Theta   ", #   3 in fldList, rec=   3
(PID.TID 0000.0001) READ_MFLDS_3D_RL: read field: "Salt    ", #   4 in fldList, rec=   4
(PID.TID 0000.0001) READ_MFLDS_3D_RL: read field: "GuNm1   ", #   5 in fldList, rec=   5
(PID.TID 0000.0001) READ_MFLDS_3D_RL: read field: "GvNm1   ", #   6 in fldList, rec=   6
(PID.TID 0000.0001) READ_MFLDS_3D_RL: read field: "GtNm1   ", #   7 in fldList, rec=   7
(PID.TID 0000.0001) READ_MFLDS_3D_RL: read field: "GsNm1   ", #   8 in fldList, rec=   8
(PID.TID 0000.0001) READ_MFLDS_3D_RL: read field: "EtaN    ", #   9 in fldList, rec= 241
(PID.TID 0000.0001) READ_MFLDS_3D_RL: read field: "dEtaHdt ", #  10 in fldList, rec= 242
(PID.TID 0000.0001) READ_MFLDS_3D_RL: read field: "EtaH    ", #  11 in fldList, rec= 243
(PID.TID 0000.0001) READ_MFLDS_CHECK: - normal end ; reset MFLDS file-name: pickup.0000008640
(PID.TID 0000.0001) // =======================================================
(PID.TID 0000.0001) // Model current state
(PID.TID 0000.0001) // =======================================================
(PID.TID 0000.0001) 
(PID.TID 0000.0001) SOLVE_FOR_PRESSURE: putPmEinXvector =    F
 cg2d: Sum(rhs),rhsMax =   7.02882196890187E-13  5.97860431289981E-02
 cg2d: Sum(rhs),rhsMax =   7.15427717068451E-13  5.85512047780825E-02
 cg2d: Sum(rhs),rhsMax =   7.19702075713258E-13  5.84775808740466E-02
 cg2d: Sum(rhs),rhsMax =   7.17523263027431E-13  5.84638698203912E-02
 cg2d: Sum(rhs),rhsMax =   7.16260384336920E-13  5.84152099008832E-02
 cg2d: Sum(rhs),rhsMax =   7.18813897293558E-13  5.83794410951662E-02
 cg2d: Sum(rhs),rhsMax =   7.20264126119474E-13  5.84375405290880E-02
 cg2d: Sum(rhs),rhsMax =   7.15035669562880E-13  5.85071226399536E-02
 cg2d: Sum(rhs),rhsMax =   7.14997505646409E-13  5.85886561104113E-02
 cg2d: Sum(rhs),rhsMax =   7.15840581255733E-13  5.86804177799613E-02
(PID.TID 0000.0001) Did not write pickup because writePickupAtEnd = FALSE
 --> objf_shelfice(bi,bj) =  0.000000000000000D+00
 --> objf_shifwflx(bi,bj) =  0.000000000000000D+00
 --> objf_shelfice(bi,bj) =  0.000000000000000D+00
 --> objf_shifwflx(bi,bj) =  0.000000000000000D+00
 --> objf_shelfice(bi,bj) =  0.000000000000000D+00
 --> objf_shifwflx(bi,bj) =  0.000000000000000D+00
 --> objf_shelfice(bi,bj) =  0.000000000000000D+00
 --> objf_shifwflx(bi,bj) =  0.000000000000000D+00
 --> objf_shelfice(bi,bj) =  0.000000000000000D+00
 --> objf_shifwflx(bi,bj) =  0.000000000000000D+00
 --> objf_shelfice(bi,bj) =  0.000000000000000D+00
 --> objf_shifwflx(bi,bj) =  0.000000000000000D+00
 --> objf_shelfice(bi,bj) =  0.000000000000000D+00
 --> objf_shifwflx(bi,bj) =  0.000000000000000D+00
 --> objf_shelfice(bi,bj) =  0.000000000000000D+00
 --> objf_shifwflx(bi,bj) =  0.000000000000000D+00
  early fc =  0.000000000000000D+00
 --> objf_test(bi,bj)   =  0.272346309006568D+05
 --> objf_test(bi,bj)   =  0.280682933683703D+05
 --> objf_test(bi,bj)   =  0.489343509972695D+05
 --> objf_test(bi,bj)   =  0.505651389020747D+05
 --> objf_test(bi,bj)   =  0.526343248743812D+05
 --> objf_test(bi,bj)   =  0.548257103139531D+05
 --> objf_test(bi,bj)   =  0.526324412260978D+05
 --> objf_test(bi,bj)   =  0.548254596779653D+05
  local fc =  0.369720350260769D+06
 global fc =  0.369720350260769D+06
(PID.TID 0000.0001) grdchk perturb(+)fc: fcpertplus  =  3.69720350260769E+05
(PID.TID 0000.0001)  nRecords = 243 ; filePrec =  64 ; fileIter =      8640
(PID.TID 0000.0001)     nDims =   2 , dims:
(PID.TID 0000.0001)    1:  50   1  50
(PID.TID 0000.0001)    2: 100   1 100
(PID.TID 0000.0001)     nFlds =  11 , nFl3D =   8 , fields:
(PID.TID 0000.0001)  >Uvel    < >Vvel    < >Theta   < >Salt    < >GuNm1   < >GvNm1   < >GtNm1   < >GsNm1   < >EtaN    < >dEtaHdt < >EtaH    <
(PID.TID 0000.0001) missingVal=  1.00000000000000E+00 ; nTimRec =   1 , timeList:
(PID.TID 0000.0001)   1.555200000000E+07
(PID.TID 0000.0001) READ_MFLDS_3D_RL: read field: "Uvel    ", #   1 in fldList, rec=   1
(PID.TID 0000.0001) READ_MFLDS_3D_RL: read field: "Vvel    ", #   2 in fldList, rec=   2
(PID.TID 0000.0001) READ_MFLDS_3D_RL: read field: "Theta   ", #   3 in fldList, rec=   3
(PID.TID 0000.0001) READ_MFLDS_3D_RL: read field: "Salt    ", #   4 in fldList, rec=   4
(PID.TID 0000.0001) READ_MFLDS_3D_RL: read field: "GuNm1   ", #   5 in fldList, rec=   5
(PID.TID 0000.0001) READ_MFLDS_3D_RL: read field: "GvNm1   ", #   6 in fldList, rec=   6
(PID.TID 0000.0001) READ_MFLDS_3D_RL: read field: "GtNm1   ", #   7 in fldList, rec=   7
(PID.TID 0000.0001) READ_MFLDS_3D_RL: read field: "GsNm1   ", #   8 in fldList, rec=   8
(PID.TID 0000.0001) READ_MFLDS_3D_RL: read field: "EtaN    ", #   9 in fldList, rec= 241
(PID.TID 0000.0001) READ_MFLDS_3D_RL: read field: "dEtaHdt ", #  10 in fldList, rec= 242
(PID.TID 0000.0001) READ_MFLDS_3D_RL: read field: "EtaH    ", #  11 in fldList, rec= 243
(PID.TID 0000.0001) READ_MFLDS_CHECK: - normal end ; reset MFLDS file-name: pickup.0000008640
(PID.TID 0000.0001) // =======================================================
(PID.TID 0000.0001) // Model current state
(PID.TID 0000.0001) // =======================================================
(PID.TID 0000.0001) 
(PID.TID 0000.0001) SOLVE_FOR_PRESSURE: putPmEinXvector =    F
 cg2d: Sum(rhs),rhsMax =   7.02882196890187E-13  5.97860431289981E-02
 cg2d: Sum(rhs),rhsMax =   7.17467751876200E-13  5.85512059118822E-02
 cg2d: Sum(rhs),rhsMax =   7.18022863388512E-13  5.84775816447269E-02
 cg2d: Sum(rhs),rhsMax =   7.16884884788271E-13  5.84638696254850E-02
 cg2d: Sum(rhs),rhsMax =   7.17370607361545E-13  5.84152092723376E-02
 cg2d: Sum(rhs),rhsMax =   7.19146964200945E-13  5.83794408178623E-02
 cg2d: Sum(rhs),rhsMax =   7.17814696571395E-13  5.84375403338881E-02
 cg2d: Sum(rhs),rhsMax =   7.16770393038857E-13  5.85071224421037E-02
 cg2d: Sum(rhs),rhsMax =   7.16475490047941E-13  5.85886558965169E-02
 cg2d: Sum(rhs),rhsMax =   7.13516919159662E-13  5.86804176078701E-02
(PID.TID 0000.0001) Did not write pickup because writePickupAtEnd = FALSE
 --> objf_shelfice(bi,bj) =  0.000000000000000D+00
 --> objf_shifwflx(bi,bj) =  0.000000000000000D+00
 --> objf_shelfice(bi,bj) =  0.000000000000000D+00
 --> objf_shifwflx(bi,bj) =  0.000000000000000D+00
 --> objf_shelfice(bi,bj) =  0.000000000000000D+00
 --> objf_shifwflx(bi,bj) =  0.000000000000000D+00
 --> objf_shelfice(bi,bj) =  0.000000000000000D+00
 --> objf_shifwflx(bi,bj) =  0.000000000000000D+00
 --> objf_shelfice(bi,bj) =  0.000000000000000D+00
 --> objf_shifwflx(bi,bj) =  0.000000000000000D+00
 --> objf_shelfice(bi,bj) =  0.000000000000000D+00
 --> objf_shifwflx(bi,bj) =  0.000000000000000D+00
 --> objf_shelfice(bi,bj) =  0.000000000000000D+00
 --> objf_shifwflx(bi,bj) =  0.000000000000000D+00
 --> objf_shelfice(bi,bj) =  0.000000000000000D+00
 --> objf_shifwflx(bi,bj) =  0.000000000000000D+00
  early fc =  0.000000000000000D+00
 --> objf_test(bi,bj)   =  0.272347074156423D+05
 --> objf_test(bi,bj)   =  0.280682933685263D+05
 --> objf_test(bi,bj)   =  0.489343509976772D+05
 --> objf_test(bi,bj)   =  0.505651389020988D+05
 --> objf_test(bi,bj)   =  0.526343248743865D+05
 --> objf_test(bi,bj)   =  0.548257103139509D+05
 --> objf_test(bi,bj)   =  0.526324412261053D+05
 --> objf_test(bi,bj)   =  0.548254596779683D+05
  local fc =  0.369720426776356D+06
 global fc =  0.369720426776356D+06
(PID.TID 0000.0001) grdchk perturb(-)fc: fcpertminus =  3.69720426776356E+05
grad-res -------------------------------
 grad-res     0    2   21   24   20    1    1    1   3.69720388437E+05  3.69720350261E+05  3.69720426776E+05
 grad-res     0    2    2 1580    0    1    1    1  -3.82577934489E+00 -3.82577934361E+00  3.34813732294E-10
(PID.TID 0000.0001)  ADM  ref_cost_function      =  3.69720388437481E+05
(PID.TID 0000.0001)  ADM  adjoint_gradient       = -3.82577934488690E+00
(PID.TID 0000.0001)  ADM  finite-diff_grad       = -3.82577934360597E+00
(PID.TID 0000.0001) ====== End of gradient-check number   2 (ierr=  0) =======
(PID.TID 0000.0001) ====== Starts gradient-check number   3 (=ichknum) =======
 ph-test icomp, ncvarcomp, ichknum         1581      100450           3
 ph-grd _loc: bi, bj, icomptest, ichknum            1           1        1580           3
 ph-grd -->hit<--           22          24          20           1
(PID.TID 0000.0001) grdchk pos: i,j,k=   22   24   20 ; bi,bj=   1   1 ; iobc=  1 ; rec=   1
(PID.TID 0000.0001)  nRecords = 243 ; filePrec =  64 ; fileIter =      8640
(PID.TID 0000.0001)     nDims =   2 , dims:
(PID.TID 0000.0001)    1:  50   1  50
(PID.TID 0000.0001)    2: 100   1 100
(PID.TID 0000.0001)     nFlds =  11 , nFl3D =   8 , fields:
(PID.TID 0000.0001)  >Uvel    < >Vvel    < >Theta   < >Salt    < >GuNm1   < >GvNm1   < >GtNm1   < >GsNm1   < >EtaN    < >dEtaHdt < >EtaH    <
(PID.TID 0000.0001) missingVal=  1.00000000000000E+00 ; nTimRec =   1 , timeList:
(PID.TID 0000.0001)   1.555200000000E+07
(PID.TID 0000.0001) READ_MFLDS_3D_RL: read field: "Uvel    ", #   1 in fldList, rec=   1
(PID.TID 0000.0001) READ_MFLDS_3D_RL: read field: "Vvel    ", #   2 in fldList, rec=   2
(PID.TID 0000.0001) READ_MFLDS_3D_RL: read field: "Theta   ", #   3 in fldList, rec=   3
(PID.TID 0000.0001) READ_MFLDS_3D_RL: read field: "Salt    ", #   4 in fldList, rec=   4
(PID.TID 0000.0001) READ_MFLDS_3D_RL: read field: "GuNm1   ", #   5 in fldList, rec=   5
(PID.TID 0000.0001) READ_MFLDS_3D_RL: read field: "GvNm1   ", #   6 in fldList, rec=   6
(PID.TID 0000.0001) READ_MFLDS_3D_RL: read field: "GtNm1   ", #   7 in fldList, rec=   7
(PID.TID 0000.0001) READ_MFLDS_3D_RL: read field: "GsNm1   ", #   8 in fldList, rec=   8
(PID.TID 0000.0001) READ_MFLDS_3D_RL: read field: "EtaN    ", #   9 in fldList, rec= 241
(PID.TID 0000.0001) READ_MFLDS_3D_RL: read field: "dEtaHdt ", #  10 in fldList, rec= 242
(PID.TID 0000.0001) READ_MFLDS_3D_RL: read field: "EtaH    ", #  11 in fldList, rec= 243
(PID.TID 0000.0001) READ_MFLDS_CHECK: - normal end ; reset MFLDS file-name: pickup.0000008640
(PID.TID 0000.0001) // =======================================================
(PID.TID 0000.0001) // Model current state
(PID.TID 0000.0001) // =======================================================
(PID.TID 0000.0001) 
(PID.TID 0000.0001) SOLVE_FOR_PRESSURE: putPmEinXvector =    F
 cg2d: Sum(rhs),rhsMax =   7.02771174587724E-13  5.97860431289981E-02
 cg2d: Sum(rhs),rhsMax =   7.17065296029773E-13  5.85512048110884E-02
 cg2d: Sum(rhs),rhsMax =   7.16759984698001E-13  5.84775808591672E-02
 cg2d: Sum(rhs),rhsMax =   7.17273462846890E-13  5.84638697554683E-02
 cg2d: Sum(rhs),rhsMax =   7.17703674268932E-13  5.84152098136660E-02
 cg2d: Sum(rhs),rhsMax =   7.18300419144668E-13  5.83794409860090E-02
 cg2d: Sum(rhs),rhsMax =   7.17134684968812E-13  5.84375403942105E-02
 cg2d: Sum(rhs),rhsMax =   7.16690595758962E-13  5.85071224763477E-02
 cg2d: Sum(rhs),rhsMax =   7.18609199923392E-13  5.85886559187897E-02
 cg2d: Sum(rhs),rhsMax =   7.16131147437959E-13  5.86804175613560E-02
(PID.TID 0000.0001) Did not write pickup because writePickupAtEnd = FALSE
 --> objf_shelfice(bi,bj) =  0.000000000000000D+00
 --> objf_shifwflx(bi,bj) =  0.000000000000000D+00
 --> objf_shelfice(bi,bj) =  0.000000000000000D+00
 --> objf_shifwflx(bi,bj) =  0.000000000000000D+00
 --> objf_shelfice(bi,bj) =  0.000000000000000D+00
 --> objf_shifwflx(bi,bj) =  0.000000000000000D+00
 --> objf_shelfice(bi,bj) =  0.000000000000000D+00
 --> objf_shifwflx(bi,bj) =  0.000000000000000D+00
 --> objf_shelfice(bi,bj) =  0.000000000000000D+00
 --> objf_shifwflx(bi,bj) =  0.000000000000000D+00
 --> objf_shelfice(bi,bj) =  0.000000000000000D+00
 --> objf_shifwflx(bi,bj) =  0.000000000000000D+00
 --> objf_shelfice(bi,bj) =  0.000000000000000D+00
 --> objf_shifwflx(bi,bj) =  0.000000000000000D+00
 --> objf_shelfice(bi,bj) =  0.000000000000000D+00
 --> objf_shifwflx(bi,bj) =  0.000000000000000D+00
  early fc =  0.000000000000000D+00
 --> objf_test(bi,bj)   =  0.272346309045004D+05
 --> objf_test(bi,bj)   =  0.280682933681396D+05
 --> objf_test(bi,bj)   =  0.489343509972608D+05
 --> objf_test(bi,bj)   =  0.505651389020687D+05
 --> objf_test(bi,bj)   =  0.526343248743815D+05
 --> objf_test(bi,bj)   =  0.548257103139532D+05
 --> objf_test(bi,bj)   =  0.526324412260982D+05
 --> objf_test(bi,bj)   =  0.548254596779656D+05
  local fc =  0.369720350264368D+06
 global fc =  0.369720350264368D+06
(PID.TID 0000.0001) grdchk perturb(+)fc: fcpertplus  =  3.69720350264368E+05
(PID.TID 0000.0001)  nRecords = 243 ; filePrec =  64 ; fileIter =      8640
(PID.TID 0000.0001)     nDims =   2 , dims:
(PID.TID 0000.0001)    1:  50   1  50
(PID.TID 0000.0001)    2: 100   1 100
(PID.TID 0000.0001)     nFlds =  11 , nFl3D =   8 , fields:
(PID.TID 0000.0001)  >Uvel    < >Vvel    < >Theta   < >Salt    < >GuNm1   < >GvNm1   < >GtNm1   < >GsNm1   < >EtaN    < >dEtaHdt < >EtaH    <
(PID.TID 0000.0001) missingVal=  1.00000000000000E+00 ; nTimRec =   1 , timeList:
(PID.TID 0000.0001)   1.555200000000E+07
(PID.TID 0000.0001) READ_MFLDS_3D_RL: read field: "Uvel    ", #   1 in fldList, rec=   1
(PID.TID 0000.0001) READ_MFLDS_3D_RL: read field: "Vvel    ", #   2 in fldList, rec=   2
(PID.TID 0000.0001) READ_MFLDS_3D_RL: read field: "Theta   ", #   3 in fldList, rec=   3
(PID.TID 0000.0001) READ_MFLDS_3D_RL: read field: "Salt    ", #   4 in fldList, rec=   4
(PID.TID 0000.0001) READ_MFLDS_3D_RL: read field: "GuNm1   ", #   5 in fldList, rec=   5
(PID.TID 0000.0001) READ_MFLDS_3D_RL: read field: "GvNm1   ", #   6 in fldList, rec=   6
(PID.TID 0000.0001) READ_MFLDS_3D_RL: read field: "GtNm1   ", #   7 in fldList, rec=   7
(PID.TID 0000.0001) READ_MFLDS_3D_RL: read field: "GsNm1   ", #   8 in fldList, rec=   8
(PID.TID 0000.0001) READ_MFLDS_3D_RL: read field: "EtaN    ", #   9 in fldList, rec= 241
(PID.TID 0000.0001) READ_MFLDS_3D_RL: read field: "dEtaHdt ", #  10 in fldList, rec= 242
(PID.TID 0000.0001) READ_MFLDS_3D_RL: read field: "EtaH    ", #  11 in fldList, rec= 243
(PID.TID 0000.0001) READ_MFLDS_CHECK: - normal end ; reset MFLDS file-name: pickup.0000008640
(PID.TID 0000.0001) // =======================================================
(PID.TID 0000.0001) // Model current state
(PID.TID 0000.0001) // =======================================================
(PID.TID 0000.0001) 
(PID.TID 0000.0001) SOLVE_FOR_PRESSURE: putPmEinXvector =    F
 cg2d: Sum(rhs),rhsMax =   7.02660152285262E-13  5.97860431289981E-02
 cg2d: Sum(rhs),rhsMax =   7.16871007000464E-13  5.85512058790005E-02
 cg2d: Sum(rhs),rhsMax =   7.19466153320525E-13  5.84775816600136E-02
 cg2d: Sum(rhs),rhsMax =   7.19049819686290E-13  5.84638696903112E-02
 cg2d: Sum(rhs),rhsMax =   7.18911041808212E-13  5.84152093591718E-02
 cg2d: Sum(rhs),rhsMax =   7.18147763478783E-13  5.83794409266872E-02
 cg2d: Sum(rhs),rhsMax =   7.18897164020404E-13  5.84375404682482E-02
 cg2d: Sum(rhs),rhsMax =   7.16631615160779E-13  5.85071226053183E-02
 cg2d: Sum(rhs),rhsMax =   7.17790410442731E-13  5.85886560878251E-02
 cg2d: Sum(rhs),rhsMax =   7.15328837830320E-13  5.86804178259128E-02
(PID.TID 0000.0001) Did not write pickup because writePickupAtEnd = FALSE
 --> objf_shelfice(bi,bj) =  0.000000000000000D+00
 --> objf_shifwflx(bi,bj) =  0.000000000000000D+00
 --> objf_shelfice(bi,bj) =  0.000000000000000D+00
 --> objf_shifwflx(bi,bj) =  0.000000000000000D+00
 --> objf_shelfice(bi,bj) =  0.000000000000000D+00
 --> objf_shifwflx(bi,bj) =  0.000000000000000D+00
 --> objf_shelfice(bi,bj) =  0.000000000000000D+00
 --> objf_shifwflx(bi,bj) =  0.000000000000000D+00
 --> objf_shelfice(bi,bj) =  0.000000000000000D+00
 --> objf_shifwflx(bi,bj) =  0.000000000000000D+00
 --> objf_shelfice(bi,bj) =  0.000000000000000D+00
 --> objf_shifwflx(bi,bj) =  0.000000000000000D+00
 --> objf_shelfice(bi,bj) =  0.000000000000000D+00
 --> objf_shifwflx(bi,bj) =  0.000000000000000D+00
 --> objf_shelfice(bi,bj) =  0.000000000000000D+00
 --> objf_shifwflx(bi,bj) =  0.000000000000000D+00
  early fc =  0.000000000000000D+00
 --> objf_test(bi,bj)   =  0.272347074117993D+05
 --> objf_test(bi,bj)   =  0.280682933687563D+05
 --> objf_test(bi,bj)   =  0.489343509976857D+05
 --> objf_test(bi,bj)   =  0.505651389021049D+05
 --> objf_test(bi,bj)   =  0.526343248743863D+05
 --> objf_test(bi,bj)   =  0.548257103139508D+05
 --> objf_test(bi,bj)   =  0.526324412261050D+05
 --> objf_test(bi,bj)   =  0.548254596779681D+05
  local fc =  0.369720426772756D+06
 global fc =  0.369720426772756D+06
(PID.TID 0000.0001) grdchk perturb(-)fc: fcpertminus =  3.69720426772756E+05
grad-res -------------------------------
 grad-res     0    3   22   24   20    1    1    1   3.69720388437E+05  3.69720350264E+05  3.69720426773E+05
 grad-res     0    3    3 1581    0    1    1    1  -3.82541943546E+00 -3.82541941653E+00  4.94648078053E-09
(PID.TID 0000.0001)  ADM  ref_cost_function      =  3.69720388437481E+05
(PID.TID 0000.0001)  ADM  adjoint_gradient       = -3.82541943545708E+00
(PID.TID 0000.0001)  ADM  finite-diff_grad       = -3.82541941653471E+00
(PID.TID 0000.0001) ====== End of gradient-check number   3 (ierr=  0) =======
(PID.TID 0000.0001) ====== Starts gradient-check number   4 (=ichknum) =======
 ph-test icomp, ncvarcomp, ichknum         1582      100450           4
 ph-grd _loc: bi, bj, icomptest, ichknum            1           1        1581           4
 ph-grd -->hit<--           23          24          20           1
(PID.TID 0000.0001) grdchk pos: i,j,k=   23   24   20 ; bi,bj=   1   1 ; iobc=  1 ; rec=   1
(PID.TID 0000.0001)  nRecords = 243 ; filePrec =  64 ; fileIter =      8640
(PID.TID 0000.0001)     nDims =   2 , dims:
(PID.TID 0000.0001)    1:  50   1  50
(PID.TID 0000.0001)    2: 100   1 100
(PID.TID 0000.0001)     nFlds =  11 , nFl3D =   8 , fields:
(PID.TID 0000.0001)  >Uvel    < >Vvel    < >Theta   < >Salt    < >GuNm1   < >GvNm1   < >GtNm1   < >GsNm1   < >EtaN    < >dEtaHdt < >EtaH    <
(PID.TID 0000.0001) missingVal=  1.00000000000000E+00 ; nTimRec =   1 , timeList:
(PID.TID 0000.0001)   1.555200000000E+07
(PID.TID 0000.0001) READ_MFLDS_3D_RL: read field: "Uvel    ", #   1 in fldList, rec=   1
(PID.TID 0000.0001) READ_MFLDS_3D_RL: read field: "Vvel    ", #   2 in fldList, rec=   2
(PID.TID 0000.0001) READ_MFLDS_3D_RL: read field: "Theta   ", #   3 in fldList, rec=   3
(PID.TID 0000.0001) READ_MFLDS_3D_RL: read field: "Salt    ", #   4 in fldList, rec=   4
(PID.TID 0000.0001) READ_MFLDS_3D_RL: read field: "GuNm1   ", #   5 in fldList, rec=   5
(PID.TID 0000.0001) READ_MFLDS_3D_RL: read field: "GvNm1   ", #   6 in fldList, rec=   6
(PID.TID 0000.0001) READ_MFLDS_3D_RL: read field: "GtNm1   ", #   7 in fldList, rec=   7
(PID.TID 0000.0001) READ_MFLDS_3D_RL: read field: "GsNm1   ", #   8 in fldList, rec=   8
(PID.TID 0000.0001) READ_MFLDS_3D_RL: read field: "EtaN    ", #   9 in fldList, rec= 241
(PID.TID 0000.0001) READ_MFLDS_3D_RL: read field: "dEtaHdt ", #  10 in fldList, rec= 242
(PID.TID 0000.0001) READ_MFLDS_3D_RL: read field: "EtaH    ", #  11 in fldList, rec= 243
(PID.TID 0000.0001) READ_MFLDS_CHECK: - normal end ; reset MFLDS file-name: pickup.0000008640
(PID.TID 0000.0001) // =======================================================
(PID.TID 0000.0001) // Model current state
(PID.TID 0000.0001) // =======================================================
(PID.TID 0000.0001) 
(PID.TID 0000.0001) SOLVE_FOR_PRESSURE: putPmEinXvector =    F
 cg2d: Sum(rhs),rhsMax =   7.02826685738955E-13  5.97860431289981E-02
 cg2d: Sum(rhs),rhsMax =   7.17703674268932E-13  5.85512048428568E-02
 cg2d: Sum(rhs),rhsMax =   7.16274262124728E-13  5.84775808474955E-02
 cg2d: Sum(rhs),rhsMax =   7.20284942801186E-13  5.84638696971825E-02
 cg2d: Sum(rhs),rhsMax =   7.17023662666350E-13  5.84152097348778E-02
 cg2d: Sum(rhs),rhsMax =   7.21020465555000E-13  5.83794408913390E-02
 cg2d: Sum(rhs),rhsMax =   7.15573433840433E-13  5.84375402777716E-02
 cg2d: Sum(rhs),rhsMax =   7.16728759675433E-13  5.85071223344144E-02
 cg2d: Sum(rhs),rhsMax =   7.16081707818894E-13  5.85886557528521E-02
 cg2d: Sum(rhs),rhsMax =   7.14285401659520E-13  5.86804173728441E-02
(PID.TID 0000.0001) Did not write pickup because writePickupAtEnd = FALSE
 --> objf_shelfice(bi,bj) =  0.000000000000000D+00
 --> objf_shifwflx(bi,bj) =  0.000000000000000D+00
 --> objf_shelfice(bi,bj) =  0.000000000000000D+00
 --> objf_shifwflx(bi,bj) =  0.000000000000000D+00
 --> objf_shelfice(bi,bj) =  0.000000000000000D+00
 --> objf_shifwflx(bi,bj) =  0.000000000000000D+00
 --> objf_shelfice(bi,bj) =  0.000000000000000D+00
 --> objf_shifwflx(bi,bj) =  0.000000000000000D+00
 --> objf_shelfice(bi,bj) =  0.000000000000000D+00
 --> objf_shifwflx(bi,bj) =  0.000000000000000D+00
 --> objf_shelfice(bi,bj) =  0.000000000000000D+00
 --> objf_shifwflx(bi,bj) =  0.000000000000000D+00
 --> objf_shelfice(bi,bj) =  0.000000000000000D+00
 --> objf_shifwflx(bi,bj) =  0.000000000000000D+00
 --> objf_shelfice(bi,bj) =  0.000000000000000D+00
 --> objf_shifwflx(bi,bj) =  0.000000000000000D+00
  early fc =  0.000000000000000D+00
 --> objf_test(bi,bj)   =  0.272346309076529D+05
 --> objf_test(bi,bj)   =  0.280682933673589D+05
 --> objf_test(bi,bj)   =  0.489343509973121D+05
 --> objf_test(bi,bj)   =  0.505651389019926D+05
 --> objf_test(bi,bj)   =  0.526343248743818D+05
 --> objf_test(bi,bj)   =  0.548257103139533D+05
 --> objf_test(bi,bj)   =  0.526324412260986D+05
 --> objf_test(bi,bj)   =  0.548254596779659D+05
  local fc =  0.369720350266716D+06
 global fc =  0.369720350266716D+06
(PID.TID 0000.0001) grdchk perturb(+)fc: fcpertplus  =  3.69720350266716E+05
(PID.TID 0000.0001)  nRecords = 243 ; filePrec =  64 ; fileIter =      8640
(PID.TID 0000.0001)     nDims =   2 , dims:
(PID.TID 0000.0001)    1:  50   1  50
(PID.TID 0000.0001)    2: 100   1 100
(PID.TID 0000.0001)     nFlds =  11 , nFl3D =   8 , fields:
(PID.TID 0000.0001)  >Uvel    < >Vvel    < >Theta   < >Salt    < >GuNm1   < >GvNm1   < >GtNm1   < >GsNm1   < >EtaN    < >dEtaHdt < >EtaH    <
(PID.TID 0000.0001) missingVal=  1.00000000000000E+00 ; nTimRec =   1 , timeList:
(PID.TID 0000.0001)   1.555200000000E+07
(PID.TID 0000.0001) READ_MFLDS_3D_RL: read field: "Uvel    ", #   1 in fldList, rec=   1
(PID.TID 0000.0001) READ_MFLDS_3D_RL: read field: "Vvel    ", #   2 in fldList, rec=   2
(PID.TID 0000.0001) READ_MFLDS_3D_RL: read field: "Theta   ", #   3 in fldList, rec=   3
(PID.TID 0000.0001) READ_MFLDS_3D_RL: read field: "Salt    ", #   4 in fldList, rec=   4
(PID.TID 0000.0001) READ_MFLDS_3D_RL: read field: "GuNm1   ", #   5 in fldList, rec=   5
(PID.TID 0000.0001) READ_MFLDS_3D_RL: read field: "GvNm1   ", #   6 in fldList, rec=   6
(PID.TID 0000.0001) READ_MFLDS_3D_RL: read field: "GtNm1   ", #   7 in fldList, rec=   7
(PID.TID 0000.0001) READ_MFLDS_3D_RL: read field: "GsNm1   ", #   8 in fldList, rec=   8
(PID.TID 0000.0001) READ_MFLDS_3D_RL: read field: "EtaN    ", #   9 in fldList, rec= 241
(PID.TID 0000.0001) READ_MFLDS_3D_RL: read field: "dEtaHdt ", #  10 in fldList, rec= 242
(PID.TID 0000.0001) READ_MFLDS_3D_RL: read field: "EtaH    ", #  11 in fldList, rec= 243
(PID.TID 0000.0001) READ_MFLDS_CHECK: - normal end ; reset MFLDS file-name: pickup.0000008640
(PID.TID 0000.0001) // =======================================================
(PID.TID 0000.0001) // Model current state
(PID.TID 0000.0001) // =======================================================
(PID.TID 0000.0001) 
(PID.TID 0000.0001) SOLVE_FOR_PRESSURE: putPmEinXvector =    F
 cg2d: Sum(rhs),rhsMax =   7.02660152285262E-13  5.97860431289981E-02
 cg2d: Sum(rhs),rhsMax =   7.15677517248992E-13  5.85512058472315E-02
 cg2d: Sum(rhs),rhsMax =   7.18355930295900E-13  5.84775816714617E-02
 cg2d: Sum(rhs),rhsMax =   7.17551018603046E-13  5.84638697483663E-02
 cg2d: Sum(rhs),rhsMax =   7.15899561853917E-13  5.84152094377272E-02
 cg2d: Sum(rhs),rhsMax =   7.18994308535059E-13  5.83794410210466E-02
 cg2d: Sum(rhs),rhsMax =   7.18335113614188E-13  5.84375405846043E-02
 cg2d: Sum(rhs),rhsMax =   7.16877945894367E-13  5.85071227465659E-02
 cg2d: Sum(rhs),rhsMax =   7.19441867191861E-13  5.85886562535518E-02
 cg2d: Sum(rhs),rhsMax =   7.14528262946157E-13  5.86804180141162E-02
(PID.TID 0000.0001) Did not write pickup because writePickupAtEnd = FALSE
 --> objf_shelfice(bi,bj) =  0.000000000000000D+00
 --> objf_shifwflx(bi,bj) =  0.000000000000000D+00
 --> objf_shelfice(bi,bj) =  0.000000000000000D+00
 --> objf_shifwflx(bi,bj) =  0.000000000000000D+00
 --> objf_shelfice(bi,bj) =  0.000000000000000D+00
 --> objf_shifwflx(bi,bj) =  0.000000000000000D+00
 --> objf_shelfice(bi,bj) =  0.000000000000000D+00
 --> objf_shifwflx(bi,bj) =  0.000000000000000D+00
 --> objf_shelfice(bi,bj) =  0.000000000000000D+00
 --> objf_shifwflx(bi,bj) =  0.000000000000000D+00
 --> objf_shelfice(bi,bj) =  0.000000000000000D+00
 --> objf_shifwflx(bi,bj) =  0.000000000000000D+00
 --> objf_shelfice(bi,bj) =  0.000000000000000D+00
 --> objf_shifwflx(bi,bj) =  0.000000000000000D+00
 --> objf_shelfice(bi,bj) =  0.000000000000000D+00
 --> objf_shifwflx(bi,bj) =  0.000000000000000D+00
  early fc =  0.000000000000000D+00
 --> objf_test(bi,bj)   =  0.272347074086489D+05
 --> objf_test(bi,bj)   =  0.280682933695350D+05
 --> objf_test(bi,bj)   =  0.489343509976347D+05
 --> objf_test(bi,bj)   =  0.505651389021807D+05
 --> objf_test(bi,bj)   =  0.526343248743860D+05
 --> objf_test(bi,bj)   =  0.548257103139507D+05
 --> objf_test(bi,bj)   =  0.526324412261046D+05
 --> objf_test(bi,bj)   =  0.548254596779678D+05
  local fc =  0.369720426770408D+06
 global fc =  0.369720426770408D+06
(PID.TID 0000.0001) grdchk perturb(-)fc: fcpertminus =  3.69720426770408E+05
grad-res -------------------------------
 grad-res     0    4   23   24   20    1    1    1   3.69720388437E+05  3.69720350267E+05  3.69720426770E+05
 grad-res     0    4    4 1582    0    1    1    1  -3.82518462307E+00 -3.82518462138E+00  4.39899006111E-10
(PID.TID 0000.0001)  ADM  ref_cost_function      =  3.69720388437481E+05
(PID.TID 0000.0001)  ADM  adjoint_gradient       = -3.82518462306520E+00
(PID.TID 0000.0001)  ADM  finite-diff_grad       = -3.82518462138250E+00
(PID.TID 0000.0001) ====== End of gradient-check number   4 (ierr=  0) =======
(PID.TID 0000.0001) ====== Starts gradient-check number   5 (=ichknum) =======
 ph-test icomp, ncvarcomp, ichknum         1583      100450           5
 ph-grd _loc: bi, bj, icomptest, ichknum            1           1        1582           5
 ph-grd -->hit<--           24          24          20           1
(PID.TID 0000.0001) grdchk pos: i,j,k=   24   24   20 ; bi,bj=   1   1 ; iobc=  1 ; rec=   1
(PID.TID 0000.0001)  nRecords = 243 ; filePrec =  64 ; fileIter =      8640
(PID.TID 0000.0001)     nDims =   2 , dims:
(PID.TID 0000.0001)    1:  50   1  50
(PID.TID 0000.0001)    2: 100   1 100
(PID.TID 0000.0001)     nFlds =  11 , nFl3D =   8 , fields:
(PID.TID 0000.0001)  >Uvel    < >Vvel    < >Theta   < >Salt    < >GuNm1   < >GvNm1   < >GtNm1   < >GsNm1   < >EtaN    < >dEtaHdt < >EtaH    <
(PID.TID 0000.0001) missingVal=  1.00000000000000E+00 ; nTimRec =   1 , timeList:
(PID.TID 0000.0001)   1.555200000000E+07
(PID.TID 0000.0001) READ_MFLDS_3D_RL: read field: "Uvel    ", #   1 in fldList, rec=   1
(PID.TID 0000.0001) READ_MFLDS_3D_RL: read field: "Vvel    ", #   2 in fldList, rec=   2
(PID.TID 0000.0001) READ_MFLDS_3D_RL: read field: "Theta   ", #   3 in fldList, rec=   3
(PID.TID 0000.0001) READ_MFLDS_3D_RL: read field: "Salt    ", #   4 in fldList, rec=   4
(PID.TID 0000.0001) READ_MFLDS_3D_RL: read field: "GuNm1   ", #   5 in fldList, rec=   5
(PID.TID 0000.0001) READ_MFLDS_3D_RL: read field: "GvNm1   ", #   6 in fldList, rec=   6
(PID.TID 0000.0001) READ_MFLDS_3D_RL: read field: "GtNm1   ", #   7 in fldList, rec=   7
(PID.TID 0000.0001) READ_MFLDS_3D_RL: read field: "GsNm1   ", #   8 in fldList, rec=   8
(PID.TID 0000.0001) READ_MFLDS_3D_RL: read field: "EtaN    ", #   9 in fldList, rec= 241
(PID.TID 0000.0001) READ_MFLDS_3D_RL: read field: "dEtaHdt ", #  10 in fldList, rec= 242
(PID.TID 0000.0001) READ_MFLDS_3D_RL: read field: "EtaH    ", #  11 in fldList, rec= 243
(PID.TID 0000.0001) READ_MFLDS_CHECK: - normal end ; reset MFLDS file-name: pickup.0000008640
(PID.TID 0000.0001) // =======================================================
(PID.TID 0000.0001) // Model current state
(PID.TID 0000.0001) // =======================================================
(PID.TID 0000.0001) 
(PID.TID 0000.0001) SOLVE_FOR_PRESSURE: putPmEinXvector =    F
 cg2d: Sum(rhs),rhsMax =   7.02660152285262E-13  5.97860431289981E-02
 cg2d: Sum(rhs),rhsMax =   7.17384485149353E-13  5.85512048731132E-02
 cg2d: Sum(rhs),rhsMax =   7.15774661763646E-13  5.84775808392421E-02
 cg2d: Sum(rhs),rhsMax =   7.16399162214998E-13  5.84638696452807E-02
 cg2d: Sum(rhs),rhsMax =   7.16926518151695E-13  5.84152096637062E-02
 cg2d: Sum(rhs),rhsMax =   7.16884884788271E-13  5.83794408091611E-02
 cg2d: Sum(rhs),rhsMax =   7.14532599754847E-13  5.84375401767652E-02
 cg2d: Sum(rhs),rhsMax =   7.18321235826380E-13  5.85071222119874E-02
 cg2d: Sum(rhs),rhsMax =   7.16513653964412E-13  5.85886556088563E-02
 cg2d: Sum(rhs),rhsMax =   7.15495371284014E-13  5.86804172094477E-02
(PID.TID 0000.0001) Did not write pickup because writePickupAtEnd = FALSE
 --> objf_shelfice(bi,bj) =  0.000000000000000D+00
 --> objf_shifwflx(bi,bj) =  0.000000000000000D+00
 --> objf_shelfice(bi,bj) =  0.000000000000000D+00
 --> objf_shifwflx(bi,bj) =  0.000000000000000D+00
 --> objf_shelfice(bi,bj) =  0.000000000000000D+00
 --> objf_shifwflx(bi,bj) =  0.000000000000000D+00
 --> objf_shelfice(bi,bj) =  0.000000000000000D+00
 --> objf_shifwflx(bi,bj) =  0.000000000000000D+00
 --> objf_shelfice(bi,bj) =  0.000000000000000D+00
 --> objf_shifwflx(bi,bj) =  0.000000000000000D+00
 --> objf_shelfice(bi,bj) =  0.000000000000000D+00
 --> objf_shifwflx(bi,bj) =  0.000000000000000D+00
 --> objf_shelfice(bi,bj) =  0.000000000000000D+00
 --> objf_shifwflx(bi,bj) =  0.000000000000000D+00
 --> objf_shelfice(bi,bj) =  0.000000000000000D+00
 --> objf_shifwflx(bi,bj) =  0.000000000000000D+00
  early fc =  0.000000000000000D+00
 --> objf_test(bi,bj)   =  0.272346309114242D+05
 --> objf_test(bi,bj)   =  0.280682933651876D+05
 --> objf_test(bi,bj)   =  0.489343509976068D+05
 --> objf_test(bi,bj)   =  0.505651389016756D+05
 --> objf_test(bi,bj)   =  0.526343248743820D+05
 --> objf_test(bi,bj)   =  0.548257103139534D+05
 --> objf_test(bi,bj)   =  0.526324412260989D+05
 --> objf_test(bi,bj)   =  0.548254596779662D+05
  local fc =  0.369720350268295D+06
 global fc =  0.369720350268295D+06
(PID.TID 0000.0001) grdchk perturb(+)fc: fcpertplus  =  3.69720350268295E+05
(PID.TID 0000.0001)  nRecords = 243 ; filePrec =  64 ; fileIter =      8640
(PID.TID 0000.0001)     nDims =   2 , dims:
(PID.TID 0000.0001)    1:  50   1  50
(PID.TID 0000.0001)    2: 100   1 100
(PID.TID 0000.0001)     nFlds =  11 , nFl3D =   8 , fields:
(PID.TID 0000.0001)  >Uvel    < >Vvel    < >Theta   < >Salt    < >GuNm1   < >GvNm1   < >GtNm1   < >GsNm1   < >EtaN    < >dEtaHdt < >EtaH    <
(PID.TID 0000.0001) missingVal=  1.00000000000000E+00 ; nTimRec =   1 , timeList:
(PID.TID 0000.0001)   1.555200000000E+07
(PID.TID 0000.0001) READ_MFLDS_3D_RL: read field: "Uvel    ", #   1 in fldList, rec=   1
(PID.TID 0000.0001) READ_MFLDS_3D_RL: read field: "Vvel    ", #   2 in fldList, rec=   2
(PID.TID 0000.0001) READ_MFLDS_3D_RL: read field: "Theta   ", #   3 in fldList, rec=   3
(PID.TID 0000.0001) READ_MFLDS_3D_RL: read field: "Salt    ", #   4 in fldList, rec=   4
(PID.TID 0000.0001) READ_MFLDS_3D_RL: read field: "GuNm1   ", #   5 in fldList, rec=   5
(PID.TID 0000.0001) READ_MFLDS_3D_RL: read field: "GvNm1   ", #   6 in fldList, rec=   6
(PID.TID 0000.0001) READ_MFLDS_3D_RL: read field: "GtNm1   ", #   7 in fldList, rec=   7
(PID.TID 0000.0001) READ_MFLDS_3D_RL: read field: "GsNm1   ", #   8 in fldList, rec=   8
(PID.TID 0000.0001) READ_MFLDS_3D_RL: read field: "EtaN    ", #   9 in fldList, rec= 241
(PID.TID 0000.0001) READ_MFLDS_3D_RL: read field: "dEtaHdt ", #  10 in fldList, rec= 242
(PID.TID 0000.0001) READ_MFLDS_3D_RL: read field: "EtaH    ", #  11 in fldList, rec= 243
(PID.TID 0000.0001) READ_MFLDS_CHECK: - normal end ; reset MFLDS file-name: pickup.0000008640
(PID.TID 0000.0001) // =======================================================
(PID.TID 0000.0001) // Model current state
(PID.TID 0000.0001) // =======================================================
(PID.TID 0000.0001) 
(PID.TID 0000.0001) SOLVE_FOR_PRESSURE: putPmEinXvector =    F
 cg2d: Sum(rhs),rhsMax =   7.02882196890187E-13  5.97860431289981E-02
 cg2d: Sum(rhs),rhsMax =   7.15275061402565E-13  5.85512058169204E-02
 cg2d: Sum(rhs),rhsMax =   7.18883286232597E-13  5.84775816796196E-02
 cg2d: Sum(rhs),rhsMax =   7.19160841988753E-13  5.84638698001825E-02
 cg2d: Sum(rhs),rhsMax =   7.18078374539743E-13  5.84152095086333E-02
 cg2d: Sum(rhs),rhsMax =   7.16399162214998E-13  5.83794411030261E-02
 cg2d: Sum(rhs),rhsMax =   7.16107728671034E-13  5.84375406853507E-02
 cg2d: Sum(rhs),rhsMax =   7.19837384144384E-13  5.85071228689768E-02
 cg2d: Sum(rhs),rhsMax =   7.15268122508661E-13  5.85886563964689E-02
 cg2d: Sum(rhs),rhsMax =   7.15380879534600E-13  5.86804181762940E-02
(PID.TID 0000.0001) Did not write pickup because writePickupAtEnd = FALSE
 --> objf_shelfice(bi,bj) =  0.000000000000000D+00
 --> objf_shifwflx(bi,bj) =  0.000000000000000D+00
 --> objf_shelfice(bi,bj) =  0.000000000000000D+00
 --> objf_shifwflx(bi,bj) =  0.000000000000000D+00
 --> objf_shelfice(bi,bj) =  0.000000000000000D+00
 --> objf_shifwflx(bi,bj) =  0.000000000000000D+00
 --> objf_shelfice(bi,bj) =  0.000000000000000D+00
 --> objf_shifwflx(bi,bj) =  0.000000000000000D+00
 --> objf_shelfice(bi,bj) =  0.000000000000000D+00
 --> objf_shifwflx(bi,bj) =  0.000000000000000D+00
 --> objf_shelfice(bi,bj) =  0.000000000000000D+00
 --> objf_shifwflx(bi,bj) =  0.000000000000000D+00
 --> objf_shelfice(bi,bj) =  0.000000000000000D+00
 --> objf_shifwflx(bi,bj) =  0.000000000000000D+00
 --> objf_shelfice(bi,bj) =  0.000000000000000D+00
 --> objf_shifwflx(bi,bj) =  0.000000000000000D+00
  early fc =  0.000000000000000D+00
 --> objf_test(bi,bj)   =  0.272347074048294D+05
 --> objf_test(bi,bj)   =  0.280682933717543D+05
 --> objf_test(bi,bj)   =  0.489343509973409D+05
 --> objf_test(bi,bj)   =  0.505651389024967D+05
 --> objf_test(bi,bj)   =  0.526343248743857D+05
 --> objf_test(bi,bj)   =  0.548257103139507D+05
 --> objf_test(bi,bj)   =  0.526324412261042D+05
 --> objf_test(bi,bj)   =  0.548254596779675D+05
  local fc =  0.369720426768829D+06
 global fc =  0.369720426768829D+06
(PID.TID 0000.0001) grdchk perturb(-)fc: fcpertminus =  3.69720426768829E+05
grad-res -------------------------------
 grad-res     0    5   24   24   20    1    1    1   3.69720388437E+05  3.69720350268E+05  3.69720426769E+05
 grad-res     0    5    5 1583    0    1    1    1  -3.82502672331E+00 -3.82502672728E+00 -1.03776032212E-09
(PID.TID 0000.0001)  ADM  ref_cost_function      =  3.69720388437481E+05
(PID.TID 0000.0001)  ADM  adjoint_gradient       = -3.82502672331205E+00
(PID.TID 0000.0001)  ADM  finite-diff_grad       = -3.82502672728151E+00
(PID.TID 0000.0001) ====== End of gradient-check number   5 (ierr=  0) =======
(PID.TID 0000.0001) 
(PID.TID 0000.0001) // =======================================================
(PID.TID 0000.0001) // Gradient check results  >>> START <<<
(PID.TID 0000.0001) // =======================================================
(PID.TID 0000.0001) 
(PID.TID 0000.0001)  EPS =   1.000000E-02
(PID.TID 0000.0001) 
(PID.TID 0000.0001) grdchk output h.p:  Id Itile Jtile LAYER   bi   bj   X(Id)           X(Id)+/-EPS
(PID.TID 0000.0001) grdchk output h.c:  Id  FC                   FC1                  FC2
(PID.TID 0000.0001) grdchk output h.g:  Id     FC1-FC2/(2*EPS)      ADJ GRAD(FC)         1-FDGRD/ADGRD
(PID.TID 0000.0001) 
(PID.TID 0000.0001) grdchk output (p):   1    20    24    20    1    1   0.000000000E+00 -1.000000000E-02
(PID.TID 0000.0001) grdchk output (c):   1  3.6972038843748E+05  3.6972035025534E+05  3.6972042678179E+05
(PID.TID 0000.0001) grdchk output (g):   1    -3.8263225025730E+00 -3.8263224939347E+00 -2.2575914471190E-09
(PID.TID 0000.0001) 
(PID.TID 0000.0001) grdchk output (p):   2    21    24    20    1    1   0.000000000E+00 -1.000000000E-02
(PID.TID 0000.0001) grdchk output (c):   2  3.6972038843748E+05  3.6972035026077E+05  3.6972042677636E+05
(PID.TID 0000.0001) grdchk output (g):   2    -3.8257793436060E+00 -3.8257793448869E+00  3.3481373229449E-10
(PID.TID 0000.0001) 
(PID.TID 0000.0001) grdchk output (p):   3    22    24    20    1    1   0.000000000E+00 -1.000000000E-02
(PID.TID 0000.0001) grdchk output (c):   3  3.6972038843748E+05  3.6972035026437E+05  3.6972042677276E+05
(PID.TID 0000.0001) grdchk output (g):   3    -3.8254194165347E+00 -3.8254194354571E+00  4.9464807805322E-09
(PID.TID 0000.0001) 
(PID.TID 0000.0001) grdchk output (p):   4    23    24    20    1    1   0.000000000E+00 -1.000000000E-02
(PID.TID 0000.0001) grdchk output (c):   4  3.6972038843748E+05  3.6972035026672E+05  3.6972042677041E+05
(PID.TID 0000.0001) grdchk output (g):   4    -3.8251846213825E+00 -3.8251846230652E+00  4.3989900611052E-10
(PID.TID 0000.0001) 
(PID.TID 0000.0001) grdchk output (p):   5    24    24    20    1    1   0.000000000E+00 -1.000000000E-02
(PID.TID 0000.0001) grdchk output (c):   5  3.6972038843748E+05  3.6972035026829E+05  3.6972042676883E+05
(PID.TID 0000.0001) grdchk output (g):   5    -3.8250267272815E+00 -3.8250267233120E+00 -1.0377603221201E-09
(PID.TID 0000.0001) 
(PID.TID 0000.0001) grdchk  summary  :  RMS of    5 ratios =  2.4878484323349E-09
(PID.TID 0000.0001) 
(PID.TID 0000.0001) // =======================================================
(PID.TID 0000.0001) // Gradient check results  >>> END <<<
(PID.TID 0000.0001) // =======================================================
(PID.TID 0000.0001) 
(PID.TID 0000.0001)   Seconds in section "ALL                    [THE_MODEL_MAIN]":
(PID.TID 0000.0001)           User time:   397.59000000000003
(PID.TID 0000.0001)         System time:  0.88000000000000000
(PID.TID 0000.0001)     Wall clock time:   399.80161285400391
(PID.TID 0000.0001)          No. starts:           1
(PID.TID 0000.0001)           No. stops:           1
(PID.TID 0000.0001)   Seconds in section "INITIALISE_FIXED       [THE_MODEL_MAIN]":
(PID.TID 0000.0001)           User time:  0.41999999999999998
(PID.TID 0000.0001)         System time:  2.99999999999999989E-002
(PID.TID 0000.0001)     Wall clock time:  0.46401405334472656
(PID.TID 0000.0001)          No. starts:           1
(PID.TID 0000.0001)           No. stops:           1
(PID.TID 0000.0001)   Seconds in section "ADTHE_MAIN_LOOP          [ADJOINT RUN]":
(PID.TID 0000.0001)           User time:   165.41000000000003
(PID.TID 0000.0001)         System time:  0.77000000000000002
(PID.TID 0000.0001)     Wall clock time:   166.95628809928894
(PID.TID 0000.0001)          No. starts:           1
(PID.TID 0000.0001)           No. stops:           1
(PID.TID 0000.0001)   Seconds in section "FORWARD_STEP        [MAIN_DO_LOOP]":
(PID.TID 0000.0001)           User time:   263.68999999999988
(PID.TID 0000.0001)         System time:  7.00000000000000622E-002
(PID.TID 0000.0001)     Wall clock time:   264.38625502586365
(PID.TID 0000.0001)          No. starts:         120
(PID.TID 0000.0001)           No. stops:         120
(PID.TID 0000.0001)   Seconds in section "UPDATE_SURF_DR      [FORWARD_STEP]":
(PID.TID 0000.0001)           User time:  0.19000000000005457
(PID.TID 0000.0001)         System time:   0.0000000000000000
(PID.TID 0000.0001)     Wall clock time:  0.27593040466308594
(PID.TID 0000.0001)          No. starts:         240
(PID.TID 0000.0001)           No. stops:         240
(PID.TID 0000.0001)   Seconds in section "LOAD_FIELDS_DRIVER  [FORWARD_STEP]":
(PID.TID 0000.0001)           User time:   0.0000000000000000
(PID.TID 0000.0001)         System time:   0.0000000000000000
(PID.TID 0000.0001)     Wall clock time:  3.44300270080566406E-003
(PID.TID 0000.0001)          No. starts:         120
(PID.TID 0000.0001)           No. stops:         120
(PID.TID 0000.0001)   Seconds in section "EXTERNAL_FLDS_LOAD [LOAD_FLDS_DRIVER]":
(PID.TID 0000.0001)           User time:   0.0000000000000000
(PID.TID 0000.0001)         System time:   0.0000000000000000
(PID.TID 0000.0001)     Wall clock time:  1.39880180358886719E-003
(PID.TID 0000.0001)          No. starts:         140
(PID.TID 0000.0001)           No. stops:         140
(PID.TID 0000.0001)   Seconds in section "DO_ATMOSPHERIC_PHYS [FORWARD_STEP]":
(PID.TID 0000.0001)           User time:  0.39000000000021373
(PID.TID 0000.0001)         System time:  1.00000000000000089E-002
(PID.TID 0000.0001)     Wall clock time:  0.35156106948852539
(PID.TID 0000.0001)          No. starts:         120
(PID.TID 0000.0001)           No. stops:         120
(PID.TID 0000.0001)   Seconds in section "DO_OCEANIC_PHYS     [FORWARD_STEP]":
(PID.TID 0000.0001)           User time:   6.3099999999992633
(PID.TID 0000.0001)         System time:   0.0000000000000000
(PID.TID 0000.0001)     Wall clock time:   6.2856619358062744
(PID.TID 0000.0001)          No. starts:         120
(PID.TID 0000.0001)           No. stops:         120
(PID.TID 0000.0001)   Seconds in section "SHELFICE_THERMODYNAMICS [DO_OCEANIC_PHYS]":
(PID.TID 0000.0001)           User time:  0.78999999999990678
(PID.TID 0000.0001)         System time:   0.0000000000000000
(PID.TID 0000.0001)     Wall clock time:  0.79890346527099609
(PID.TID 0000.0001)          No. starts:         130
(PID.TID 0000.0001)           No. stops:         130
(PID.TID 0000.0001)   Seconds in section "DYNAMICS            [FORWARD_STEP]":
(PID.TID 0000.0001)           User time:   100.57000000000011
(PID.TID 0000.0001)         System time:  2.00000000000000178E-002
(PID.TID 0000.0001)     Wall clock time:   100.90341377258301
(PID.TID 0000.0001)          No. starts:         120
(PID.TID 0000.0001)           No. stops:         120
(PID.TID 0000.0001)   Seconds in section "SOLVE_FOR_PRESSURE  [FORWARD_STEP]":
(PID.TID 0000.0001)           User time:   54.890000000000214
(PID.TID 0000.0001)         System time:   0.0000000000000000
(PID.TID 0000.0001)     Wall clock time:   54.965810537338257
(PID.TID 0000.0001)          No. starts:         120
(PID.TID 0000.0001)           No. stops:         120
(PID.TID 0000.0001)   Seconds in section "MOM_CORRECTION_STEP [FORWARD_STEP]":
(PID.TID 0000.0001)           User time:   2.3999999999997499
(PID.TID 0000.0001)         System time:   0.0000000000000000
(PID.TID 0000.0001)     Wall clock time:   2.3926198482513428
(PID.TID 0000.0001)          No. starts:         120
(PID.TID 0000.0001)           No. stops:         120
(PID.TID 0000.0001)   Seconds in section "INTEGR_CONTINUITY   [FORWARD_STEP]":
(PID.TID 0000.0001)           User time:   6.2600000000000477
(PID.TID 0000.0001)         System time:   0.0000000000000000
(PID.TID 0000.0001)     Wall clock time:   6.2894020080566406
(PID.TID 0000.0001)          No. starts:         120
(PID.TID 0000.0001)           No. stops:         120
(PID.TID 0000.0001)   Seconds in section "CALC_SURF_DR      [FORWARD_STEP]":
(PID.TID 0000.0001)           User time:  0.27000000000003865
(PID.TID 0000.0001)         System time:   0.0000000000000000
(PID.TID 0000.0001)     Wall clock time:  0.27171087265014648
(PID.TID 0000.0001)          No. starts:         120
(PID.TID 0000.0001)           No. stops:         120
(PID.TID 0000.0001)   Seconds in section "BLOCKING_EXCHANGES  [FORWARD_STEP]":
(PID.TID 0000.0001)           User time:   2.9099999999995703
(PID.TID 0000.0001)         System time:   0.0000000000000000
(PID.TID 0000.0001)     Wall clock time:   2.9863097667694092
(PID.TID 0000.0001)          No. starts:         240
(PID.TID 0000.0001)           No. stops:         240
(PID.TID 0000.0001)   Seconds in section "THERMODYNAMICS      [FORWARD_STEP]":
(PID.TID 0000.0001)           User time:   67.860000000000696
(PID.TID 0000.0001)         System time:   0.0000000000000000
(PID.TID 0000.0001)     Wall clock time:   68.022860288619995
(PID.TID 0000.0001)          No. starts:         120
(PID.TID 0000.0001)           No. stops:         120
(PID.TID 0000.0001)   Seconds in section "TRC_CORRECTION_STEP [FORWARD_STEP]":
(PID.TID 0000.0001)           User time:   13.400000000000034
(PID.TID 0000.0001)         System time:   0.0000000000000000
(PID.TID 0000.0001)     Wall clock time:   13.393835067749023
(PID.TID 0000.0001)          No. starts:         120
(PID.TID 0000.0001)           No. stops:         120
(PID.TID 0000.0001)   Seconds in section "MONITOR             [FORWARD_STEP]":
(PID.TID 0000.0001)           User time:   2.4799999999999613
(PID.TID 0000.0001)         System time:   0.0000000000000000
(PID.TID 0000.0001)     Wall clock time:   2.4713940620422363
(PID.TID 0000.0001)          No. starts:         120
(PID.TID 0000.0001)           No. stops:         120
(PID.TID 0000.0001)   Seconds in section "COST_TILE           [FORWARD_STEP]":
(PID.TID 0000.0001)           User time:   5.5100000000002183
(PID.TID 0000.0001)         System time:   0.0000000000000000
(PID.TID 0000.0001)     Wall clock time:   5.5105288028717041
(PID.TID 0000.0001)          No. starts:         120
(PID.TID 0000.0001)           No. stops:         120
(PID.TID 0000.0001)   Seconds in section "DO_THE_MODEL_IO     [FORWARD_STEP]":
(PID.TID 0000.0001)           User time:  6.99999999999931788E-002
(PID.TID 0000.0001)         System time:  1.00000000000000089E-002
(PID.TID 0000.0001)     Wall clock time:  7.57176876068115234E-002
(PID.TID 0000.0001)          No. starts:         120
(PID.TID 0000.0001)           No. stops:         120
(PID.TID 0000.0001)   Seconds in section "DO_WRITE_PICKUP     [FORWARD_STEP]":
(PID.TID 0000.0001)           User time:  0.13999999999998636
(PID.TID 0000.0001)         System time:  2.00000000000000178E-002
(PID.TID 0000.0001)     Wall clock time:  0.16288471221923828
(PID.TID 0000.0001)          No. starts:         120
(PID.TID 0000.0001)           No. stops:         120
(PID.TID 0000.0001)   Seconds in section "GRDCHK_MAIN         [THE_MODEL_MAIN]":
(PID.TID 0000.0001)           User time:   231.76000000000002
(PID.TID 0000.0001)         System time:  7.99999999999999600E-002
(PID.TID 0000.0001)     Wall clock time:   232.38125419616699
(PID.TID 0000.0001)          No. starts:           1
(PID.TID 0000.0001)           No. stops:           1
(PID.TID 0000.0001)   Seconds in section "INITIALISE_VARIA    [THE_MAIN_LOOP]":
(PID.TID 0000.0001)           User time:   3.8999999999999204
(PID.TID 0000.0001)         System time:  6.00000000000000533E-002
(PID.TID 0000.0001)     Wall clock time:   3.9577479362487793
(PID.TID 0000.0001)          No. starts:          10
(PID.TID 0000.0001)           No. stops:          10
(PID.TID 0000.0001)   Seconds in section "MAIN LOOP           [THE_MAIN_LOOP]":
(PID.TID 0000.0001)           User time:   227.33000000000015
(PID.TID 0000.0001)         System time:  1.00000000000000089E-002
(PID.TID 0000.0001)     Wall clock time:   227.87314820289612
(PID.TID 0000.0001)          No. starts:          10
(PID.TID 0000.0001)           No. stops:          10
(PID.TID 0000.0001)   Seconds in section "MAIN_DO_LOOP        [THE_MAIN_LOOP]":
(PID.TID 0000.0001)           User time:   217.87999999999994
(PID.TID 0000.0001)         System time:  1.00000000000000089E-002
(PID.TID 0000.0001)     Wall clock time:   218.42413520812988
(PID.TID 0000.0001)          No. starts:         100
(PID.TID 0000.0001)           No. stops:         100
(PID.TID 0000.0001)   Seconds in section "COST_FINAL         [ADJOINT SPIN-DOWN]":
(PID.TID 0000.0001)           User time:  6.99999999999931788E-002
(PID.TID 0000.0001)         System time:   0.0000000000000000
(PID.TID 0000.0001)     Wall clock time:  6.67865276336669922E-002
(PID.TID 0000.0001)          No. starts:          10
(PID.TID 0000.0001)           No. stops:          10
(PID.TID 0000.0001) // ======================================================
(PID.TID 0000.0001) // Tile <-> Tile communication statistics
(PID.TID 0000.0001) // ======================================================
(PID.TID 0000.0001) // o Tile number: 000001
(PID.TID 0000.0001) //         No. X exchanges =              0
(PID.TID 0000.0001) //            Max. X spins =              0
(PID.TID 0000.0001) //            Min. X spins =     1000000000
(PID.TID 0000.0001) //          Total. X spins =              0
(PID.TID 0000.0001) //            Avg. X spins =       0.00E+00
(PID.TID 0000.0001) //         No. Y exchanges =              0
(PID.TID 0000.0001) //            Max. Y spins =              0
(PID.TID 0000.0001) //            Min. Y spins =     1000000000
(PID.TID 0000.0001) //          Total. Y spins =              0
(PID.TID 0000.0001) //            Avg. Y spins =       0.00E+00
(PID.TID 0000.0001) // o Tile number: 000002
(PID.TID 0000.0001) //         No. X exchanges =              0
(PID.TID 0000.0001) //            Max. X spins =              0
(PID.TID 0000.0001) //            Min. X spins =     1000000000
(PID.TID 0000.0001) //          Total. X spins =              0
(PID.TID 0000.0001) //            Avg. X spins =       0.00E+00
(PID.TID 0000.0001) //         No. Y exchanges =              0
(PID.TID 0000.0001) //            Max. Y spins =              0
(PID.TID 0000.0001) //            Min. Y spins =     1000000000
(PID.TID 0000.0001) //          Total. Y spins =              0
(PID.TID 0000.0001) //            Avg. Y spins =       0.00E+00
(PID.TID 0000.0001) // o Tile number: 000003
(PID.TID 0000.0001) //         No. X exchanges =              0
(PID.TID 0000.0001) //            Max. X spins =              0
(PID.TID 0000.0001) //            Min. X spins =     1000000000
(PID.TID 0000.0001) //          Total. X spins =              0
(PID.TID 0000.0001) //            Avg. X spins =       0.00E+00
(PID.TID 0000.0001) //         No. Y exchanges =              0
(PID.TID 0000.0001) //            Max. Y spins =              0
(PID.TID 0000.0001) //            Min. Y spins =     1000000000
(PID.TID 0000.0001) //          Total. Y spins =              0
(PID.TID 0000.0001) //            Avg. Y spins =       0.00E+00
(PID.TID 0000.0001) // o Tile number: 000004
(PID.TID 0000.0001) //         No. X exchanges =              0
(PID.TID 0000.0001) //            Max. X spins =              0
(PID.TID 0000.0001) //            Min. X spins =     1000000000
(PID.TID 0000.0001) //          Total. X spins =              0
(PID.TID 0000.0001) //            Avg. X spins =       0.00E+00
(PID.TID 0000.0001) //         No. Y exchanges =              0
(PID.TID 0000.0001) //            Max. Y spins =              0
(PID.TID 0000.0001) //            Min. Y spins =     1000000000
(PID.TID 0000.0001) //          Total. Y spins =              0
(PID.TID 0000.0001) //            Avg. Y spins =       0.00E+00
(PID.TID 0000.0001) // o Tile number: 000005
(PID.TID 0000.0001) //         No. X exchanges =              0
(PID.TID 0000.0001) //            Max. X spins =              0
(PID.TID 0000.0001) //            Min. X spins =     1000000000
(PID.TID 0000.0001) //          Total. X spins =              0
(PID.TID 0000.0001) //            Avg. X spins =       0.00E+00
(PID.TID 0000.0001) //         No. Y exchanges =              0
(PID.TID 0000.0001) //            Max. Y spins =              0
(PID.TID 0000.0001) //            Min. Y spins =     1000000000
(PID.TID 0000.0001) //          Total. Y spins =              0
(PID.TID 0000.0001) //            Avg. Y spins =       0.00E+00
(PID.TID 0000.0001) // o Tile number: 000006
(PID.TID 0000.0001) //         No. X exchanges =              0
(PID.TID 0000.0001) //            Max. X spins =              0
(PID.TID 0000.0001) //            Min. X spins =     1000000000
(PID.TID 0000.0001) //          Total. X spins =              0
(PID.TID 0000.0001) //            Avg. X spins =       0.00E+00
(PID.TID 0000.0001) //         No. Y exchanges =              0
(PID.TID 0000.0001) //            Max. Y spins =              0
(PID.TID 0000.0001) //            Min. Y spins =     1000000000
(PID.TID 0000.0001) //          Total. Y spins =              0
(PID.TID 0000.0001) //            Avg. Y spins =       0.00E+00
(PID.TID 0000.0001) // o Tile number: 000007
(PID.TID 0000.0001) //         No. X exchanges =              0
(PID.TID 0000.0001) //            Max. X spins =              0
(PID.TID 0000.0001) //            Min. X spins =     1000000000
(PID.TID 0000.0001) //          Total. X spins =              0
(PID.TID 0000.0001) //            Avg. X spins =       0.00E+00
(PID.TID 0000.0001) //         No. Y exchanges =              0
(PID.TID 0000.0001) //            Max. Y spins =              0
(PID.TID 0000.0001) //            Min. Y spins =     1000000000
(PID.TID 0000.0001) //          Total. Y spins =              0
(PID.TID 0000.0001) //            Avg. Y spins =       0.00E+00
(PID.TID 0000.0001) // o Tile number: 000008
(PID.TID 0000.0001) //         No. X exchanges =              0
(PID.TID 0000.0001) //            Max. X spins =              0
(PID.TID 0000.0001) //            Min. X spins =     1000000000
(PID.TID 0000.0001) //          Total. X spins =              0
(PID.TID 0000.0001) //            Avg. X spins =       0.00E+00
(PID.TID 0000.0001) //         No. Y exchanges =              0
(PID.TID 0000.0001) //            Max. Y spins =              0
(PID.TID 0000.0001) //            Min. Y spins =     1000000000
(PID.TID 0000.0001) //          Total. Y spins =              0
(PID.TID 0000.0001) //            Avg. Y spins =       0.00E+00
(PID.TID 0000.0001) // o Thread number: 000001
(PID.TID 0000.0001) //            No. barriers =         197766
(PID.TID 0000.0001) //      Max. barrier spins =              1
(PID.TID 0000.0001) //      Min. barrier spins =              1
(PID.TID 0000.0001) //     Total barrier spins =         197766
(PID.TID 0000.0001) //      Avg. barrier spins =       1.00E+00
PROGRAM MAIN: Execution ended Normally
