(PID.TID 0000.0001) 
(PID.TID 0000.0001) // ======================================================
(PID.TID 0000.0001) //                      MITgcm UV
(PID.TID 0000.0001) //                      =========
(PID.TID 0000.0001) // ======================================================
(PID.TID 0000.0001) // execution environment starting up...
(PID.TID 0000.0001) 
(PID.TID 0000.0001) // MITgcmUV version:  checkpoint58o_post
(PID.TID 0000.0001) // Build user:        mlosch
(PID.TID 0000.0001) // Build host:        faulks
(PID.TID 0000.0001) // Build date:        Fri Sep  1 12:16:20 EDT 2006
(PID.TID 0000.0001) 
(PID.TID 0000.0001) // =======================================================
(PID.TID 0000.0001) // Execution Environment parameter file "eedata"
(PID.TID 0000.0001) // =======================================================
(PID.TID 0000.0001) ># Example "eedata" file
(PID.TID 0000.0001) ># Lines beginning "#" are comments
(PID.TID 0000.0001) ># nTx - No. threads per process in X
(PID.TID 0000.0001) ># nTy - No. threads per process in Y
(PID.TID 0000.0001) > &EEPARMS
(PID.TID 0000.0001) > &
(PID.TID 0000.0001) ># Note: Some systems use & as the
(PID.TID 0000.0001) ># namelist terminator. Other systems
(PID.TID 0000.0001) ># use a / character (as shown here).
(PID.TID 0000.0001) 
(PID.TID 0000.0001) // =======================================================
(PID.TID 0000.0001) // Computational Grid Specification ( see files "SIZE.h" )
(PID.TID 0000.0001) //                                  ( and "eedata"       )
(PID.TID 0000.0001) // =======================================================
(PID.TID 0000.0001)      nPx =    1 ; /* No. processes in X */
(PID.TID 0000.0001)      nPy =    1 ; /* No. processes in Y */
(PID.TID 0000.0001)      nSx =    2 ; /* No. tiles in X per process */
(PID.TID 0000.0001)      nSy =    1 ; /* No. tiles in Y per process */
(PID.TID 0000.0001)      sNx =   50 ; /* Tile size in X */
(PID.TID 0000.0001)      sNy =   50 ; /* Tile size in Y */
(PID.TID 0000.0001)      OLx =    3 ; /* Tile overlap distance in X */
(PID.TID 0000.0001)      OLy =    3 ; /* Tile overlap distance in Y */
(PID.TID 0000.0001)      nTx =    1 ; /* No. threads in X per process */
(PID.TID 0000.0001)      nTy =    1 ; /* No. threads in Y per process */
(PID.TID 0000.0001)       Nr =   30 ; /* No. levels in the vertical   */
(PID.TID 0000.0001)       nX =  100 ; /* Total domain size in X ( = nPx*nSx*sNx ) */
(PID.TID 0000.0001)       nY =   50 ; /* Total domain size in Y ( = nPy*nSy*sNy ) */
(PID.TID 0000.0001)   nTiles =    2 ; /* Total no. tiles per process ( = nSx*nSy ) */
(PID.TID 0000.0001)   nProcs =    1 ; /* Total no. processes ( = nPx*nPy ) */
(PID.TID 0000.0001) nThreads =    1 ; /* Total no. threads per process ( = nTx*nTy ) */
(PID.TID 0000.0001) usingMPI =    F ; /* Flag used to control whether MPI is in use */
(PID.TID 0000.0001)                   /*  note: To execute a program with MPI calls */
(PID.TID 0000.0001)                   /*  it must be launched appropriately e.g     */
(PID.TID 0000.0001)                   /*  "mpirun -np 64 ......"                    */
(PID.TID 0000.0001) useCoupler=   F ; /* Flag used to control communications with */
(PID.TID 0000.0001)                   /*  other model components, through a coupler */
(PID.TID 0000.0001) 
(PID.TID 0000.0001) // ======================================================
(PID.TID 0000.0001) // Mapping of tiles to threads
(PID.TID 0000.0001) // ======================================================
(PID.TID 0000.0001) // -o- Thread   1, tiles (   1:   2,   1:   1)
(PID.TID 0000.0001) 
(PID.TID 0000.0001) // ======================================================
(PID.TID 0000.0001) // Tile <-> Tile connectvity table
(PID.TID 0000.0001) // ======================================================
(PID.TID 0000.0001) // Tile number: 000001 (process no. = 000001)
(PID.TID 0000.0001) //        WEST: Tile = 000002, Process = 000001, Comm = put
(PID.TID 0000.0001) //                bi = 000002, bj = 000001
(PID.TID 0000.0001) //        EAST: Tile = 000002, Process = 000001, Comm = put
(PID.TID 0000.0001) //                bi = 000002, bj = 000001
(PID.TID 0000.0001) //       SOUTH: Tile = 000001, Process = 000001, Comm = put
(PID.TID 0000.0001) //                bi = 000001, bj = 000001
(PID.TID 0000.0001) //       NORTH: Tile = 000001, Process = 000001, Comm = put
(PID.TID 0000.0001) //                bi = 000001, bj = 000001
(PID.TID 0000.0001) // Tile number: 000002 (process no. = 000001)
(PID.TID 0000.0001) //        WEST: Tile = 000001, Process = 000001, Comm = put
(PID.TID 0000.0001) //                bi = 000001, bj = 000001
(PID.TID 0000.0001) //        EAST: Tile = 000001, Process = 000001, Comm = put
(PID.TID 0000.0001) //                bi = 000001, bj = 000001
(PID.TID 0000.0001) //       SOUTH: Tile = 000002, Process = 000001, Comm = put
(PID.TID 0000.0001) //                bi = 000002, bj = 000001
(PID.TID 0000.0001) //       NORTH: Tile = 000002, Process = 000001, Comm = put
(PID.TID 0000.0001) //                bi = 000002, bj = 000001
(PID.TID 0000.0001) 
(PID.TID 0000.0001) // =======================================================
(PID.TID 0000.0001) // Model parameter file "data"
(PID.TID 0000.0001) // =======================================================
(PID.TID 0000.0001) ># ====================
(PID.TID 0000.0001) ># | Model parameters |
(PID.TID 0000.0001) ># ====================
(PID.TID 0000.0001) >#
(PID.TID 0000.0001) ># Continuous equation parameters
(PID.TID 0000.0001) > &PARM01
(PID.TID 0000.0001) > Tref = 30*-1.9,
(PID.TID 0000.0001) > Sref = 30*34.4,
(PID.TID 0000.0001) > viscAz=1.E-3,
(PID.TID 0000.0001) > viscAh=600.0,
(PID.TID 0000.0001) > no_slip_sides=.FALSE.,
(PID.TID 0000.0001) > diffKhT=100.0,
(PID.TID 0000.0001) > diffKzT=5.E-5,
(PID.TID 0000.0001) > diffKhS=100.0,
(PID.TID 0000.0001) > diffKzS=5.E-5,
(PID.TID 0000.0001) > bottomDragQuadratic=2.5E-3,
(PID.TID 0000.0001) > eosType='JMD95Z',
(PID.TID 0000.0001) > HeatCapacity_cp = 3974.0,
(PID.TID 0000.0001) > rhoConst=1030.,
(PID.TID 0000.0001) > rhoNil=1030.,
(PID.TID 0000.0001) > gravity=9.81,
(PID.TID 0000.0001) > gBaro=9.81,
(PID.TID 0000.0001) > convertFW2Salt = 33.4,
(PID.TID 0000.0001) > rigidLid=.FALSE.,
(PID.TID 0000.0001) > implicitFreeSurface=.TRUE.,
(PID.TID 0000.0001) > exactConserv=.true.,
(PID.TID 0000.0001) > hFacMin=0.05,
(PID.TID 0000.0001) > nonHydrostatic=.false.,
(PID.TID 0000.0001) > readBinaryPrec=64,
(PID.TID 0000.0001) > useCDScheme = .true.,
(PID.TID 0000.0001) > &
(PID.TID 0000.0001) >
(PID.TID 0000.0001) ># Elliptic solver parameters
(PID.TID 0000.0001) > &PARM02
(PID.TID 0000.0001) > cg2dMaxIters=1000,
(PID.TID 0000.0001) > cg2dTargetResidual=1.E-13,
(PID.TID 0000.0001) > cg3dMaxIters=400,
(PID.TID 0000.0001) > cg3dTargetResidual=1.E-13,
(PID.TID 0000.0001) > &
(PID.TID 0000.0001) >
(PID.TID 0000.0001) ># Time stepping parameters
(PID.TID 0000.0001) > &PARM03
(PID.TID 0000.0001) > niter0=0,
(PID.TID 0000.0001) > nTimeSteps=20,
(PID.TID 0000.0001) > deltaT=1800.0,
(PID.TID 0000.0001) > abEps=0.1,
(PID.TID 0000.0001) > cAdjFreq = -1.,
(PID.TID 0000.0001) > tauCD = 400000.,
(PID.TID 0000.0001) > pChkptFreq=0.0,
(PID.TID 0000.0001) > chkptFreq=0.0,
(PID.TID 0000.0001) > dumpFreq=0.0,
(PID.TID 0000.0001) > taveFreq=0.0,
(PID.TID 0000.0001) > monitorFreq=1.,
(PID.TID 0000.0001) > &
(PID.TID 0000.0001) >
(PID.TID 0000.0001) ># Gridding parameters
(PID.TID 0000.0001) > &PARM04
(PID.TID 0000.0001) > usingCartesianGrid=.FALSE.,
(PID.TID 0000.0001) > usingSphericalPolarGrid=.TRUE.,
(PID.TID 0000.0001) > phiMin = -80.0,
(PID.TID 0000.0001) > delX=50*0.3,
(PID.TID 0000.0001) > delY=100*0.1,
(PID.TID 0000.0001) > delZ=30*30.0,
(PID.TID 0000.0001) > &
(PID.TID 0000.0001) >
(PID.TID 0000.0001) ># Input datasets
(PID.TID 0000.0001) > &PARM05
(PID.TID 0000.0001) > bathyFile='bathy.box',
(PID.TID 0000.0001) > shelfIceFile='icetopo.exp1',
(PID.TID 0000.0001) > &
(PID.TID 0000.0001) 
(PID.TID 0000.0001) S/R INI_PARMS ; starts to read PARM01
(PID.TID 0000.0001) S/R INI_PARMS ; read PARM01 : OK
(PID.TID 0000.0001) S/R INI_PARMS ; starts to read PARM02
(PID.TID 0000.0001) S/R INI_PARMS ; read PARM02 : OK
(PID.TID 0000.0001) S/R INI_PARMS ; starts to read PARM03
(PID.TID 0000.0001) S/R INI_PARMS ; read PARM03 : OK
(PID.TID 0000.0001) S/R INI_PARMS ; starts to read PARM04
(PID.TID 0000.0001) S/R INI_PARMS ; read PARM04 : OK
(PID.TID 0000.0001) S/R INI_PARMS ; starts to read PARM05
(PID.TID 0000.0001) S/R INI_PARMS ; read PARM05 : OK
(PID.TID 0000.0001)  PACKAGES_BOOT: opening data.pkg
(PID.TID 0000.0001)  OPEN_COPY_DATA_FILE: opening file data.pkg
(PID.TID 0000.0001) // =======================================================
(PID.TID 0000.0001) // Parameter file "data.pkg"
(PID.TID 0000.0001) // =======================================================
(PID.TID 0000.0001) ># Packages
(PID.TID 0000.0001) > &PACKAGES
(PID.TID 0000.0001) > useMNC=.TRUE.,
(PID.TID 0000.0001) > useShelfIce=.true.,
(PID.TID 0000.0001) > &
(PID.TID 0000.0001) 
(PID.TID 0000.0001)  PACKAGES_BOOT: finished reading data.pkg
(PID.TID 0000.0001)  MNC_READPARMS: opening file 'data.mnc'
(PID.TID 0000.0001)  OPEN_COPY_DATA_FILE: opening file data.mnc
(PID.TID 0000.0001) // =======================================================
(PID.TID 0000.0001) // Parameter file "data.mnc"
(PID.TID 0000.0001) // =======================================================
(PID.TID 0000.0001) ># Example "data.mnc" file
(PID.TID 0000.0001) ># Lines beginning "#" are comments
(PID.TID 0000.0001) > &MNC_01
(PID.TID 0000.0001) ># mnc_echo_gvtypes=.FALSE.,
(PID.TID 0000.0001) ># mnc_use_indir=.FALSE.,
(PID.TID 0000.0001) > mnc_use_outdir=.TRUE.,
(PID.TID 0000.0001) > mnc_outdir_str='mnc_test_',
(PID.TID 0000.0001) >#mnc_outdir_date=.TRUE.,
(PID.TID 0000.0001) > monitor_mnc=.FALSE.,
(PID.TID 0000.0001) > timeave_mnc=.TRUE.,
(PID.TID 0000.0001) > snapshot_mnc=.TRUE.,
(PID.TID 0000.0001) ># pickup_write_mnc=.TRUE.,
(PID.TID 0000.0001) > &
(PID.TID 0000.0001) ># Note: Some systems use & as the
(PID.TID 0000.0001) ># namelist terminator. Other systems
(PID.TID 0000.0001) ># use a / character (as shown here).
(PID.TID 0000.0001) 
(PID.TID 0000.0001)  MNC_READPARMS: finished reading data.mnc
(PID.TID 0000.0001)  SHELFICE_READPARMS: opening data.shelfice
(PID.TID 0000.0001)  OPEN_COPY_DATA_FILE: opening file data.shelfice
(PID.TID 0000.0001) // =======================================================
(PID.TID 0000.0001) // Parameter file "data.shelfice"
(PID.TID 0000.0001) // =======================================================
(PID.TID 0000.0001) ># ===================================
(PID.TID 0000.0001) ># | Parameters for SHELFICE package |
(PID.TID 0000.0001) ># ===================================
(PID.TID 0000.0001) > &SHELFICE_PARM01
(PID.TID 0000.0001) > SHELFICEboundaryLayer = .TRUE.,
(PID.TID 0000.0001) > SHELFICEloadAnomalyFile = 'phi0surf.exp1.jmd95z',
(PID.TID 0000.0001) > no_slip_shelfice = .false.,
(PID.TID 0000.0001) > SHELFICEwriteState = .TRUE.,
(PID.TID 0000.0001) > &
(PID.TID 0000.0001) 
(PID.TID 0000.0001)  SHELFICE_READPARMS: finished reading data.shelfice
(PID.TID 0000.0001) SET_PARMS: done
(PID.TID 0000.0001) %MON XC_max                       =   6.1111216500000E+06
(PID.TID 0000.0001) %MON XC_min                       =   1.5000000002910E-01
(PID.TID 0000.0001) %MON XC_mean                      =   1.5432200000000E+06
(PID.TID 0000.0001) %MON XC_sd                        =   1.9921174461741E+06
(PID.TID 0000.0001) %MON XG_max                       =   6.0493933000000E+06
(PID.TID 0000.0001) %MON XG_min                       =   2.9103830456734E-11
(PID.TID 0000.0001) %MON XG_mean                      =   1.5123557500000E+06
(PID.TID 0000.0001) %MON XG_sd                        =   1.9683050531301E+06
(PID.TID 0000.0001) %MON DXC_max                      =   3.5408766491519E+09
(PID.TID 0000.0001) %MON DXC_min                      =   5.8203914905589E+03
(PID.TID 0000.0001) %MON DXC_mean                     =   1.4849147279623E+09
(PID.TID 0000.0001) %MON DXC_sd                       =   1.4890319566389E+09
(PID.TID 0000.0001) %MON DXF_max                      =   3.5408766491519E+09
(PID.TID 0000.0001) %MON DXF_min                      =   5.8203914905589E+03
(PID.TID 0000.0001) %MON DXF_mean                     =   1.4849147279623E+09
(PID.TID 0000.0001) %MON DXF_sd                       =   1.5039562870742E+09
(PID.TID 0000.0001) %MON DXG_max                      =   3.5293028876676E+09
(PID.TID 0000.0001) %MON DXG_min                      =   5.7917296935586E+03
(PID.TID 0000.0001) %MON DXG_mean                     =   1.4790690403623E+09
(PID.TID 0000.0001) %MON DXG_sd                       =   1.4981922920903E+09
(PID.TID 0000.0001) %MON DXV_max                      =   3.5293028876676E+09
(PID.TID 0000.0001) %MON DXV_min                      =   5.7917296935586E+03
(PID.TID 0000.0001) %MON DXV_mean                     =   1.4790690403623E+09
(PID.TID 0000.0001) %MON DXV_sd                       =   1.4833267023089E+09
(PID.TID 0000.0001) %MON YC_max                       =  -7.5050000000000E+01
(PID.TID 0000.0001) %MON YC_min                       =  -7.9950000000000E+01
(PID.TID 0000.0001) %MON YC_mean                      =  -7.7500000000000E+01
(PID.TID 0000.0001) %MON YC_sd                        =   1.4430869689661E+00
(PID.TID 0000.0001) %MON YG_max                       =  -7.5100000000000E+01
(PID.TID 0000.0001) %MON YG_min                       =  -8.0000000000000E+01
(PID.TID 0000.0001) %MON YG_mean                      =  -7.7550000000000E+01
(PID.TID 0000.0001) %MON YG_sd                        =   1.4430869689661E+00
(PID.TID 0000.0001) %MON DYC_max                      =   1.1117747335204E+04
(PID.TID 0000.0001) %MON DYC_min                      =   1.1117747335204E+04
(PID.TID 0000.0001) %MON DYC_mean                     =   1.1117747335203E+04
(PID.TID 0000.0001) %MON DYC_sd                       =   6.0754246078432E-10
(PID.TID 0000.0001) %MON DYF_max                      =   1.1117747335204E+04
(PID.TID 0000.0001) %MON DYF_min                      =   1.1117747335204E+04
(PID.TID 0000.0001) %MON DYF_mean                     =   1.1117747335203E+04
(PID.TID 0000.0001) %MON DYF_sd                       =   6.0754246078432E-10
(PID.TID 0000.0001) %MON DYG_max                      =   1.1117747335204E+04
(PID.TID 0000.0001) %MON DYG_min                      =   1.1117747335204E+04
(PID.TID 0000.0001) %MON DYG_mean                     =   1.1117747335203E+04
(PID.TID 0000.0001) %MON DYG_sd                       =   6.0754246078432E-10
(PID.TID 0000.0001) %MON DYU_max                      =   1.1117747335204E+04
(PID.TID 0000.0001) %MON DYU_min                      =   1.1117747335204E+04
(PID.TID 0000.0001) %MON DYU_mean                     =   1.1117747335203E+04
(PID.TID 0000.0001) %MON DYU_sd                       =   6.0754246078432E-10
(PID.TID 0000.0001) %MON RA_max                       =   3.9366566933838E+13
(PID.TID 0000.0001) %MON RA_min                       =   6.4709633770803E+07
(PID.TID 0000.0001) %MON RA_mean                      =   1.6508904664432E+13
(PID.TID 0000.0001) %MON RA_sd                        =   1.6720603880636E+13
(PID.TID 0000.0001) %MON RAW_max                      =   3.9366566933838E+13
(PID.TID 0000.0001) %MON RAW_min                      =   6.4709633770803E+07
(PID.TID 0000.0001) %MON RAW_mean                     =   1.6508904664432E+13
(PID.TID 0000.0001) %MON RAW_sd                       =   1.6554678966769E+13
(PID.TID 0000.0001) %MON RAS_max                      =   3.9237892794260E+13
(PID.TID 0000.0001) %MON RAS_min                      =   6.4390979194019E+07
(PID.TID 0000.0001) %MON RAS_mean                     =   1.6443913794943E+13
(PID.TID 0000.0001) %MON RAS_sd                       =   1.6656521248898E+13
(PID.TID 0000.0001) %MON RAZ_max                      =   3.9237892794260E+13
(PID.TID 0000.0001) %MON RAZ_min                      =   6.4390979194019E+07
(PID.TID 0000.0001) %MON RAZ_mean                     =   1.6443913794943E+13
(PID.TID 0000.0001) %MON RAZ_sd                       =   1.6491249398697E+13
(PID.TID 0000.0001) %MON AngleCS_max                  =   1.0000000000000E+00
(PID.TID 0000.0001) %MON AngleCS_min                  =   1.0000000000000E+00
(PID.TID 0000.0001) %MON AngleCS_mean                 =   1.0000000000000E+00
(PID.TID 0000.0001) %MON AngleCS_sd                   =   0.0000000000000E+00
(PID.TID 0000.0001) %MON AngleSN_max                  =   0.0000000000000E+00
(PID.TID 0000.0001) %MON AngleSN_min                  =   0.0000000000000E+00
(PID.TID 0000.0001) %MON AngleSN_mean                 =   0.0000000000000E+00
(PID.TID 0000.0001) %MON AngleSN_sd                   =   0.0000000000000E+00
(PID.TID 0000.0001)  MDSREADFIELD: opening global file: bathy.box
(PID.TID 0000.0001) // =======================================================
(PID.TID 0000.0001) // Field Bottom depths (ini_depths) at iteration          1
(PID.TID 0000.0001) // CMIN =         -9.000000000000000E+02
(PID.TID 0000.0001) // CMAX =         -9.000000000000000E+02
(PID.TID 0000.0001) // CINT =          0.000000000000000E+00
(PID.TID 0000.0001) // SYMBOLS (CMIN->CMAX): -abcdefghijklmnopqrstuvwxyz+
(PID.TID 0000.0001) //                  0.0: .
(PID.TID 0000.0001) // RANGE I (Lo:Hi:Step):(  -2: 103:   1)
(PID.TID 0000.0001) // RANGE J (Lo:Hi:Step):(  53:  -2:  -1)
(PID.TID 0000.0001) // RANGE K (Lo:Hi:Step):(   1:   1:   1)
(PID.TID 0000.0001) // =======================================================
(PID.TID 0000.0001) // =======================================================
(PID.TID 0000.0001) // END OF FIELD                                          =
(PID.TID 0000.0001) // =======================================================
(PID.TID 0000.0001) 
(PID.TID 0000.0001)  MDSREADFIELD: opening global file: icetopo.exp1
(PID.TID 0000.0001) // =======================================================
(PID.TID 0000.0001) // Field Model R_low (ini_masks_etc) at iteration          1
(PID.TID 0000.0001) // CMIN =         -9.000000000000000E+02
(PID.TID 0000.0001) // CMAX =         -9.000000000000000E+02
(PID.TID 0000.0001) // CINT =          0.000000000000000E+00
(PID.TID 0000.0001) // SYMBOLS (CMIN->CMAX): -abcdefghijklmnopqrstuvwxyz+
(PID.TID 0000.0001) //                  0.0: .
(PID.TID 0000.0001) // RANGE I (Lo:Hi:Step):(  -2: 103:   1)
(PID.TID 0000.0001) // RANGE J (Lo:Hi:Step):(  53:  -2:  -1)
(PID.TID 0000.0001) // RANGE K (Lo:Hi:Step):(   1:   1:   1)
(PID.TID 0000.0001) // =======================================================
(PID.TID 0000.0001) // =======================================================
(PID.TID 0000.0001) // END OF FIELD                                          =
(PID.TID 0000.0001) // =======================================================
(PID.TID 0000.0001) 
(PID.TID 0000.0001) // =======================================================
(PID.TID 0000.0001) // Field Model Ro_surf (ini_masks_etc) at iteration          1
(PID.TID 0000.0001) // CMIN =         -6.812500000000010E+02
(PID.TID 0000.0001) // CMAX =         -2.000000000000000E+02
(PID.TID 0000.0001) // CINT =          1.782407407407411E+01
(PID.TID 0000.0001) // SYMBOLS (CMIN->CMAX): -abcdefghijklmnopqrstuvwxyz+
(PID.TID 0000.0001) //                  0.0: .
(PID.TID 0000.0001) // RANGE I (Lo:Hi:Step):(  -2: 103:   1)
(PID.TID 0000.0001) // RANGE J (Lo:Hi:Step):(  53:  -2:  -1)
(PID.TID 0000.0001) // RANGE K (Lo:Hi:Step):(   1:   1:   1)
(PID.TID 0000.0001) // =======================================================
(PID.TID 0000.0001) K =   1
(PID.TID 0000.0001) //                I=7       I=17      I=27      I=37      I=47      I=51      I=61      I=71      I=81      I=91      I=101
(PID.TID 0000.0001) // |--J--|**0123456|890123456|890123456|890123456|890123456|890123890|234567890|234567890|234567890|234567890|234567890|23
(PID.TID 0000.0001) //     53 ccc.bbbbbbbbbbbbbbbbbbbbbbbbbbbbbbbbbbbbbbbbbbbbbbbbb.ccbbb.ccccccccccccccccccccccccccccccccccccccccccccccccc.bb
(PID.TID 0000.0001) //     52 aaa.aaaaaaaaaaaaaaaaaaaaaaaaaaaaaaaaaaaaaaaaaaaaaaaaa.aaaaa.aaaaaaaaaaaaaaaaaaaaaaaaaaaaaaaaaaaaaaaaaaaaaaaaa.aa
(PID.TID 0000.0001) //     51 ---...................................................--....-------------------------------------------------...
(PID.TID 0000.0001) //     50 +++.+++++++++++++++++++++++++++++++++++++++++++++++++.+++++.+++++++++++++++++++++++++++++++++++++++++++++++++.++
(PID.TID 0000.0001) //     49 +++.+++++++++++++++++++++++++++++++++++++++++++++++++.+++++.+++++++++++++++++++++++++++++++++++++++++++++++++.++
(PID.TID 0000.0001) //     48 +++.+++++++++++++++++++++++++++++++++++++++++++++++++.+++++.+++++++++++++++++++++++++++++++++++++++++++++++++.++
(PID.TID 0000.0001) //     47 +++.+++++++++++++++++++++++++++++++++++++++++++++++++.+++++.+++++++++++++++++++++++++++++++++++++++++++++++++.++
(PID.TID 0000.0001) //     46 +++.+++++++++++++++++++++++++++++++++++++++++++++++++.+++++.+++++++++++++++++++++++++++++++++++++++++++++++++.++
(PID.TID 0000.0001) //     45 +++.+++++++++++++++++++++++++++++++++++++++++++++++++.+++++.+++++++++++++++++++++++++++++++++++++++++++++++++.++
(PID.TID 0000.0001) //     44 +++.+++++++++++++++++++++++++++++++++++++++++++++++++.+++++.+++++++++++++++++++++++++++++++++++++++++++++++++.++
(PID.TID 0000.0001) //     43 +++.+++++++++++++++++++++++++++++++++++++++++++++++++.+++++.+++++++++++++++++++++++++++++++++++++++++++++++++.++
(PID.TID 0000.0001) //     42 +++.+++++++++++++++++++++++++++++++++++++++++++++++++.+++++.+++++++++++++++++++++++++++++++++++++++++++++++++.++
(PID.TID 0000.0001) //     41 +++.+++++++++++++++++++++++++++++++++++++++++++++++++.+++++.+++++++++++++++++++++++++++++++++++++++++++++++++.++
(PID.TID 0000.0001) //     40 +++.+++++++++++++++++++++++++++++++++++++++++++++++++.+++++.+++++++++++++++++++++++++++++++++++++++++++++++++.++
(PID.TID 0000.0001) //     39 +++.+++++++++++++++++++++++++++++++++++++++++++++++++.+++++.+++++++++++++++++++++++++++++++++++++++++++++++++.++
(PID.TID 0000.0001) //     38 +++.+++++++++++++++++++++++++++++++++++++++++++++++++.+++++.+++++++++++++++++++++++++++++++++++++++++++++++++.++
(PID.TID 0000.0001) //     37 +++.+++++++++++++++++++++++++++++++++++++++++++++++++.+++++.+++++++++++++++++++++++++++++++++++++++++++++++++.++
(PID.TID 0000.0001) //     36 +++.+++++++++++++++++++++++++++++++++++++++++++++++++.+++++.+++++++++++++++++++++++++++++++++++++++++++++++++.++
(PID.TID 0000.0001) //     35 +++.+++++++++++++++++++++++++++++++++++++++++++++++++.+++++.+++++++++++++++++++++++++++++++++++++++++++++++++.++
(PID.TID 0000.0001) //     34 +++.+++++++++++++++++++++++++++++++++++++++++++++++++.+++++.+++++++++++++++++++++++++++++++++++++++++++++++++.++
(PID.TID 0000.0001) //     33 +++.+++++++++++++++++++++++++++++++++++++++++++++++++.+++++.+++++++++++++++++++++++++++++++++++++++++++++++++.++
(PID.TID 0000.0001) //     32 +++.+++++++++++++++++++++++++++++++++++++++++++++++++.+++++.+++++++++++++++++++++++++++++++++++++++++++++++++.++
(PID.TID 0000.0001) //     31 +++.+++++++++++++++++++++++++++++++++++++++++++++++++.+++++.+++++++++++++++++++++++++++++++++++++++++++++++++.++
(PID.TID 0000.0001) //     30 +++.+++++++++++++++++++++++++++++++++++++++++++++++++.+++++.+++++++++++++++++++++++++++++++++++++++++++++++++.++
(PID.TID 0000.0001) //     29 +++.+++++++++++++++++++++++++++++++++++++++++++++++++.+++++.+++++++++++++++++++++++++++++++++++++++++++++++++.++
(PID.TID 0000.0001) //     28 +++.+++++++++++++++++++++++++++++++++++++++++++++++++.+++++.+++++++++++++++++++++++++++++++++++++++++++++++++.++
(PID.TID 0000.0001) //     27 +++.+++++++++++++++++++++++++++++++++++++++++++++++++.+++++.+++++++++++++++++++++++++++++++++++++++++++++++++.++
(PID.TID 0000.0001) //     26 +++.+++++++++++++++++++++++++++++++++++++++++++++++++.+++++.+++++++++++++++++++++++++++++++++++++++++++++++++.++
(PID.TID 0000.0001) //     25 +++.+++++++++++++++++++++++++++++++++++++++++++++++++.+++++.+++++++++++++++++++++++++++++++++++++++++++++++++.++
(PID.TID 0000.0001) //     24 +++.+++++++++++++++++++++++++++++++++++++++++++++++++.+++++.+++++++++++++++++++++++++++++++++++++++++++++++++.++
(PID.TID 0000.0001) //     23 +++.+++++++++++++++++++++++++++++++++++++++++++++++++.+++++.+++++++++++++++++++++++++++++++++++++++++++++++++.++
(PID.TID 0000.0001) //     22 +++.+++++++++++++++++++++++++++++++++++++++++++++++++.+++++.+++++++++++++++++++++++++++++++++++++++++++++++++.++
(PID.TID 0000.0001) //     21 +++.+++++++++++++++++++++++++++++++++++++++++++++++++.+++++.+++++++++++++++++++++++++++++++++++++++++++++++++.++
(PID.TID 0000.0001) //     20 +++.zzzzzzzzzzzzzzzzzzzzzzzzzzzzzzzzzzzzzzzzzzzzzzzzz.++zzz.+++++++++++++++++++++++++++++++++++++++++++++++++.zz
(PID.TID 0000.0001) //     19 yyy.yyyyyyyyyyyyyyyyyyyyyyyyyyyyyyyyyyyyyyyyyyyyyyyyy.yyyyy.yyyyyyyyyyyyyyyyyyyyyyyyyyyyyyyyyyyyyyyyyyyyyyyyy.yy
(PID.TID 0000.0001) //     18 xxx.wwwwwwwwwwwwwwwwwwwwwwwwwwwwwwwwwwwwwwwwwwwwwwwww.xxwww.xxxxxxxxxxxxxxxxxxxxxxxxxxxxxxxxxxxxxxxxxxxxxxxxx.ww
(PID.TID 0000.0001) //     17 vvv.vvvvvvvvvvvvvvvvvvvvvvvvvvvvvvvvvvvvvvvvvvvvvvvvv.vvvvv.vvvvvvvvvvvvvvvvvvvvvvvvvvvvvvvvvvvvvvvvvvvvvvvvv.vv
(PID.TID 0000.0001) //     16 uuu.ttttttttttttttttttttttttttttttttttttttttttttttttt.uuttt.uuuuuuuuuuuuuuuuuuuuuuuuuuuuuuuuuuuuuuuuuuuuuuuuu.tt
(PID.TID 0000.0001) //     15 ttt.sssssssssssssssssssssssssssssssssssssssssssssssss.ttsss.ttttttttttttttttttttttttttttttttttttttttttttttttt.ss
(PID.TID 0000.0001) //     14 rrr.rrrrrrrrrrrrrrrrrrrrrrrrrrrrrrrrrrrrrrrrrrrrrrrrr.rrrrr.rrrrrrrrrrrrrrrrrrrrrrrrrrrrrrrrrrrrrrrrrrrrrrrrr.rr
(PID.TID 0000.0001) //     13 qqq.ppppppppppppppppppppppppppppppppppppppppppppppppp.qqppp.qqqqqqqqqqqqqqqqqqqqqqqqqqqqqqqqqqqqqqqqqqqqqqqqq.pp
(PID.TID 0000.0001) //     12 ooo.ooooooooooooooooooooooooooooooooooooooooooooooooo.ooooo.ooooooooooooooooooooooooooooooooooooooooooooooooo.oo
(PID.TID 0000.0001) //     11 nnn.mmmmmmmmmmmmmmmmmmmmmmmmmmmmmmmmmmmmmmmmmmmmmmmmm.nnmmm.nnnnnnnnnnnnnnnnnnnnnnnnnnnnnnnnnnnnnnnnnnnnnnnnn.mm
(PID.TID 0000.0001) //     10 mmm.lllllllllllllllllllllllllllllllllllllllllllllllll.mmlll.mmmmmmmmmmmmmmmmmmmmmmmmmmmmmmmmmmmmmmmmmmmmmmmmm.ll
(PID.TID 0000.0001) //      9 kkk.kkkkkkkkkkkkkkkkkkkkkkkkkkkkkkkkkkkkkkkkkkkkkkkkk.kkkkk.kkkkkkkkkkkkkkkkkkkkkkkkkkkkkkkkkkkkkkkkkkkkkkkkk.kk
(PID.TID 0000.0001) //      8 jjj.iiiiiiiiiiiiiiiiiiiiiiiiiiiiiiiiiiiiiiiiiiiiiiiii.jjiii.jjjjjjjjjjjjjjjjjjjjjjjjjjjjjjjjjjjjjjjjjjjjjjjjj.ii
(PID.TID 0000.0001) //      7 hhh.hhhhhhhhhhhhhhhhhhhhhhhhhhhhhhhhhhhhhhhhhhhhhhhhh.hhhhh.hhhhhhhhhhhhhhhhhhhhhhhhhhhhhhhhhhhhhhhhhhhhhhhhh.hh
(PID.TID 0000.0001) //      6 ggg.fffffffffffffffffffffffffffffffffffffffffffffffff.ggfff.ggggggggggggggggggggggggggggggggggggggggggggggggg.ff
(PID.TID 0000.0001) //      5 fff.eeeeeeeeeeeeeeeeeeeeeeeeeeeeeeeeeeeeeeeeeeeeeeeee.ffeee.fffffffffffffffffffffffffffffffffffffffffffffffff.ee
(PID.TID 0000.0001) //      4 ddd.ddddddddddddddddddddddddddddddddddddddddddddddddd.ddddd.ddddddddddddddddddddddddddddddddddddddddddddddddd.dd
(PID.TID 0000.0001) //      3 ccc.bbbbbbbbbbbbbbbbbbbbbbbbbbbbbbbbbbbbbbbbbbbbbbbbb.ccbbb.ccccccccccccccccccccccccccccccccccccccccccccccccc.bb
(PID.TID 0000.0001) //      2 aaa.aaaaaaaaaaaaaaaaaaaaaaaaaaaaaaaaaaaaaaaaaaaaaaaaa.aaaaa.aaaaaaaaaaaaaaaaaaaaaaaaaaaaaaaaaaaaaaaaaaaaaaaaa.aa
(PID.TID 0000.0001) //      1 ---...................................................--....-------------------------------------------------...
(PID.TID 0000.0001) //      0 +++.+++++++++++++++++++++++++++++++++++++++++++++++++.+++++.+++++++++++++++++++++++++++++++++++++++++++++++++.++
(PID.TID 0000.0001) //     -1 +++.+++++++++++++++++++++++++++++++++++++++++++++++++.+++++.+++++++++++++++++++++++++++++++++++++++++++++++++.++
(PID.TID 0000.0001) //     -2 +++.+++++++++++++++++++++++++++++++++++++++++++++++++.+++++.+++++++++++++++++++++++++++++++++++++++++++++++++.++
(PID.TID 0000.0001) // =======================================================
(PID.TID 0000.0001) // END OF FIELD                                          =
(PID.TID 0000.0001) // =======================================================
(PID.TID 0000.0001) 
(PID.TID 0000.0001) // =======================================================
(PID.TID 0000.0001) // Field hFacC at iteration          1
(PID.TID 0000.0001) // CMIN =          1.000000000000000E+32
(PID.TID 0000.0001) // CMAX =         -1.000000000000000E+32
(PID.TID 0000.0001) // CINT =          0.000000000000000E+00
(PID.TID 0000.0001) // SYMBOLS (CMIN->CMAX): -abcdefghijklmnopqrstuvwxyz+
(PID.TID 0000.0001) //                  0.0: .
(PID.TID 0000.0001) // RANGE I (Lo:Hi:Step):(  -2: 103:   1)
(PID.TID 0000.0001) // RANGE J (Lo:Hi:Step):(  53:  -2:  -1)
(PID.TID 0000.0001) // RANGE K (Lo:Hi:Step):(   1:   1:   1)
(PID.TID 0000.0001) // =======================================================
(PID.TID 0000.0001) // =======================================================
(PID.TID 0000.0001) // END OF FIELD                                          =
(PID.TID 0000.0001) // =======================================================
(PID.TID 0000.0001) 
(PID.TID 0000.0001) // =======================================================
(PID.TID 0000.0001) // Field hFacW at iteration          1
(PID.TID 0000.0001) // CMIN =          1.000000000000000E+32
(PID.TID 0000.0001) // CMAX =         -1.000000000000000E+32
(PID.TID 0000.0001) // CINT =          0.000000000000000E+00
(PID.TID 0000.0001) // SYMBOLS (CMIN->CMAX): -abcdefghijklmnopqrstuvwxyz+
(PID.TID 0000.0001) //                  0.0: .
(PID.TID 0000.0001) // RANGE I (Lo:Hi:Step):(  -2: 103:   1)
(PID.TID 0000.0001) // RANGE J (Lo:Hi:Step):(  53:  -2:  -1)
(PID.TID 0000.0001) // RANGE K (Lo:Hi:Step):(   1:   1:   1)
(PID.TID 0000.0001) // =======================================================
(PID.TID 0000.0001) // =======================================================
(PID.TID 0000.0001) // END OF FIELD                                          =
(PID.TID 0000.0001) // =======================================================
(PID.TID 0000.0001) 
(PID.TID 0000.0001) // =======================================================
(PID.TID 0000.0001) // Field hFacS at iteration          1
(PID.TID 0000.0001) // CMIN =          1.000000000000000E+32
(PID.TID 0000.0001) // CMAX =         -1.000000000000000E+32
(PID.TID 0000.0001) // CINT =          0.000000000000000E+00
(PID.TID 0000.0001) // SYMBOLS (CMIN->CMAX): -abcdefghijklmnopqrstuvwxyz+
(PID.TID 0000.0001) //                  0.0: .
(PID.TID 0000.0001) // RANGE I (Lo:Hi:Step):(  -2: 103:   1)
(PID.TID 0000.0001) // RANGE J (Lo:Hi:Step):(  53:  -2:  -1)
(PID.TID 0000.0001) // RANGE K (Lo:Hi:Step):(   1:   1:   1)
(PID.TID 0000.0001) // =======================================================
(PID.TID 0000.0001) // =======================================================
(PID.TID 0000.0001) // END OF FIELD                                          =
(PID.TID 0000.0001) // =======================================================
(PID.TID 0000.0001) 
(PID.TID 0000.0001) 
(PID.TID 0000.0001) // ===================================
(PID.TID 0000.0001) // GAD parameters :
(PID.TID 0000.0001) // ===================================
(PID.TID 0000.0001) tempAdvScheme =   /* Temp. Horiz.Advection scheme selector */
(PID.TID 0000.0001)                       2
(PID.TID 0000.0001)     ;
(PID.TID 0000.0001) tempVertAdvScheme =   /* Temp. Vert. Advection scheme selector */
(PID.TID 0000.0001)                       2
(PID.TID 0000.0001)     ;
(PID.TID 0000.0001) tempMultiDimAdvec =   /* use Muti-Dim Advec method for Temp */
(PID.TID 0000.0001)                   F
(PID.TID 0000.0001)     ;
(PID.TID 0000.0001) AdamsBashforthGt =   /* apply Adams-Bashforth extrapolation on Gt */
(PID.TID 0000.0001)                   T
(PID.TID 0000.0001)     ;
(PID.TID 0000.0001) AdamsBashforth_T =   /* apply Adams-Bashforth extrapolation on Temp */
(PID.TID 0000.0001)                   F
(PID.TID 0000.0001)     ;
(PID.TID 0000.0001) saltAdvScheme =   /* Salt. Horiz.advection scheme selector */
(PID.TID 0000.0001)                       2
(PID.TID 0000.0001)     ;
(PID.TID 0000.0001) saltVertAdvScheme =   /* Salt. Vert. Advection scheme selector */
(PID.TID 0000.0001)                       2
(PID.TID 0000.0001)     ;
(PID.TID 0000.0001) saltMultiDimAdvec =   /* use Muti-Dim Advec method for Salt */
(PID.TID 0000.0001)                   F
(PID.TID 0000.0001)     ;
(PID.TID 0000.0001) AdamsBashforthGs =   /* apply Adams-Bashforth extrapolation on Gs */
(PID.TID 0000.0001)                   T
(PID.TID 0000.0001)     ;
(PID.TID 0000.0001) AdamsBashforth_S =   /* apply Adams-Bashforth extrapolation on Salt */
(PID.TID 0000.0001)                   F
(PID.TID 0000.0001)     ;
(PID.TID 0000.0001) // ===================================
(PID.TID 0000.0001)  MDSREADFIELD: opening global file: phi0surf.exp1.jmd95z
(PID.TID 0000.0001) SHELFICE_CHECK: #define ALLOW_SHELFICE
(PID.TID 0000.0001) %MON fCori_max                    =  -1.4090589533125E-04
(PID.TID 0000.0001) %MON fCori_min                    =  -1.4360464034757E-04
(PID.TID 0000.0001) %MON fCori_mean                   =  -1.4234026353695E-04
(PID.TID 0000.0001) %MON fCori_sd                     =   7.9591601685730E-07
(PID.TID 0000.0001) %MON fCoriG_max                   =  -1.4093867468552E-04
(PID.TID 0000.0001) %MON fCoriG_min                   =  -1.4362679550910E-04
(PID.TID 0000.0001) %MON fCoriG_mean                  =  -1.4236774720617E-04
(PID.TID 0000.0001) %MON fCoriG_sd                    =   7.9279119301235E-07
(PID.TID 0000.0001) %MON fCoriCos_max                 =   3.7623859660001E-05
(PID.TID 0000.0001) %MON fCoriCos_min                 =   2.5450607565678E-05
(PID.TID 0000.0001) %MON fCoriCos_mean                =   3.1556076705329E-05
(PID.TID 0000.0001) %MON fCoriCos_sd                  =   3.5855364610352E-06
(PID.TID 0000.0001) INI_CG2D: CG2D normalisation factor =  4.5001794118170657E-09
(PID.TID 0000.0001) 
(PID.TID 0000.0001) CONFIG_CHECK: OK
(PID.TID 0000.0001) // =======================================================
(PID.TID 0000.0001) // Model configuration
(PID.TID 0000.0001) // =======================================================
(PID.TID 0000.0001) //
(PID.TID 0000.0001) // "Physical" paramters ( PARM01 in namelist )
(PID.TID 0000.0001) //
(PID.TID 0000.0001) buoyancyRelation = OCEANIC
(PID.TID 0000.0001) fluidIsAir  =  /* fluid major constituent is Air */
(PID.TID 0000.0001)                   F
(PID.TID 0000.0001)     ;
(PID.TID 0000.0001) fluidIsWater=  /* fuild major constituent is Water */
(PID.TID 0000.0001)                   T
(PID.TID 0000.0001)     ;
(PID.TID 0000.0001) usingPCoords =  /* use p (or p*) vertical coordinate */
(PID.TID 0000.0001)                   F
(PID.TID 0000.0001)     ;
(PID.TID 0000.0001) usingZCoords =  /* use z (or z*) vertical coordinate */
(PID.TID 0000.0001)                   T
(PID.TID 0000.0001)     ;
(PID.TID 0000.0001) tRef =   /* Reference temperature profile ( oC or K ) */
(PID.TID 0000.0001)    30 @ -1.900000000000000E+00              /* K =  1: 30 */
(PID.TID 0000.0001)     ;
(PID.TID 0000.0001) sRef =   /* Reference salinity profile ( psu ) */
(PID.TID 0000.0001)    30 @  3.440000000000000E+01              /* K =  1: 30 */
(PID.TID 0000.0001)     ;
(PID.TID 0000.0001) viscAh =   /* Lateral eddy viscosity ( m^2/s ) */
(PID.TID 0000.0001)                 6.000000000000000E+02
(PID.TID 0000.0001)     ;
(PID.TID 0000.0001) viscAhMax =   /* Maximum lateral eddy viscosity ( m^2/s ) */
(PID.TID 0000.0001)                 1.000000000000000E+21
(PID.TID 0000.0001)     ;
(PID.TID 0000.0001) viscAhGrid =   /* Grid dependent lateral eddy viscosity ( non-dim. ) */
(PID.TID 0000.0001)                 0.000000000000000E+00
(PID.TID 0000.0001)     ;
(PID.TID 0000.0001) useFullLeith =   /* Use Full Form of Leith Viscosity on/off flag*/
(PID.TID 0000.0001)                   F
(PID.TID 0000.0001)     ;
(PID.TID 0000.0001) useStrainTensionVisc =   /* Use StrainTension Form of Viscous Operator on/off flag*/
(PID.TID 0000.0001)                   F
(PID.TID 0000.0001)     ;
(PID.TID 0000.0001) useAreaViscLength =   /* Use area for visc length instead of geom. mean*/
(PID.TID 0000.0001)                   F
(PID.TID 0000.0001)     ;
(PID.TID 0000.0001) viscC2leith = /* Leith harmonic visc. factor (on grad(vort),non-dim.) */
(PID.TID 0000.0001)                 0.000000000000000E+00
(PID.TID 0000.0001)     ;
(PID.TID 0000.0001) viscC2leithD = /* Leith harmonic viscosity factor (on grad(div),non-dim.) */
(PID.TID 0000.0001)                 0.000000000000000E+00
(PID.TID 0000.0001)     ;
(PID.TID 0000.0001) viscC2smag =   /* Smagorinsky harmonic viscosity factor (non-dim.) */
(PID.TID 0000.0001)                 0.000000000000000E+00
(PID.TID 0000.0001)     ;
(PID.TID 0000.0001) viscA4 =   /* Lateral biharmonic viscosity ( m^4/s ) */
(PID.TID 0000.0001)                 0.000000000000000E+00
(PID.TID 0000.0001)     ;
(PID.TID 0000.0001) viscA4Max =   /* Maximum biharmonic viscosity ( m^2/s ) */
(PID.TID 0000.0001)                 1.000000000000000E+21
(PID.TID 0000.0001)     ;
(PID.TID 0000.0001) viscA4Grid =   /* Grid dependent biharmonic viscosity ( non-dim. ) */
(PID.TID 0000.0001)                 0.000000000000000E+00
(PID.TID 0000.0001)     ;
(PID.TID 0000.0001) viscC4leith = /* Leith biharm viscosity factor (on grad(vort), non-dim.) */
(PID.TID 0000.0001)                 0.000000000000000E+00
(PID.TID 0000.0001)     ;
(PID.TID 0000.0001) viscC4leithD = /* Leith biharm viscosity factor (on grad(div), non-dim.) */
(PID.TID 0000.0001)                 0.000000000000000E+00
(PID.TID 0000.0001)     ;
(PID.TID 0000.0001) viscC4Smag = /* Smagorinsky biharm viscosity factor (non-dim) */
(PID.TID 0000.0001)                 0.000000000000000E+00
(PID.TID 0000.0001)     ;
(PID.TID 0000.0001) no_slip_sides =  /* Viscous BCs: No-slip sides */
(PID.TID 0000.0001)                   F
(PID.TID 0000.0001)     ;
(PID.TID 0000.0001) sideDragFactor = /* side-drag scaling factor (non-dim) */
(PID.TID 0000.0001)                 2.000000000000000E+00
(PID.TID 0000.0001)     ;
(PID.TID 0000.0001) viscAr =   /* Vertical eddy viscosity ( units of r^2/s ) */
(PID.TID 0000.0001)                 1.000000000000000E-03
(PID.TID 0000.0001)     ;
(PID.TID 0000.0001) no_slip_bottom =  /* Viscous BCs: No-slip bottom */
(PID.TID 0000.0001)                   T
(PID.TID 0000.0001)     ;
(PID.TID 0000.0001) bottomDragLinear = /* linear bottom-drag coefficient ( 1/s ) */
(PID.TID 0000.0001)                 0.000000000000000E+00
(PID.TID 0000.0001)     ;
(PID.TID 0000.0001) bottomDragQuadratic = /* quadratic bottom-drag coeff. ( 1/m ) */
(PID.TID 0000.0001)                 2.500000000000000E-03
(PID.TID 0000.0001)     ;
(PID.TID 0000.0001) diffKhT =   /* Laplacian diffusion of heat laterally ( m^2/s ) */
(PID.TID 0000.0001)                 1.000000000000000E+02
(PID.TID 0000.0001)     ;
(PID.TID 0000.0001) diffK4T =   /* Bihaarmonic diffusion of heat laterally ( m^4/s ) */
(PID.TID 0000.0001)                 0.000000000000000E+00
(PID.TID 0000.0001)     ;
(PID.TID 0000.0001) diffKhS =   /* Laplacian diffusion of salt laterally ( m^2/s ) */
(PID.TID 0000.0001)                 1.000000000000000E+02
(PID.TID 0000.0001)     ;
(PID.TID 0000.0001) diffK4S =   /* Bihaarmonic diffusion of salt laterally ( m^4/s ) */
(PID.TID 0000.0001)                 0.000000000000000E+00
(PID.TID 0000.0001)     ;
(PID.TID 0000.0001) diffKrNrT = /* vertical profile of vertical diffusion of Temp ( m^2/s )*/
(PID.TID 0000.0001)    30 @  5.000000000000000E-05              /* K =  1: 30 */
(PID.TID 0000.0001)     ;
(PID.TID 0000.0001) diffKrNrS = /* vertical profile of vertical diffusion of Salt ( m^2/s )*/
(PID.TID 0000.0001)    30 @  5.000000000000000E-05              /* K =  1: 30 */
(PID.TID 0000.0001)     ;
(PID.TID 0000.0001) diffKrBL79surf =   /* Surface diffusion for Bryan and Lewis 1979 ( m^2/s ) */
(PID.TID 0000.0001)                 0.000000000000000E+00
(PID.TID 0000.0001)     ;
(PID.TID 0000.0001) diffKrBL79deep =   /* Deep diffusion for Bryan and Lewis 1979 ( m^2/s ) */
(PID.TID 0000.0001)                 0.000000000000000E+00
(PID.TID 0000.0001)     ;
(PID.TID 0000.0001) diffKrBL79scl =   /* Depth scale for Bryan and Lewis 1979 ( m ) */
(PID.TID 0000.0001)                 2.000000000000000E+02
(PID.TID 0000.0001)     ;
(PID.TID 0000.0001) diffKrBL79Ho =   /* Turning depth for Bryan and Lewis 1979 ( m ) */
(PID.TID 0000.0001)                -2.000000000000000E+03
(PID.TID 0000.0001)     ;
(PID.TID 0000.0001) Equation of State : eosType = JMD95Z ;
(PID.TID 0000.0001) tAlpha =   /* Linear EOS thermal expansion coefficient ( 1/oC ) */
(PID.TID 0000.0001)                 1.234567000000000E+05
(PID.TID 0000.0001)     ;
(PID.TID 0000.0001) sBeta =   /* Linear EOS haline contraction coefficient ( 1/psu ) */
(PID.TID 0000.0001)                 1.234567000000000E+05
(PID.TID 0000.0001)     ;
(PID.TID 0000.0001) rhonil =   /* Reference density ( kg/m^3 ) */
(PID.TID 0000.0001)                 1.030000000000000E+03
(PID.TID 0000.0001)     ;
(PID.TID 0000.0001) rhoConst =   /* Reference density ( kg/m^3 ) */
(PID.TID 0000.0001)                 1.030000000000000E+03
(PID.TID 0000.0001)     ;
(PID.TID 0000.0001) rhoConstFresh =   /* Reference density ( kg/m^3 ) */
(PID.TID 0000.0001)                 1.030000000000000E+03
(PID.TID 0000.0001)     ;
(PID.TID 0000.0001) gravity =   /* Gravitational acceleration ( m/s^2 ) */
(PID.TID 0000.0001)                 9.810000000000000E+00
(PID.TID 0000.0001)     ;
(PID.TID 0000.0001) gBaro =   /* Barotropic gravity ( m/s^2 ) */
(PID.TID 0000.0001)                 9.810000000000000E+00
(PID.TID 0000.0001)     ;
(PID.TID 0000.0001) rotationPeriod =   /* Rotation Period ( s ) */
(PID.TID 0000.0001)                 8.616400000000000E+04
(PID.TID 0000.0001)     ;
(PID.TID 0000.0001) omega =   /* Angular velocity ( rad/s ) */
(PID.TID 0000.0001)                 7.292123516990375E-05
(PID.TID 0000.0001)     ;
(PID.TID 0000.0001) f0 =   /* Reference coriolis parameter ( 1/s ) */
(PID.TID 0000.0001)                 1.000000000000000E-04
(PID.TID 0000.0001)     ;
(PID.TID 0000.0001) beta =   /* Beta ( 1/(m.s) ) */
(PID.TID 0000.0001)                 9.999999999999999E-12
(PID.TID 0000.0001)     ;
(PID.TID 0000.0001) freeSurfFac =   /* Implicit free surface factor */
(PID.TID 0000.0001)                 1.000000000000000E+00
(PID.TID 0000.0001)     ;
(PID.TID 0000.0001) implicitFreeSurface =   /* Implicit free surface on/off flag */
(PID.TID 0000.0001)                   T
(PID.TID 0000.0001)     ;
(PID.TID 0000.0001) rigidLid =   /* Rigid lid on/off flag */
(PID.TID 0000.0001)                   F
(PID.TID 0000.0001)     ;
(PID.TID 0000.0001) implicSurfPress =   /* Surface Pressure implicit factor (0-1)*/
(PID.TID 0000.0001)                 1.000000000000000E+00
(PID.TID 0000.0001)     ;
(PID.TID 0000.0001) implicDiv2Dflow =   /* Barot. Flow Div. implicit factor (0-1)*/
(PID.TID 0000.0001)                 1.000000000000000E+00
(PID.TID 0000.0001)     ;
(PID.TID 0000.0001) exactConserv =   /* Exact Volume Conservation on/off flag*/
(PID.TID 0000.0001)                   T
(PID.TID 0000.0001)     ;
(PID.TID 0000.0001) uniformLin_PhiSurf =   /* use uniform Bo_surf on/off flag*/
(PID.TID 0000.0001)                   T
(PID.TID 0000.0001)     ;
(PID.TID 0000.0001) nonlinFreeSurf =   /* Non-linear Free Surf. options (-1,0,1,2,3)*/
(PID.TID 0000.0001)                       0
(PID.TID 0000.0001)     ;
(PID.TID 0000.0001)      -1,0= Off ; 1,2,3= On, 2=+rescale gU,gV, 3=+update cg2d solv.
(PID.TID 0000.0001) hFacInf =   /* lower threshold for hFac (nonlinFreeSurf only)*/
(PID.TID 0000.0001)                 2.000000000000000E-01
(PID.TID 0000.0001)     ;
(PID.TID 0000.0001) hFacSup =   /* upper threshold for hFac (nonlinFreeSurf only)*/
(PID.TID 0000.0001)                 2.000000000000000E+00
(PID.TID 0000.0001)     ;
(PID.TID 0000.0001) select_rStar =   /* r* Coordinate options (not yet implemented)*/
(PID.TID 0000.0001)                       0
(PID.TID 0000.0001)     ;
(PID.TID 0000.0001) useRealFreshWaterFlux =   /* Real Fresh Water Flux on/off flag*/
(PID.TID 0000.0001)                   F
(PID.TID 0000.0001)     ;
(PID.TID 0000.0001) convertFW2Salt = /* convert F.W. Flux to Salt Flux (-1=use local S)(ppt)*/
(PID.TID 0000.0001)                 3.340000000000000E+01
(PID.TID 0000.0001)     ;
(PID.TID 0000.0001) use3Dsolver = /* use 3-D pressure solver on/off flag */
(PID.TID 0000.0001)                   F
(PID.TID 0000.0001)     ;
(PID.TID 0000.0001) nonHydrostatic =  /* Non-Hydrostatic on/off flag */
(PID.TID 0000.0001)                   F
(PID.TID 0000.0001)     ;
(PID.TID 0000.0001) nh_Am2 = /* Non-Hydrostatic terms scaling factor */
(PID.TID 0000.0001)                 1.000000000000000E+00
(PID.TID 0000.0001)     ;
(PID.TID 0000.0001) quasiHydrostatic = /* Quasi-Hydrostatic on/off flag */
(PID.TID 0000.0001)                   F
(PID.TID 0000.0001)     ;
(PID.TID 0000.0001) momStepping =  /* Momentum equation on/off flag */
(PID.TID 0000.0001)                   T
(PID.TID 0000.0001)     ;
(PID.TID 0000.0001) vectorInvariantMomentum= /* Vector-Invariant Momentum on/off */
(PID.TID 0000.0001)                   F
(PID.TID 0000.0001)     ;
(PID.TID 0000.0001) momAdvection =  /* Momentum advection on/off flag */
(PID.TID 0000.0001)                   T
(PID.TID 0000.0001)     ;
(PID.TID 0000.0001) momViscosity =  /* Momentum viscosity on/off flag */
(PID.TID 0000.0001)                   T
(PID.TID 0000.0001)     ;
(PID.TID 0000.0001) momImplVertAdv =/* Momentum implicit vert. advection on/off*/
(PID.TID 0000.0001)                   F
(PID.TID 0000.0001)     ;
(PID.TID 0000.0001) implicitViscosity = /* Implicit viscosity on/off flag */
(PID.TID 0000.0001)                   F
(PID.TID 0000.0001)     ;
(PID.TID 0000.0001) metricTerms =  /* metric-Terms on/off flag */
(PID.TID 0000.0001)                   T
(PID.TID 0000.0001)     ;
(PID.TID 0000.0001) useNHMTerms = /* Non-Hydrostatic Metric-Terms on/off */
(PID.TID 0000.0001)                   F
(PID.TID 0000.0001)     ;
(PID.TID 0000.0001) useConstantF =  /* use Constant f0 Coriolis flag */
(PID.TID 0000.0001)                   F
(PID.TID 0000.0001)     ;
(PID.TID 0000.0001) useBetaPlaneF = /* use Beta-Plane Coriolis flag */
(PID.TID 0000.0001)                   F
(PID.TID 0000.0001)     ;
(PID.TID 0000.0001) useSphereF  =   /* use Spherical Coriolis flag */
(PID.TID 0000.0001)                   T
(PID.TID 0000.0001)     ;
(PID.TID 0000.0001) use3dCoriolis = /* 3-D Coriolis on/off flag */
(PID.TID 0000.0001)                   F
(PID.TID 0000.0001)     ;
(PID.TID 0000.0001) useCoriolis =  /* Coriolis on/off flag */
(PID.TID 0000.0001)                   T
(PID.TID 0000.0001)     ;
(PID.TID 0000.0001) useCDscheme =  /* CD scheme on/off flag */
(PID.TID 0000.0001)                   T
(PID.TID 0000.0001)     ;
(PID.TID 0000.0001) useJamartWetPoints= /* Coriolis WetPoints method flag */
(PID.TID 0000.0001)                   F
(PID.TID 0000.0001)     ;
(PID.TID 0000.0001) useJamartMomAdv= /* V.I. Non-linear terms Jamart flag */
(PID.TID 0000.0001)                   F
(PID.TID 0000.0001)     ;
(PID.TID 0000.0001) SadournyCoriolis= /* Sadourny Coriolis discr. flag */
(PID.TID 0000.0001)                   F
(PID.TID 0000.0001)     ;
(PID.TID 0000.0001) upwindVorticity= /* Upwind bias vorticity flag */
(PID.TID 0000.0001)                   F
(PID.TID 0000.0001)     ;
(PID.TID 0000.0001) useAbsVorticity= /* Work with f+zeta in Coriolis */
(PID.TID 0000.0001)                   F
(PID.TID 0000.0001)     ;
(PID.TID 0000.0001) highOrderVorticity= /* High order interp. of vort. flag */
(PID.TID 0000.0001)                   F
(PID.TID 0000.0001)     ;
(PID.TID 0000.0001) upwindShear= /* Upwind vertical Shear advection flag */
(PID.TID 0000.0001)                   F
(PID.TID 0000.0001)     ;
(PID.TID 0000.0001) selectKEscheme= /* Kinetic Energy scheme selector */
(PID.TID 0000.0001)                       0
(PID.TID 0000.0001)     ;
(PID.TID 0000.0001) momForcing =  /* Momentum forcing on/off flag */
(PID.TID 0000.0001)                   T
(PID.TID 0000.0001)     ;
(PID.TID 0000.0001) momPressureForcing =  /* Momentum pressure term on/off flag */
(PID.TID 0000.0001)                   T
(PID.TID 0000.0001)     ;
(PID.TID 0000.0001) implicitIntGravWave= /* Implicit Internal Gravity Wave flag */
(PID.TID 0000.0001)                   F
(PID.TID 0000.0001)     ;
(PID.TID 0000.0001) staggerTimeStep =   /* Stagger time stepping on/off flag */
(PID.TID 0000.0001)                   F
(PID.TID 0000.0001)     ;
(PID.TID 0000.0001) multiDimAdvection =   /* enable/disable Multi-Dim Advection */
(PID.TID 0000.0001)                   T
(PID.TID 0000.0001)     ;
(PID.TID 0000.0001) useMultiDimAdvec =   /* Multi-Dim Advection is/is-not used */
(PID.TID 0000.0001)                   F
(PID.TID 0000.0001)     ;
(PID.TID 0000.0001) implicitDiffusion =/* Implicit Diffusion on/off flag */
(PID.TID 0000.0001)                   F
(PID.TID 0000.0001)     ;
(PID.TID 0000.0001) tempStepping =  /* Temperature equation on/off flag */
(PID.TID 0000.0001)                   T
(PID.TID 0000.0001)     ;
(PID.TID 0000.0001) tempAdvection=  /* Temperature advection on/off flag */
(PID.TID 0000.0001)                   T
(PID.TID 0000.0001)     ;
(PID.TID 0000.0001) tempImplVertAdv =/* Temp. implicit vert. advection on/off */
(PID.TID 0000.0001)                   F
(PID.TID 0000.0001)     ;
(PID.TID 0000.0001) tempForcing  =  /* Temperature forcing on/off flag */
(PID.TID 0000.0001)                   T
(PID.TID 0000.0001)     ;
(PID.TID 0000.0001) saltStepping =  /* Salinity equation on/off flag */
(PID.TID 0000.0001)                   T
(PID.TID 0000.0001)     ;
(PID.TID 0000.0001) saltAdvection=  /* Salinity advection on/off flag */
(PID.TID 0000.0001)                   T
(PID.TID 0000.0001)     ;
(PID.TID 0000.0001) saltImplVertAdv =/* Sali. implicit vert. advection on/off */
(PID.TID 0000.0001)                   F
(PID.TID 0000.0001)     ;
(PID.TID 0000.0001) saltForcing  =  /* Salinity forcing on/off flag */
(PID.TID 0000.0001)                   T
(PID.TID 0000.0001)     ;
(PID.TID 0000.0001)  readBinaryPrec = /* Precision used for reading binary files */
(PID.TID 0000.0001)                      64
(PID.TID 0000.0001)     ;
(PID.TID 0000.0001) writeBinaryPrec = /* Precision used for writing binary files */
(PID.TID 0000.0001)                      32
(PID.TID 0000.0001)     ;
(PID.TID 0000.0001)  globalFiles = /* write "global" (=not per tile) files */
(PID.TID 0000.0001)                   F
(PID.TID 0000.0001)     ;
(PID.TID 0000.0001)  useSingleCpuIO = /* only master MPI process does I/O */
(PID.TID 0000.0001)                   F
(PID.TID 0000.0001)     ;
(PID.TID 0000.0001)  debugMode  =  /* Debug Mode on/off flag */
(PID.TID 0000.0001)                   F
(PID.TID 0000.0001)     ;
(PID.TID 0000.0001)    debLevA  =  /* 1rst level of debugging */
(PID.TID 0000.0001)                       1
(PID.TID 0000.0001)     ;
(PID.TID 0000.0001)    debLevB  =  /* 2nd  level of debugging */
(PID.TID 0000.0001)                       2
(PID.TID 0000.0001)     ;
(PID.TID 0000.0001)  debugLevel =  /* select debugging level */
(PID.TID 0000.0001)                       1
(PID.TID 0000.0001)     ;
(PID.TID 0000.0001) //
(PID.TID 0000.0001) // Elliptic solver(s) paramters ( PARM02 in namelist )
(PID.TID 0000.0001) //
(PID.TID 0000.0001) cg2dMaxIters =   /* Upper limit on 2d con. grad iterations  */
(PID.TID 0000.0001)                    1000
(PID.TID 0000.0001)     ;
(PID.TID 0000.0001) cg2dChkResFreq =   /* 2d con. grad convergence test frequency */
(PID.TID 0000.0001)                       1
(PID.TID 0000.0001)     ;
(PID.TID 0000.0001) cg2dTargetResidual =   /* 2d con. grad target residual  */
(PID.TID 0000.0001)                 1.000000000000000E-13
(PID.TID 0000.0001)     ;
(PID.TID 0000.0001) cg2dTargetResWunit =   /* CG2d target residual [W units] */
(PID.TID 0000.0001)                -1.000000000000000E+00
(PID.TID 0000.0001)     ;
(PID.TID 0000.0001) cg2dPreCondFreq =   /* Freq. for updating cg2d preconditioner */
(PID.TID 0000.0001)                       1
(PID.TID 0000.0001)     ;
(PID.TID 0000.0001) //
(PID.TID 0000.0001) // Time stepping paramters ( PARM03 in namelist )
(PID.TID 0000.0001) //
(PID.TID 0000.0001) nIter0 =   /* Run starting timestep number  */
(PID.TID 0000.0001)                       0
(PID.TID 0000.0001)     ;
(PID.TID 0000.0001) nTimeSteps =   /* Number of timesteps */
(PID.TID 0000.0001)                      20
(PID.TID 0000.0001)     ;
(PID.TID 0000.0001) deltaTmom =   /* Momentum equation timestep ( s ) */
(PID.TID 0000.0001)                 1.800000000000000E+03
(PID.TID 0000.0001)     ;
(PID.TID 0000.0001) deltaTfreesurf =   /* FreeSurface equation timestep ( s ) */
(PID.TID 0000.0001)                 1.800000000000000E+03
(PID.TID 0000.0001)     ;
(PID.TID 0000.0001) dTtracerLev =   /* Tracer equation timestep ( s ) */
(PID.TID 0000.0001)    30 @  1.800000000000000E+03              /* K =  1: 30 */
(PID.TID 0000.0001)     ;
(PID.TID 0000.0001) deltaTClock  =   /* Model clock timestep ( s ) */
(PID.TID 0000.0001)                 1.800000000000000E+03
(PID.TID 0000.0001)     ;
(PID.TID 0000.0001) cAdjFreq =   /* Convective adjustment interval ( s ) */
(PID.TID 0000.0001)                 1.800000000000000E+03
(PID.TID 0000.0001)     ;
(PID.TID 0000.0001) momForcingOutAB = /* =1: take Momentum Forcing out of Adams-Bash. stepping */
(PID.TID 0000.0001)                       0
(PID.TID 0000.0001)     ;
(PID.TID 0000.0001) tracForcingOutAB = /* =1: take T,S,pTr Forcing out of Adams-Bash. stepping */
(PID.TID 0000.0001)                       0
(PID.TID 0000.0001)     ;
(PID.TID 0000.0001) momDissip_In_AB = /* put Dissipation Tendency in Adams-Bash. stepping */
(PID.TID 0000.0001)                   T
(PID.TID 0000.0001)     ;
(PID.TID 0000.0001) doAB_onGtGs = /* apply AB on Tendencies (rather than on T,S)*/
(PID.TID 0000.0001)                   T
(PID.TID 0000.0001)     ;
(PID.TID 0000.0001) abEps =   /* Adams-Bashforth-2 stabilizing weight */
(PID.TID 0000.0001)                 1.000000000000000E-01
(PID.TID 0000.0001)     ;
(PID.TID 0000.0001) tauCD =   /* CD coupling time-scale ( s ) */
(PID.TID 0000.0001)                 4.000000000000000E+05
(PID.TID 0000.0001)     ;
(PID.TID 0000.0001) rCD =   /* Normalised CD coupling parameter */
(PID.TID 0000.0001)                 9.955000000000001E-01
(PID.TID 0000.0001)     ;
(PID.TID 0000.0001) baseTime =   /* Model base time ( s ). */
(PID.TID 0000.0001)                 0.000000000000000E+00
(PID.TID 0000.0001)     ;
(PID.TID 0000.0001) startTime =   /* Run start time ( s ). */
(PID.TID 0000.0001)                 0.000000000000000E+00
(PID.TID 0000.0001)     ;
(PID.TID 0000.0001) endTime =   /* Integration ending time ( s ). */
(PID.TID 0000.0001)                 3.600000000000000E+04
(PID.TID 0000.0001)     ;
(PID.TID 0000.0001) pChkPtFreq =   /* Permanent restart/checkpoint file interval ( s ). */
(PID.TID 0000.0001)                 0.000000000000000E+00
(PID.TID 0000.0001)     ;
(PID.TID 0000.0001) chkPtFreq =   /* Rolling restart/checkpoint file interval ( s ). */
(PID.TID 0000.0001)                 0.000000000000000E+00
(PID.TID 0000.0001)     ;
(PID.TID 0000.0001) pickup_write_mdsio =   /* Model IO flag. */
(PID.TID 0000.0001)                   F
(PID.TID 0000.0001)     ;
(PID.TID 0000.0001) pickup_read_mdsio =   /* Model IO flag. */
(PID.TID 0000.0001)                   F
(PID.TID 0000.0001)     ;
(PID.TID 0000.0001) pickup_write_mnc =   /* Model IO flag. */
(PID.TID 0000.0001)                   T
(PID.TID 0000.0001)     ;
(PID.TID 0000.0001) pickup_read_mnc =   /* Model IO flag. */
(PID.TID 0000.0001)                   T
(PID.TID 0000.0001)     ;
(PID.TID 0000.0001) pickup_write_immed =   /* Model IO flag. */
(PID.TID 0000.0001)                   F
(PID.TID 0000.0001)     ;
(PID.TID 0000.0001) dumpFreq =   /* Model state write out interval ( s ). */
(PID.TID 0000.0001)                 0.000000000000000E+00
(PID.TID 0000.0001)     ;
(PID.TID 0000.0001) dumpInitAndLast= /* write out Initial & Last iter. model state */
(PID.TID 0000.0001)                   T
(PID.TID 0000.0001)     ;
(PID.TID 0000.0001) snapshot_mdsio =   /* Model IO flag. */
(PID.TID 0000.0001)                   F
(PID.TID 0000.0001)     ;
(PID.TID 0000.0001) snapshot_mnc =   /* Model IO flag. */
(PID.TID 0000.0001)                   T
(PID.TID 0000.0001)     ;
(PID.TID 0000.0001) monitorFreq =   /* Monitor output interval ( s ). */
(PID.TID 0000.0001)                 1.000000000000000E+00
(PID.TID 0000.0001)     ;
(PID.TID 0000.0001) monitor_stdio =   /* Model IO flag. */
(PID.TID 0000.0001)                   T
(PID.TID 0000.0001)     ;
(PID.TID 0000.0001) monitor_mnc =   /* Model IO flag. */
(PID.TID 0000.0001)                   F
(PID.TID 0000.0001)     ;
(PID.TID 0000.0001) externForcingPeriod =   /* forcing period (s) */
(PID.TID 0000.0001)                 0.000000000000000E+00
(PID.TID 0000.0001)     ;
(PID.TID 0000.0001) externForcingCycle =   /* period of the cyle (s). */
(PID.TID 0000.0001)                 0.000000000000000E+00
(PID.TID 0000.0001)     ;
(PID.TID 0000.0001) tauThetaClimRelax =   /* relaxation time scale (s) */
(PID.TID 0000.0001)                 0.000000000000000E+00
(PID.TID 0000.0001)     ;
(PID.TID 0000.0001) tauSaltClimRelax =   /* relaxation time scale (s) */
(PID.TID 0000.0001)                 0.000000000000000E+00
(PID.TID 0000.0001)     ;
(PID.TID 0000.0001) latBandClimRelax =   /* max. Lat. where relaxation */
(PID.TID 0000.0001)                 1.800000000000000E+02
(PID.TID 0000.0001)     ;
(PID.TID 0000.0001) //
(PID.TID 0000.0001) // Gridding paramters ( PARM04 in namelist )
(PID.TID 0000.0001) //
(PID.TID 0000.0001) usingCartesianGrid =   /* Cartesian coordinates flag ( True / False ) */
(PID.TID 0000.0001)                   F
(PID.TID 0000.0001)     ;
(PID.TID 0000.0001) usingSphericalPolarGrid =   /* Spherical coordinates flag ( True / False ) */
(PID.TID 0000.0001)                   T
(PID.TID 0000.0001)     ;
(PID.TID 0000.0001) usingCylindricalGrid =   /* Spherical coordinates flag ( True / False ) */
(PID.TID 0000.0001)                   F
(PID.TID 0000.0001)     ;
(PID.TID 0000.0001) Ro_SeaLevel =   /* r(1) ( units of r ) */
(PID.TID 0000.0001)                 0.000000000000000E+00
(PID.TID 0000.0001)     ;
(PID.TID 0000.0001) rkSign =   /* index orientation relative to vertical coordinate */
(PID.TID 0000.0001)                -1.000000000000000E+00
(PID.TID 0000.0001)     ;
(PID.TID 0000.0001) horiVertRatio =   /* Ratio on units : Horiz - Vertical */
(PID.TID 0000.0001)                 1.000000000000000E+00
(PID.TID 0000.0001)     ;
(PID.TID 0000.0001) drC =   /* C spacing ( units of r ) */
(PID.TID 0000.0001)                 1.500000000000000E+01,      /* K =  1 */
(PID.TID 0000.0001)    29 @  3.000000000000000E+01              /* K =  2: 30 */
(PID.TID 0000.0001)     ;
(PID.TID 0000.0001) drF =   /* W spacing ( units of r ) */
(PID.TID 0000.0001)    30 @  3.000000000000000E+01              /* K =  1: 30 */
(PID.TID 0000.0001)     ;
(PID.TID 0000.0001) delX =   /* U spacing ( m - cartesian, degrees - spherical ) */
(PID.TID 0000.0001)    50 @  3.000000000000000E-01,             /* I =  1: 50 */
(PID.TID 0000.0001)    50 @  1.234567000000000E+05              /* I = 51:100 */
(PID.TID 0000.0001)     ;
(PID.TID 0000.0001) delY =   /* V spacing ( m - cartesian, degrees - spherical ) */
(PID.TID 0000.0001)    50 @  1.000000000000000E-01              /* J =  1: 50 */
(PID.TID 0000.0001)     ;
(PID.TID 0000.0001) phiMin =    /* South edge (ignored - cartesian, degrees - spherical ) */
(PID.TID 0000.0001)                -8.000000000000000E+01
(PID.TID 0000.0001)     ;
(PID.TID 0000.0001) thetaMin =    /* West edge ( ignored - cartesian, degrees - spherical ) */
(PID.TID 0000.0001)                 0.000000000000000E+00
(PID.TID 0000.0001)     ;
(PID.TID 0000.0001) rSphere =    /* Radius ( ignored - cartesian, m - spherical ) */
(PID.TID 0000.0001)                 6.370000000000000E+06
(PID.TID 0000.0001)     ;
(PID.TID 0000.0001) xcoord =   /* P-point X coord ( m - cartesian, degrees - spherical ) */
(PID.TID 0000.0001)                 1.500000000291038E-01,      /* I =  1 */
(PID.TID 0000.0001)                 4.500000000291038E-01,      /* I =  2 */
(PID.TID 0000.0001)                 7.500000000291038E-01,      /* I =  3 */
(PID.TID 0000.0001)                 1.050000000029104E+00,      /* I =  4 */
(PID.TID 0000.0001)                 1.350000000029104E+00,      /* I =  5 */
(PID.TID 0000.0001)                 1.650000000029104E+00,      /* I =  6 */
(PID.TID 0000.0001)                 1.950000000029104E+00,      /* I =  7 */
(PID.TID 0000.0001)                 2.250000000029104E+00,      /* I =  8 */
(PID.TID 0000.0001)                 2.550000000029104E+00,      /* I =  9 */
(PID.TID 0000.0001)                 2.850000000029103E+00,      /* I = 10 */
(PID.TID 0000.0001)                 3.150000000029103E+00,      /* I = 11 */
(PID.TID 0000.0001)                 3.450000000029103E+00,      /* I = 12 */
(PID.TID 0000.0001)                 3.750000000029103E+00,      /* I = 13 */
(PID.TID 0000.0001)                 4.050000000029103E+00,      /* I = 14 */
(PID.TID 0000.0001)                 4.350000000029103E+00,      /* I = 15 */
(PID.TID 0000.0001)                 4.650000000029102E+00,      /* I = 16 */
(PID.TID 0000.0001)                 4.950000000029103E+00,      /* I = 17 */
(PID.TID 0000.0001)                 5.250000000029102E+00,      /* I = 18 */
(PID.TID 0000.0001)                 5.550000000029103E+00,      /* I = 19 */
(PID.TID 0000.0001)                 5.850000000029102E+00,      /* I = 20 */
(PID.TID 0000.0001)                 6.150000000029102E+00,      /* I = 21 */
(PID.TID 0000.0001)                 6.450000000029101E+00,      /* I = 22 */
(PID.TID 0000.0001)                 6.750000000029102E+00,      /* I = 23 */
(PID.TID 0000.0001)                 7.050000000029101E+00,      /* I = 24 */
(PID.TID 0000.0001)                 7.350000000029101E+00,      /* I = 25 */
(PID.TID 0000.0001)                 7.650000000029101E+00,      /* I = 26 */
(PID.TID 0000.0001)                 7.950000000029101E+00,      /* I = 27 */
(PID.TID 0000.0001)                 8.250000000029102E+00,      /* I = 28 */
(PID.TID 0000.0001)                 8.550000000029103E+00,      /* I = 29 */
(PID.TID 0000.0001)                 8.850000000029103E+00,      /* I = 30 */
(PID.TID 0000.0001)                 9.150000000029104E+00,      /* I = 31 */
(PID.TID 0000.0001)                 9.450000000029105E+00,      /* I = 32 */
(PID.TID 0000.0001)                 9.750000000029106E+00,      /* I = 33 */
(PID.TID 0000.0001)                 1.005000000002911E+01,      /* I = 34 */
(PID.TID 0000.0001)                 1.035000000002911E+01,      /* I = 35 */
(PID.TID 0000.0001)                 1.065000000002911E+01,      /* I = 36 */
(PID.TID 0000.0001)                 1.095000000002911E+01,      /* I = 37 */
(PID.TID 0000.0001)                 1.125000000002911E+01,      /* I = 38 */
(PID.TID 0000.0001)                 1.155000000002911E+01,      /* I = 39 */
(PID.TID 0000.0001)                 1.185000000002911E+01,      /* I = 40 */
(PID.TID 0000.0001)                 1.215000000002911E+01,      /* I = 41 */
(PID.TID 0000.0001)                 1.245000000002911E+01,      /* I = 42 */
(PID.TID 0000.0001)                 1.275000000002911E+01,      /* I = 43 */
(PID.TID 0000.0001)                 1.305000000002911E+01,      /* I = 44 */
(PID.TID 0000.0001)                 1.335000000002912E+01,      /* I = 45 */
(PID.TID 0000.0001)                 1.365000000002911E+01,      /* I = 46 */
(PID.TID 0000.0001)                 1.395000000002911E+01,      /* I = 47 */
(PID.TID 0000.0001)                 1.425000000002912E+01,      /* I = 48 */
(PID.TID 0000.0001)                 1.455000000002912E+01,      /* I = 49 */
(PID.TID 0000.0001)                 1.485000000002912E+01,      /* I = 50 */
(PID.TID 0000.0001)                 6.174335000000000E+04,      /* I = 51 */
(PID.TID 0000.0001)                 1.852000500000000E+05,      /* I = 52 */
(PID.TID 0000.0001)                 3.086567500000000E+05,      /* I = 53 */
(PID.TID 0000.0001)                 4.321134500000000E+05,      /* I = 54 */
(PID.TID 0000.0001)                 5.555701500000000E+05,      /* I = 55 */
(PID.TID 0000.0001)                 6.790268500000000E+05,      /* I = 56 */
(PID.TID 0000.0001)                 8.024835499999999E+05,      /* I = 57 */
(PID.TID 0000.0001)                 9.259402499999998E+05,      /* I = 58 */
(PID.TID 0000.0001)                 1.049396950000000E+06,      /* I = 59 */
(PID.TID 0000.0001)                 1.172853650000000E+06,      /* I = 60 */
(PID.TID 0000.0001)                 1.296310350000000E+06,      /* I = 61 */
(PID.TID 0000.0001)                 1.419767050000000E+06,      /* I = 62 */
(PID.TID 0000.0001)                 1.543223750000000E+06,      /* I = 63 */
(PID.TID 0000.0001)                 1.666680450000000E+06,      /* I = 64 */
(PID.TID 0000.0001)                 1.790137149999999E+06,      /* I = 65 */
(PID.TID 0000.0001)                 1.913593850000000E+06,      /* I = 66 */
(PID.TID 0000.0001)                 2.037050549999999E+06,      /* I = 67 */
(PID.TID 0000.0001)                 2.160507250000000E+06,      /* I = 68 */
(PID.TID 0000.0001)                 2.283963950000000E+06,      /* I = 69 */
(PID.TID 0000.0001)                 2.407420650000000E+06,      /* I = 70 */
(PID.TID 0000.0001)                 2.530877350000000E+06,      /* I = 71 */
(PID.TID 0000.0001)                 2.654334050000000E+06,      /* I = 72 */
(PID.TID 0000.0001)                 2.777790750000000E+06,      /* I = 73 */
(PID.TID 0000.0001)                 2.901247450000001E+06,      /* I = 74 */
(PID.TID 0000.0001)                 3.024704150000000E+06,      /* I = 75 */
(PID.TID 0000.0001)                 3.148160850000001E+06,      /* I = 76 */
(PID.TID 0000.0001)                 3.271617550000002E+06,      /* I = 77 */
(PID.TID 0000.0001)                 3.395074250000001E+06,      /* I = 78 */
(PID.TID 0000.0001)                 3.518530950000001E+06,      /* I = 79 */
(PID.TID 0000.0001)                 3.641987650000002E+06,      /* I = 80 */
(PID.TID 0000.0001)                 3.765444350000002E+06,      /* I = 81 */
(PID.TID 0000.0001)                 3.888901050000002E+06,      /* I = 82 */
(PID.TID 0000.0001)                 4.012357750000002E+06,      /* I = 83 */
(PID.TID 0000.0001)                 4.135814450000003E+06,      /* I = 84 */
(PID.TID 0000.0001)                 4.259271150000002E+06,      /* I = 85 */
(PID.TID 0000.0001)                 4.382727850000003E+06,      /* I = 86 */
(PID.TID 0000.0001)                 4.506184550000003E+06,      /* I = 87 */
(PID.TID 0000.0001)                 4.629641250000004E+06,      /* I = 88 */
(PID.TID 0000.0001)                 4.753097950000003E+06,      /* I = 89 */
(PID.TID 0000.0001)                 4.876554650000004E+06,      /* I = 90 */
(PID.TID 0000.0001)                 5.000011350000003E+06,      /* I = 91 */
(PID.TID 0000.0001)                 5.123468050000004E+06,      /* I = 92 */
(PID.TID 0000.0001)                 5.246924750000004E+06,      /* I = 93 */
(PID.TID 0000.0001)                 5.370381450000005E+06,      /* I = 94 */
(PID.TID 0000.0001)                 5.493838150000004E+06,      /* I = 95 */
(PID.TID 0000.0001)                 5.617294850000005E+06,      /* I = 96 */
(PID.TID 0000.0001)                 5.740751550000004E+06,      /* I = 97 */
(PID.TID 0000.0001)                 5.864208250000006E+06,      /* I = 98 */
(PID.TID 0000.0001)                 5.987664950000005E+06,      /* I = 99 */
(PID.TID 0000.0001)                 6.111121650000006E+06       /* I =100 */
(PID.TID 0000.0001)     ;
(PID.TID 0000.0001) ycoord =   /* P-point Y coord ( m - cartesian, degrees - spherical ) */
(PID.TID 0000.0001)                -7.995000000000000E+01,      /* J =  1 */
(PID.TID 0000.0001)                -7.985000000000001E+01,      /* J =  2 */
(PID.TID 0000.0001)                -7.975000000000001E+01,      /* J =  3 */
(PID.TID 0000.0001)                -7.965000000000002E+01,      /* J =  4 */
(PID.TID 0000.0001)                -7.955000000000003E+01,      /* J =  5 */
(PID.TID 0000.0001)                -7.945000000000003E+01,      /* J =  6 */
(PID.TID 0000.0001)                -7.935000000000004E+01,      /* J =  7 */
(PID.TID 0000.0001)                -7.925000000000004E+01,      /* J =  8 */
(PID.TID 0000.0001)                -7.915000000000005E+01,      /* J =  9 */
(PID.TID 0000.0001)                -7.905000000000005E+01,      /* J = 10 */
(PID.TID 0000.0001)                -7.895000000000006E+01,      /* J = 11 */
(PID.TID 0000.0001)                -7.885000000000007E+01,      /* J = 12 */
(PID.TID 0000.0001)                -7.875000000000007E+01,      /* J = 13 */
(PID.TID 0000.0001)                -7.865000000000008E+01,      /* J = 14 */
(PID.TID 0000.0001)                -7.855000000000008E+01,      /* J = 15 */
(PID.TID 0000.0001)                -7.845000000000009E+01,      /* J = 16 */
(PID.TID 0000.0001)                -7.835000000000009E+01,      /* J = 17 */
(PID.TID 0000.0001)                -7.825000000000010E+01,      /* J = 18 */
(PID.TID 0000.0001)                -7.815000000000011E+01,      /* J = 19 */
(PID.TID 0000.0001)                -7.805000000000011E+01,      /* J = 20 */
(PID.TID 0000.0001)                -7.795000000000012E+01,      /* J = 21 */
(PID.TID 0000.0001)                -7.785000000000012E+01,      /* J = 22 */
(PID.TID 0000.0001)                -7.775000000000013E+01,      /* J = 23 */
(PID.TID 0000.0001)                -7.765000000000013E+01,      /* J = 24 */
(PID.TID 0000.0001)                -7.755000000000014E+01,      /* J = 25 */
(PID.TID 0000.0001)                -7.745000000000014E+01,      /* J = 26 */
(PID.TID 0000.0001)                -7.735000000000015E+01,      /* J = 27 */
(PID.TID 0000.0001)                -7.725000000000016E+01,      /* J = 28 */
(PID.TID 0000.0001)                -7.715000000000016E+01,      /* J = 29 */
(PID.TID 0000.0001)                -7.705000000000017E+01,      /* J = 30 */
(PID.TID 0000.0001)                -7.695000000000017E+01,      /* J = 31 */
(PID.TID 0000.0001)                -7.685000000000018E+01,      /* J = 32 */
(PID.TID 0000.0001)                -7.675000000000018E+01,      /* J = 33 */
(PID.TID 0000.0001)                -7.665000000000019E+01,      /* J = 34 */
(PID.TID 0000.0001)                -7.655000000000020E+01,      /* J = 35 */
(PID.TID 0000.0001)                -7.645000000000020E+01,      /* J = 36 */
(PID.TID 0000.0001)                -7.635000000000021E+01,      /* J = 37 */
(PID.TID 0000.0001)                -7.625000000000021E+01,      /* J = 38 */
(PID.TID 0000.0001)                -7.615000000000022E+01,      /* J = 39 */
(PID.TID 0000.0001)                -7.605000000000022E+01,      /* J = 40 */
(PID.TID 0000.0001)                -7.595000000000023E+01,      /* J = 41 */
(PID.TID 0000.0001)                -7.585000000000024E+01,      /* J = 42 */
(PID.TID 0000.0001)                -7.575000000000024E+01,      /* J = 43 */
(PID.TID 0000.0001)                -7.565000000000025E+01,      /* J = 44 */
(PID.TID 0000.0001)                -7.555000000000025E+01,      /* J = 45 */
(PID.TID 0000.0001)                -7.545000000000026E+01,      /* J = 46 */
(PID.TID 0000.0001)                -7.535000000000026E+01,      /* J = 47 */
(PID.TID 0000.0001)                -7.525000000000027E+01,      /* J = 48 */
(PID.TID 0000.0001)                -7.515000000000028E+01,      /* J = 49 */
(PID.TID 0000.0001)                -7.505000000000028E+01       /* J = 50 */
(PID.TID 0000.0001)     ;
(PID.TID 0000.0001) rcoord =   /* P-point R coordinate (  units of r ) */
(PID.TID 0000.0001)                -1.500000000000000E+01,      /* K =  1 */
(PID.TID 0000.0001)                -4.500000000000000E+01,      /* K =  2 */
(PID.TID 0000.0001)                -7.500000000000000E+01,      /* K =  3 */
(PID.TID 0000.0001)                -1.050000000000000E+02,      /* K =  4 */
(PID.TID 0000.0001)                -1.350000000000000E+02,      /* K =  5 */
(PID.TID 0000.0001)                -1.650000000000000E+02,      /* K =  6 */
(PID.TID 0000.0001)                -1.950000000000000E+02,      /* K =  7 */
(PID.TID 0000.0001)                -2.250000000000000E+02,      /* K =  8 */
(PID.TID 0000.0001)                -2.550000000000000E+02,      /* K =  9 */
(PID.TID 0000.0001)                -2.850000000000000E+02,      /* K = 10 */
(PID.TID 0000.0001)                -3.150000000000000E+02,      /* K = 11 */
(PID.TID 0000.0001)                -3.450000000000000E+02,      /* K = 12 */
(PID.TID 0000.0001)                -3.750000000000000E+02,      /* K = 13 */
(PID.TID 0000.0001)                -4.050000000000000E+02,      /* K = 14 */
(PID.TID 0000.0001)                -4.350000000000000E+02,      /* K = 15 */
(PID.TID 0000.0001)                -4.650000000000000E+02,      /* K = 16 */
(PID.TID 0000.0001)                -4.950000000000000E+02,      /* K = 17 */
(PID.TID 0000.0001)                -5.250000000000000E+02,      /* K = 18 */
(PID.TID 0000.0001)                -5.550000000000000E+02,      /* K = 19 */
(PID.TID 0000.0001)                -5.850000000000000E+02,      /* K = 20 */
(PID.TID 0000.0001)                -6.150000000000000E+02,      /* K = 21 */
(PID.TID 0000.0001)                -6.450000000000000E+02,      /* K = 22 */
(PID.TID 0000.0001)                -6.750000000000000E+02,      /* K = 23 */
(PID.TID 0000.0001)                -7.050000000000000E+02,      /* K = 24 */
(PID.TID 0000.0001)                -7.350000000000000E+02,      /* K = 25 */
(PID.TID 0000.0001)                -7.650000000000000E+02,      /* K = 26 */
(PID.TID 0000.0001)                -7.950000000000000E+02,      /* K = 27 */
(PID.TID 0000.0001)                -8.250000000000000E+02,      /* K = 28 */
(PID.TID 0000.0001)                -8.550000000000000E+02,      /* K = 29 */
(PID.TID 0000.0001)                -8.850000000000000E+02       /* K = 30 */
(PID.TID 0000.0001)     ;
(PID.TID 0000.0001) rF =   /* W-Interf. R coordinate (  units of r ) */
(PID.TID 0000.0001)                 0.000000000000000E+00,      /* K =  1 */
(PID.TID 0000.0001)                -3.000000000000000E+01,      /* K =  2 */
(PID.TID 0000.0001)                -6.000000000000000E+01,      /* K =  3 */
(PID.TID 0000.0001)                -9.000000000000000E+01,      /* K =  4 */
(PID.TID 0000.0001)                -1.200000000000000E+02,      /* K =  5 */
(PID.TID 0000.0001)                -1.500000000000000E+02,      /* K =  6 */
(PID.TID 0000.0001)                -1.800000000000000E+02,      /* K =  7 */
(PID.TID 0000.0001)                -2.100000000000000E+02,      /* K =  8 */
(PID.TID 0000.0001)                -2.400000000000000E+02,      /* K =  9 */
(PID.TID 0000.0001)                -2.700000000000000E+02,      /* K = 10 */
(PID.TID 0000.0001)                -3.000000000000000E+02,      /* K = 11 */
(PID.TID 0000.0001)                -3.300000000000000E+02,      /* K = 12 */
(PID.TID 0000.0001)                -3.600000000000000E+02,      /* K = 13 */
(PID.TID 0000.0001)                -3.900000000000000E+02,      /* K = 14 */
(PID.TID 0000.0001)                -4.200000000000000E+02,      /* K = 15 */
(PID.TID 0000.0001)                -4.500000000000000E+02,      /* K = 16 */
(PID.TID 0000.0001)                -4.800000000000000E+02,      /* K = 17 */
(PID.TID 0000.0001)                -5.100000000000000E+02,      /* K = 18 */
(PID.TID 0000.0001)                -5.400000000000000E+02,      /* K = 19 */
(PID.TID 0000.0001)                -5.700000000000000E+02,      /* K = 20 */
(PID.TID 0000.0001)                -6.000000000000000E+02,      /* K = 21 */
(PID.TID 0000.0001)                -6.300000000000000E+02,      /* K = 22 */
(PID.TID 0000.0001)                -6.600000000000000E+02,      /* K = 23 */
(PID.TID 0000.0001)                -6.900000000000000E+02,      /* K = 24 */
(PID.TID 0000.0001)                -7.200000000000000E+02,      /* K = 25 */
(PID.TID 0000.0001)                -7.500000000000000E+02,      /* K = 26 */
(PID.TID 0000.0001)                -7.800000000000000E+02,      /* K = 27 */
(PID.TID 0000.0001)                -8.100000000000000E+02,      /* K = 28 */
(PID.TID 0000.0001)                -8.400000000000000E+02,      /* K = 29 */
(PID.TID 0000.0001)                -8.700000000000000E+02,      /* K = 30 */
(PID.TID 0000.0001)                -9.000000000000000E+02       /* K = 31 */
(PID.TID 0000.0001)     ;
(PID.TID 0000.0001) dBdrRef = /* Vertical gradient of reference boyancy [(m/s/r)^2)] */
(PID.TID 0000.0001)    30 @  0.000000000000000E+00              /* K =  1: 30 */
(PID.TID 0000.0001)     ;
(PID.TID 0000.0001) dxF =  /* dxF(:,1,:,1) ( units: m ) */
(PID.TID 0000.0001)    50 @  5.820391490558872E+03,             /* I =  1: 50 */
(PID.TID 0000.0001)    50 @  2.395221087108265E+09              /* I = 51:100 */
(PID.TID 0000.0001)     ;
(PID.TID 0000.0001) dxF =  /* dxF(1,:,1,:) ( units: m ) */
(PID.TID 0000.0001)                 5.820391490558872E+03,      /* J =  1 */
(PID.TID 0000.0001)                 5.877701765291692E+03,      /* J =  2 */
(PID.TID 0000.0001)                 5.934994135525598E+03,      /* J =  3 */
(PID.TID 0000.0001)                 5.992268426738092E+03,      /* J =  4 */
(PID.TID 0000.0001)                 6.049524464461751E+03,      /* J =  5 */
(PID.TID 0000.0001)                 6.106762074284755E+03,      /* J =  6 */
(PID.TID 0000.0001)                 6.163981081851418E+03,      /* J =  7 */
(PID.TID 0000.0001)                 6.221181312862721E+03,      /* J =  8 */
(PID.TID 0000.0001)                 6.278362593076839E+03,      /* J =  9 */
(PID.TID 0000.0001)                 6.335524748309675E+03,      /* J = 10 */
(PID.TID 0000.0001)                 6.392667604435392E+03,      /* J = 11 */
(PID.TID 0000.0001)                 6.449790987386939E+03,      /* J = 12 */
(PID.TID 0000.0001)                 6.506894723156589E+03,      /* J = 13 */
(PID.TID 0000.0001)                 6.563978637796454E+03,      /* J = 14 */
(PID.TID 0000.0001)                 6.621042557419033E+03,      /* J = 15 */
(PID.TID 0000.0001)                 6.678086308197730E+03,      /* J = 16 */
(PID.TID 0000.0001)                 6.735109716367390E+03,      /* J = 17 */
(PID.TID 0000.0001)                 6.792112608224819E+03,      /* J = 18 */
(PID.TID 0000.0001)                 6.849094810129332E+03,      /* J = 19 */
(PID.TID 0000.0001)                 6.906056148503244E+03,      /* J = 20 */
(PID.TID 0000.0001)                 6.962996449832446E+03,      /* J = 21 */
(PID.TID 0000.0001)                 7.019915540666910E+03,      /* J = 22 */
(PID.TID 0000.0001)                 7.076813247621209E+03,      /* J = 23 */
(PID.TID 0000.0001)                 7.133689397375063E+03,      /* J = 24 */
(PID.TID 0000.0001)                 7.190543816673855E+03,      /* J = 25 */
(PID.TID 0000.0001)                 7.247376332329164E+03,      /* J = 26 */
(PID.TID 0000.0001)                 7.304186771219292E+03,      /* J = 27 */
(PID.TID 0000.0001)                 7.360974960289787E+03,      /* J = 28 */
(PID.TID 0000.0001)                 7.417740726553981E+03,      /* J = 29 */
(PID.TID 0000.0001)                 7.474483897093503E+03,      /* J = 30 */
(PID.TID 0000.0001)                 7.531204299058815E+03,      /* J = 31 */
(PID.TID 0000.0001)                 7.587901759669735E+03,      /* J = 32 */
(PID.TID 0000.0001)                 7.644576106215967E+03,      /* J = 33 */
(PID.TID 0000.0001)                 7.701227166057623E+03,      /* J = 34 */
(PID.TID 0000.0001)                 7.757854766625747E+03,      /* J = 35 */
(PID.TID 0000.0001)                 7.814458735422849E+03,      /* J = 36 */
(PID.TID 0000.0001)                 7.871038900023425E+03,      /* J = 37 */
(PID.TID 0000.0001)                 7.927595088074479E+03,      /* J = 38 */
(PID.TID 0000.0001)                 7.984127127296055E+03,      /* J = 39 */
(PID.TID 0000.0001)                 8.040634845481757E+03,      /* J = 40 */
(PID.TID 0000.0001)                 8.097118070499275E+03,      /* J = 41 */
(PID.TID 0000.0001)                 8.153576630290919E+03,      /* J = 42 */
(PID.TID 0000.0001)                 8.210010352874109E+03,      /* J = 43 */
(PID.TID 0000.0001)                 8.266419066341947E+03,      /* J = 44 */
(PID.TID 0000.0001)                 8.322802598863705E+03,      /* J = 45 */
(PID.TID 0000.0001)                 8.379160778685373E+03,      /* J = 46 */
(PID.TID 0000.0001)                 8.435493434130152E+03,      /* J = 47 */
(PID.TID 0000.0001)                 8.491800393599013E+03,      /* J = 48 */
(PID.TID 0000.0001)                 8.548081485571185E+03,      /* J = 49 */
(PID.TID 0000.0001)                 8.604336538604706E+03       /* J = 50 */
(PID.TID 0000.0001)     ;
(PID.TID 0000.0001) dyF =  /* dyF(:,1,:,1) ( units: m ) */
(PID.TID 0000.0001)   100 @  1.111774733520388E+04              /* I =  1:100 */
(PID.TID 0000.0001)     ;
(PID.TID 0000.0001) dyF =  /* dyF(1,:,1,:) ( units: m ) */
(PID.TID 0000.0001)    50 @  1.111774733520388E+04              /* J =  1: 50 */
(PID.TID 0000.0001)     ;
(PID.TID 0000.0001) dxG =  /* dxG(:,1,:,1) ( units: m ) */
(PID.TID 0000.0001)    50 @  5.791729693558576E+03,             /* I =  1: 50 */
(PID.TID 0000.0001)    50 @  2.383426117529177E+09              /* I = 51:100 */
(PID.TID 0000.0001)     ;
(PID.TID 0000.0001) dxG =  /* dxG(1,:,1,:) ( units: m ) */
(PID.TID 0000.0001)                 5.791729693558576E+03,      /* J =  1 */
(PID.TID 0000.0001)                 5.849048855077854E+03,      /* J =  2 */
(PID.TID 0000.0001)                 5.906350199379949E+03,      /* J =  3 */
(PID.TID 0000.0001)                 5.963633551915032E+03,      /* J =  4 */
(PID.TID 0000.0001)                 6.020898738188074E+03,      /* J =  5 */
(PID.TID 0000.0001)                 6.078145583759388E+03,      /* J =  6 */
(PID.TID 0000.0001)                 6.135373914245153E+03,      /* J =  7 */
(PID.TID 0000.0001)                 6.192583555317951E+03,      /* J =  8 */
(PID.TID 0000.0001)                 6.249774332707294E+03,      /* J =  9 */
(PID.TID 0000.0001)                 6.306946072200154E+03,      /* J = 10 */
(PID.TID 0000.0001)                 6.364098599641497E+03,      /* J = 11 */
(PID.TID 0000.0001)                 6.421231740934816E+03,      /* J = 12 */
(PID.TID 0000.0001)                 6.478345322042654E+03,      /* J = 13 */
(PID.TID 0000.0001)                 6.535439168987135E+03,      /* J = 14 */
(PID.TID 0000.0001)                 6.592513107850500E+03,      /* J = 15 */
(PID.TID 0000.0001)                 6.649566964775637E+03,      /* J = 16 */
(PID.TID 0000.0001)                 6.706600565966598E+03,      /* J = 17 */
(PID.TID 0000.0001)                 6.763613737689147E+03,      /* J = 18 */
(PID.TID 0000.0001)                 6.820606306271281E+03,      /* J = 19 */
(PID.TID 0000.0001)                 6.877578098103740E+03,      /* J = 20 */
(PID.TID 0000.0001)                 6.934528939640570E+03,      /* J = 21 */
(PID.TID 0000.0001)                 6.991458657399629E+03,      /* J = 22 */
(PID.TID 0000.0001)                 7.048367077963129E+03,      /* J = 23 */
(PID.TID 0000.0001)                 7.105254027978149E+03,      /* J = 24 */
(PID.TID 0000.0001)                 7.162119334157175E+03,      /* J = 25 */
(PID.TID 0000.0001)                 7.218962823278620E+03,      /* J = 26 */
(PID.TID 0000.0001)                 7.275784322187360E+03,      /* J = 27 */
(PID.TID 0000.0001)                 7.332583657795253E+03,      /* J = 28 */
(PID.TID 0000.0001)                 7.389360657081677E+03,      /* J = 29 */
(PID.TID 0000.0001)                 7.446115147094042E+03,      /* J = 30 */
(PID.TID 0000.0001)                 7.502846954948329E+03,      /* J = 31 */
(PID.TID 0000.0001)                 7.559555907829611E+03,      /* J = 32 */
(PID.TID 0000.0001)                 7.616241832992587E+03,      /* J = 33 */
(PID.TID 0000.0001)                 7.672904557762095E+03,      /* J = 34 */
(PID.TID 0000.0001)                 7.729543909533650E+03,      /* J = 35 */
(PID.TID 0000.0001)                 7.786159715773963E+03,      /* J = 36 */
(PID.TID 0000.0001)                 7.842751804021470E+03,      /* J = 37 */
(PID.TID 0000.0001)                 7.899320001886857E+03,      /* J = 38 */
(PID.TID 0000.0001)                 7.955864137053582E+03,      /* J = 39 */
(PID.TID 0000.0001)                 8.012384037278402E+03,      /* J = 40 */
(PID.TID 0000.0001)                 8.068879530391900E+03,      /* J = 41 */
(PID.TID 0000.0001)                 8.125350444299005E+03,      /* J = 42 */
(PID.TID 0000.0001)                 8.181796606979530E+03,      /* J = 43 */
(PID.TID 0000.0001)                 8.238217846488658E+03,      /* J = 44 */
(PID.TID 0000.0001)                 8.294613990957514E+03,      /* J = 45 */
(PID.TID 0000.0001)                 8.350984868593665E+03,      /* J = 46 */
(PID.TID 0000.0001)                 8.407330307681643E+03,      /* J = 47 */
(PID.TID 0000.0001)                 8.463650136583461E+03,      /* J = 48 */
(PID.TID 0000.0001)                 8.519944183739159E+03,      /* J = 49 */
(PID.TID 0000.0001)                 8.576212277667308E+03       /* J = 50 */
(PID.TID 0000.0001)     ;
(PID.TID 0000.0001) dyG =  /* dyG(:,1,:,1) ( units: m ) */
(PID.TID 0000.0001)   100 @  1.111774733520388E+04              /* I =  1:100 */
(PID.TID 0000.0001)     ;
(PID.TID 0000.0001) dyG =  /* dyG(1,:,1,:) ( units: m ) */
(PID.TID 0000.0001)    50 @  1.111774733520388E+04              /* J =  1: 50 */
(PID.TID 0000.0001)     ;
(PID.TID 0000.0001) dxC =  /* dxC(:,1,:,1) ( units: m ) */
(PID.TID 0000.0001)                 1.197613453749878E+09,      /* I =  1 */
(PID.TID 0000.0001)    49 @  5.820391490558872E+03,             /* I =  2: 50 */
(PID.TID 0000.0001)                 1.197613453749878E+09,      /* I = 51 */
(PID.TID 0000.0001)    49 @  2.395221087108265E+09              /* I = 52:100 */
(PID.TID 0000.0001)     ;
(PID.TID 0000.0001) dxC =  /* dxC(1,:,1,:) ( units: m ) */
(PID.TID 0000.0001)                 1.197613453749878E+09,      /* J =  1 */
(PID.TID 0000.0001)                 1.209405711396027E+09,      /* J =  2 */
(PID.TID 0000.0001)                 1.221194284982640E+09,      /* J =  3 */
(PID.TID 0000.0001)                 1.232979138599674E+09,      /* J =  4 */
(PID.TID 0000.0001)                 1.244760236348424E+09,      /* J =  5 */
(PID.TID 0000.0001)                 1.256537542341622E+09,      /* J =  6 */
(PID.TID 0000.0001)                 1.268311020703551E+09,      /* J =  7 */
(PID.TID 0000.0001)                 1.280080635570155E+09,      /* J =  8 */
(PID.TID 0000.0001)                 1.291846351089146E+09,      /* J =  9 */
(PID.TID 0000.0001)                 1.303608131420113E+09,      /* J = 10 */
(PID.TID 0000.0001)                 1.315365940734634E+09,      /* J = 11 */
(PID.TID 0000.0001)                 1.327119743216383E+09,      /* J = 12 */
(PID.TID 0000.0001)                 1.338869503061238E+09,      /* J = 13 */
(PID.TID 0000.0001)                 1.350615184477395E+09,      /* J = 14 */
(PID.TID 0000.0001)                 1.362356751685469E+09,      /* J = 15 */
(PID.TID 0000.0001)                 1.374094168918612E+09,      /* J = 16 */
(PID.TID 0000.0001)                 1.385827400422615E+09,      /* J = 17 */
(PID.TID 0000.0001)                 1.397556410456019E+09,      /* J = 18 */
(PID.TID 0000.0001)                 1.409281163290228E+09,      /* J = 19 */
(PID.TID 0000.0001)                 1.421001623209609E+09,      /* J = 20 */
(PID.TID 0000.0001)                 1.432717754511607E+09,      /* J = 21 */
(PID.TID 0000.0001)                 1.444429521506858E+09,      /* J = 22 */
(PID.TID 0000.0001)                 1.456136888519286E+09,      /* J = 23 */
(PID.TID 0000.0001)                 1.467839819886222E+09,      /* J = 24 */
(PID.TID 0000.0001)                 1.479538279958507E+09,      /* J = 25 */
(PID.TID 0000.0001)                 1.491232233100603E+09,      /* J = 26 */
(PID.TID 0000.0001)                 1.502921643690700E+09,      /* J = 27 */
(PID.TID 0000.0001)                 1.514606476120827E+09,      /* J = 28 */
(PID.TID 0000.0001)                 1.526286694796958E+09,      /* J = 29 */
(PID.TID 0000.0001)                 1.537962264139121E+09,      /* J = 30 */
(PID.TID 0000.0001)                 1.549633148581507E+09,      /* J = 31 */
(PID.TID 0000.0001)                 1.561299312572577E+09,      /* J = 32 */
(PID.TID 0000.0001)                 1.572960720575174E+09,      /* J = 33 */
(PID.TID 0000.0001)                 1.584617337066627E+09,      /* J = 34 */
(PID.TID 0000.0001)                 1.596269126538858E+09,      /* J = 35 */
(PID.TID 0000.0001)                 1.607916053498498E+09,      /* J = 36 */
(PID.TID 0000.0001)                 1.619558082466986E+09,      /* J = 37 */
(PID.TID 0000.0001)                 1.631195177980685E+09,      /* J = 38 */
(PID.TID 0000.0001)                 1.642827304590982E+09,      /* J = 39 */
(PID.TID 0000.0001)                 1.654454426864402E+09,      /* J = 40 */
(PID.TID 0000.0001)                 1.666076509382715E+09,      /* J = 41 */
(PID.TID 0000.0001)                 1.677693516743043E+09,      /* J = 42 */
(PID.TID 0000.0001)                 1.689305413557965E+09,      /* J = 43 */
(PID.TID 0000.0001)                 1.700912164455629E+09,      /* J = 44 */
(PID.TID 0000.0001)                 1.712513734079861E+09,      /* J = 45 */
(PID.TID 0000.0001)                 1.724110087090267E+09,      /* J = 46 */
(PID.TID 0000.0001)                 1.735701188162344E+09,      /* J = 47 */
(PID.TID 0000.0001)                 1.747287001987589E+09,      /* J = 48 */
(PID.TID 0000.0001)                 1.758867493273603E+09,      /* J = 49 */
(PID.TID 0000.0001)                 1.770442626744202E+09       /* J = 50 */
(PID.TID 0000.0001)     ;
(PID.TID 0000.0001) dyC =  /* dyC(:,1,:,1) ( units: m ) */
(PID.TID 0000.0001)   100 @  1.111774733520388E+04              /* I =  1:100 */
(PID.TID 0000.0001)     ;
(PID.TID 0000.0001) dyC =  /* dyC(1,:,1,:) ( units: m ) */
(PID.TID 0000.0001)    50 @  1.111774733520388E+04              /* J =  1: 50 */
(PID.TID 0000.0001)     ;
(PID.TID 0000.0001) dxV =  /* dxV(:,1,:,1) ( units: m ) */
(PID.TID 0000.0001)                 1.191715954629435E+09,      /* I =  1 */
(PID.TID 0000.0001)    49 @  5.791729693558576E+03,             /* I =  2: 50 */
(PID.TID 0000.0001)                 1.191715954629435E+09,      /* I = 51 */
(PID.TID 0000.0001)    49 @  2.383426117529177E+09              /* I = 52:100 */
(PID.TID 0000.0001)     ;
(PID.TID 0000.0001) dxV =  /* dxV(1,:,1,:) ( units: m ) */
(PID.TID 0000.0001)                 1.191715954629435E+09,      /* J =  1 */
(PID.TID 0000.0001)                 1.203510040835578E+09,      /* J =  2 */
(PID.TID 0000.0001)                 1.215300460941417E+09,      /* J =  3 */
(PID.TID 0000.0001)                 1.227087179031290E+09,      /* J =  4 */
(PID.TID 0000.0001)                 1.238870159200808E+09,      /* J =  5 */
(PID.TID 0000.0001)                 1.250649365556971E+09,      /* J =  6 */
(PID.TID 0000.0001)                 1.262424762218273E+09,      /* J =  7 */
(PID.TID 0000.0001)                 1.274196313314814E+09,      /* J =  8 */
(PID.TID 0000.0001)                 1.285963982988407E+09,      /* J =  9 */
(PID.TID 0000.0001)                 1.297727735392690E+09,      /* J = 10 */
(PID.TID 0000.0001)                 1.309487534693234E+09,      /* J = 11 */
(PID.TID 0000.0001)                 1.321243345067649E+09,      /* J = 12 */
(PID.TID 0000.0001)                 1.332995130705700E+09,      /* J = 13 */
(PID.TID 0000.0001)                 1.344742855809408E+09,      /* J = 14 */
(PID.TID 0000.0001)                 1.356486484593165E+09,      /* J = 15 */
(PID.TID 0000.0001)                 1.368225981283843E+09,      /* J = 16 */
(PID.TID 0000.0001)                 1.379961310120897E+09,      /* J = 17 */
(PID.TID 0000.0001)                 1.391692435356482E+09,      /* J = 18 */
(PID.TID 0000.0001)                 1.403419321255556E+09,      /* J = 19 */
(PID.TID 0000.0001)                 1.415141932095989E+09,      /* J = 20 */
(PID.TID 0000.0001)                 1.426860232168676E+09,      /* J = 21 */
(PID.TID 0000.0001)                 1.438574185777643E+09,      /* J = 22 */
(PID.TID 0000.0001)                 1.450283757240157E+09,      /* J = 23 */
(PID.TID 0000.0001)                 1.461988910886831E+09,      /* J = 24 */
(PID.TID 0000.0001)                 1.473689611061737E+09,      /* J = 25 */
(PID.TID 0000.0001)                 1.485385822122514E+09,      /* J = 26 */
(PID.TID 0000.0001)                 1.497077508440475E+09,      /* J = 27 */
(PID.TID 0000.0001)                 1.508764634400714E+09,      /* J = 28 */
(PID.TID 0000.0001)                 1.520447164402221E+09,      /* J = 29 */
(PID.TID 0000.0001)                 1.532125062857982E+09,      /* J = 30 */
(PID.TID 0000.0001)                 1.543798294195093E+09,      /* J = 31 */
(PID.TID 0000.0001)                 1.555466822854867E+09,      /* J = 32 */
(PID.TID 0000.0001)                 1.567130613292943E+09,      /* J = 33 */
(PID.TID 0000.0001)                 1.578789629979392E+09,      /* J = 34 */
(PID.TID 0000.0001)                 1.590443837398826E+09,      /* J = 35 */
(PID.TID 0000.0001)                 1.602093200050510E+09,      /* J = 36 */
(PID.TID 0000.0001)                 1.613737682448464E+09,      /* J = 37 */
(PID.TID 0000.0001)                 1.625377249121576E+09,      /* J = 38 */
(PID.TID 0000.0001)                 1.637011864613707E+09,      /* J = 39 */
(PID.TID 0000.0001)                 1.648641493483800E+09,      /* J = 40 */
(PID.TID 0000.0001)                 1.660266100305988E+09,      /* J = 41 */
(PID.TID 0000.0001)                 1.671885649669704E+09,      /* J = 42 */
(PID.TID 0000.0001)                 1.683500106179786E+09,      /* J = 43 */
(PID.TID 0000.0001)                 1.695109434456584E+09,      /* J = 44 */
(PID.TID 0000.0001)                 1.706713599136070E+09,      /* J = 45 */
(PID.TID 0000.0001)                 1.718312564869947E+09,      /* J = 46 */
(PID.TID 0000.0001)                 1.729906296325754E+09,      /* J = 47 */
(PID.TID 0000.0001)                 1.741494758186974E+09,      /* J = 48 */
(PID.TID 0000.0001)                 1.753077915153142E+09,      /* J = 49 */
(PID.TID 0000.0001)                 1.764655731939955E+09       /* J = 50 */
(PID.TID 0000.0001)     ;
(PID.TID 0000.0001) dyU =  /* dyU(:,1,:,1) ( units: m ) */
(PID.TID 0000.0001)   100 @  1.111774733520388E+04              /* I =  1:100 */
(PID.TID 0000.0001)     ;
(PID.TID 0000.0001) dyU =  /* dyU(1,:,1,:) ( units: m ) */
(PID.TID 0000.0001)    50 @  1.111774733520388E+04              /* J =  1: 50 */
(PID.TID 0000.0001)     ;
(PID.TID 0000.0001) rA  =  /* rA (:,1,:,1) ( units: m^2 ) */
(PID.TID 0000.0001)    50 @  6.470963377080289E+07,             /* I =  1: 50 */
(PID.TID 0000.0001)    50 @  2.662945947850627E+13              /* I = 51:100 */
(PID.TID 0000.0001)     ;
(PID.TID 0000.0001) rA  =  /* rA (1,:,1,:) ( units: m^2 ) */
(PID.TID 0000.0001)                 6.470963377080289E+07,      /* J =  1 */
(PID.TID 0000.0001)                 6.534679484410104E+07,      /* J =  2 */
(PID.TID 0000.0001)                 6.598375685977945E+07,      /* J =  3 */
(PID.TID 0000.0001)                 6.662051787745729E+07,      /* J =  4 */
(PID.TID 0000.0001)                 6.725707595748492E+07,      /* J =  5 */
(PID.TID 0000.0001)                 6.789342916077879E+07,      /* J =  6 */
(PID.TID 0000.0001)                 6.852957554896304E+07,      /* J =  7 */
(PID.TID 0000.0001)                 6.916551318413351E+07,      /* J =  8 */
(PID.TID 0000.0001)                 6.980124012916450E+07,      /* J =  9 */
(PID.TID 0000.0001)                 7.043675444751994E+07,      /* J = 10 */
(PID.TID 0000.0001)                 7.107205420332426E+07,      /* J = 11 */
(PID.TID 0000.0001)                 7.170713746129155E+07,      /* J = 12 */
(PID.TID 0000.0001)                 7.234200228686719E+07,      /* J = 13 */
(PID.TID 0000.0001)                 7.297664674622770E+07,      /* J = 14 */
(PID.TID 0000.0001)                 7.361106890599781E+07,      /* J = 15 */
(PID.TID 0000.0001)                 7.424526683372219E+07,      /* J = 16 */
(PID.TID 0000.0001)                 7.487923859746441E+07,      /* J = 17 */
(PID.TID 0000.0001)                 7.551298226611364E+07,      /* J = 18 */
(PID.TID 0000.0001)                 7.614649590905435E+07,      /* J = 19 */
(PID.TID 0000.0001)                 7.677977759659100E+07,      /* J = 20 */
(PID.TID 0000.0001)                 7.741282539961770E+07,      /* J = 21 */
(PID.TID 0000.0001)                 7.804563738973619E+07,      /* J = 22 */
(PID.TID 0000.0001)                 7.867821163932665E+07,      /* J = 23 */
(PID.TID 0000.0001)                 7.931054622142966E+07,      /* J = 24 */
(PID.TID 0000.0001)                 7.994263920984067E+07,      /* J = 25 */
(PID.TID 0000.0001)                 8.057448867913349E+07,      /* J = 26 */
(PID.TID 0000.0001)                 8.120609270456599E+07,      /* J = 27 */
(PID.TID 0000.0001)                 8.183744936212724E+07,      /* J = 28 */
(PID.TID 0000.0001)                 8.246855672863193E+07,      /* J = 29 */
(PID.TID 0000.0001)                 8.309941288162594E+07,      /* J = 30 */
(PID.TID 0000.0001)                 8.373001589938636E+07,      /* J = 31 */
(PID.TID 0000.0001)                 8.436036386101587E+07,      /* J = 32 */
(PID.TID 0000.0001)                 8.499045484630123E+07,      /* J = 33 */
(PID.TID 0000.0001)                 8.562028693597265E+07,      /* J = 34 */
(PID.TID 0000.0001)                 8.624985821137366E+07,      /* J = 35 */
(PID.TID 0000.0001)                 8.687916675476770E+07,      /* J = 36 */
(PID.TID 0000.0001)                 8.750821064912586E+07,      /* J = 37 */
(PID.TID 0000.0001)                 8.813698797831558E+07,      /* J = 38 */
(PID.TID 0000.0001)                 8.876549682695904E+07,      /* J = 39 */
(PID.TID 0000.0001)                 8.939373528048050E+07,      /* J = 40 */
(PID.TID 0000.0001)                 9.002170142522410E+07,      /* J = 41 */
(PID.TID 0000.0001)                 9.064939334821798E+07,      /* J = 42 */
(PID.TID 0000.0001)                 9.127680913743389E+07,      /* J = 43 */
(PID.TID 0000.0001)                 9.190394688169266E+07,      /* J = 44 */
(PID.TID 0000.0001)                 9.253080467056999E+07,      /* J = 45 */
(PID.TID 0000.0001)                 9.315738059456144E+07,      /* J = 46 */
(PID.TID 0000.0001)                 9.378367274503537E+07,      /* J = 47 */
(PID.TID 0000.0001)                 9.440967921416211E+07,      /* J = 48 */
(PID.TID 0000.0001)                 9.503539809503193E+07,      /* J = 49 */
(PID.TID 0000.0001)                 9.566082748163140E+07       /* J = 50 */
(PID.TID 0000.0001)     ;
(PID.TID 0000.0001) rAw =  /* rAw(:,1,:,1) ( units: m^2 ) */
(PID.TID 0000.0001)                 1.331476209407002E+13,      /* I =  1 */
(PID.TID 0000.0001)    49 @  6.470963377080289E+07,             /* I =  2: 50 */
(PID.TID 0000.0001)                 1.331476209407002E+13,      /* I = 51 */
(PID.TID 0000.0001)    49 @  2.662945947850627E+13              /* I = 52:100 */
(PID.TID 0000.0001)     ;
(PID.TID 0000.0001) rAw =  /* rAw(1,:,1,:) ( units: m^2 ) */
(PID.TID 0000.0001)                 1.331476209407002E+13,      /* J =  1 */
(PID.TID 0000.0001)                 1.344586541844697E+13,      /* J =  2 */
(PID.TID 0000.0001)                 1.357692778439632E+13,      /* J =  3 */
(PID.TID 0000.0001)                 1.370794879266208E+13,      /* J =  4 */
(PID.TID 0000.0001)                 1.383892804413869E+13,      /* J =  5 */
(PID.TID 0000.0001)                 1.396986513983711E+13,      /* J =  6 */
(PID.TID 0000.0001)                 1.410075968091388E+13,      /* J =  7 */
(PID.TID 0000.0001)                 1.423161126862262E+13,      /* J =  8 */
(PID.TID 0000.0001)                 1.436241950437710E+13,      /* J =  9 */
(PID.TID 0000.0001)                 1.449318398971245E+13,      /* J = 10 */
(PID.TID 0000.0001)                 1.462390432629967E+13,      /* J = 11 */
(PID.TID 0000.0001)                 1.475458011593112E+13,      /* J = 12 */
(PID.TID 0000.0001)                 1.488521096054960E+13,      /* J = 13 */
(PID.TID 0000.0001)                 1.501579646224839E+13,      /* J = 14 */
(PID.TID 0000.0001)                 1.514633622321295E+13,      /* J = 15 */
(PID.TID 0000.0001)                 1.527682984581807E+13,      /* J = 16 */
(PID.TID 0000.0001)                 1.540727693254527E+13,      /* J = 17 */
(PID.TID 0000.0001)                 1.553767708604598E+13,      /* J = 18 */
(PID.TID 0000.0001)                 1.566802990907354E+13,      /* J = 19 */
(PID.TID 0000.0001)                 1.579833500457056E+13,      /* J = 20 */
(PID.TID 0000.0001)                 1.592859197560100E+13,      /* J = 21 */
(PID.TID 0000.0001)                 1.605880042537444E+13,      /* J = 22 */
(PID.TID 0000.0001)                 1.618895995726058E+13,      /* J = 23 */
(PID.TID 0000.0001)                 1.631907017476507E+13,      /* J = 24 */
(PID.TID 0000.0001)                 1.644913068154883E+13,      /* J = 25 */
(PID.TID 0000.0001)                 1.657914108143297E+13,      /* J = 26 */
(PID.TID 0000.0001)                 1.670910097837934E+13,      /* J = 27 */
(PID.TID 0000.0001)                 1.683900997650024E+13,      /* J = 28 */
(PID.TID 0000.0001)                 1.696886768007786E+13,      /* J = 29 */
(PID.TID 0000.0001)                 1.709867369354482E+13,      /* J = 30 */
(PID.TID 0000.0001)                 1.722842762148423E+13,      /* J = 31 */
(PID.TID 0000.0001)                 1.735812906864906E+13,      /* J = 32 */
(PID.TID 0000.0001)                 1.748777763993302E+13,      /* J = 33 */
(PID.TID 0000.0001)                 1.761737294042396E+13,      /* J = 34 */
(PID.TID 0000.0001)                 1.774691457533593E+13,      /* J = 35 */
(PID.TID 0000.0001)                 1.787640215007226E+13,      /* J = 36 */
(PID.TID 0000.0001)                 1.800583527018189E+13,      /* J = 37 */
(PID.TID 0000.0001)                 1.813521354139818E+13,      /* J = 38 */
(PID.TID 0000.0001)                 1.826453656960980E+13,      /* J = 39 */
(PID.TID 0000.0001)                 1.839380396087047E+13,      /* J = 40 */
(PID.TID 0000.0001)                 1.852301532142315E+13,      /* J = 41 */
(PID.TID 0000.0001)                 1.865217025765158E+13,      /* J = 42 */
(PID.TID 0000.0001)                 1.878126837613363E+13,      /* J = 43 */
(PID.TID 0000.0001)                 1.891030928362189E+13,      /* J = 44 */
(PID.TID 0000.0001)                 1.903929258702427E+13,      /* J = 45 */
(PID.TID 0000.0001)                 1.916821789343795E+13,      /* J = 46 */
(PID.TID 0000.0001)                 1.929708481013972E+13,      /* J = 47 */
(PID.TID 0000.0001)                 1.942589294457135E+13,      /* J = 48 */
(PID.TID 0000.0001)                 1.955464190436393E+13,      /* J = 49 */
(PID.TID 0000.0001)                 1.968333129733295E+13       /* J = 50 */
(PID.TID 0000.0001)     ;
(PID.TID 0000.0001) rAs =  /* rAs(:,1,:,1) ( units: m^2 ) */
(PID.TID 0000.0001)    50 @  6.439097919401864E+07,             /* I =  1: 50 */
(PID.TID 0000.0001)    50 @  2.649832600354067E+13              /* I = 51:100 */
(PID.TID 0000.0001)     ;
(PID.TID 0000.0001) rAs =  /* rAs(1,:,1,:) ( units: m^2 ) */
(PID.TID 0000.0001)                 6.439097919401864E+07,      /* J =  1 */
(PID.TID 0000.0001)                 6.502823906837179E+07,      /* J =  2 */
(PID.TID 0000.0001)                 6.566530085543716E+07,      /* J =  3 */
(PID.TID 0000.0001)                 6.630216261459803E+07,      /* J =  4 */
(PID.TID 0000.0001)                 6.693882240587452E+07,      /* J =  5 */
(PID.TID 0000.0001)                 6.757527828990008E+07,      /* J =  6 */
(PID.TID 0000.0001)                 6.821152832789779E+07,      /* J =  7 */
(PID.TID 0000.0001)                 6.884757058175126E+07,      /* J =  8 */
(PID.TID 0000.0001)                 6.948340311398090E+07,      /* J =  9 */
(PID.TID 0000.0001)                 7.011902398769690E+07,      /* J = 10 */
(PID.TID 0000.0001)                 7.075443126669341E+07,      /* J = 11 */
(PID.TID 0000.0001)                 7.138962301544867E+07,      /* J = 12 */
(PID.TID 0000.0001)                 7.202459729903063E+07,      /* J = 13 */
(PID.TID 0000.0001)                 7.265935218316765E+07,      /* J = 14 */
(PID.TID 0000.0001)                 7.329388573434296E+07,      /* J = 15 */
(PID.TID 0000.0001)                 7.392819601962943E+07,      /* J = 16 */
(PID.TID 0000.0001)                 7.456228110680762E+07,      /* J = 17 */
(PID.TID 0000.0001)                 7.519613906436566E+07,      /* J = 18 */
(PID.TID 0000.0001)                 7.582976796140501E+07,      /* J = 19 */
(PID.TID 0000.0001)                 7.646316586782910E+07,      /* J = 20 */
(PID.TID 0000.0001)                 7.709633085422541E+07,      /* J = 21 */
(PID.TID 0000.0001)                 7.772926099177113E+07,      /* J = 22 */
(PID.TID 0000.0001)                 7.836195435256335E+07,      /* J = 23 */
(PID.TID 0000.0001)                 7.899440900921808E+07,      /* J = 24 */
(PID.TID 0000.0001)                 7.962662303520055E+07,      /* J = 25 */
(PID.TID 0000.0001)                 8.025859450470714E+07,      /* J = 26 */
(PID.TID 0000.0001)                 8.089032149259475E+07,      /* J = 27 */
(PID.TID 0000.0001)                 8.152180207452223E+07,      /* J = 28 */
(PID.TID 0000.0001)                 8.215303432695043E+07,      /* J = 29 */
(PID.TID 0000.0001)                 8.278401632695346E+07,      /* J = 30 */
(PID.TID 0000.0001)                 8.341474615247822E+07,      /* J = 31 */
(PID.TID 0000.0001)                 8.404522188224998E+07,      /* J = 32 */
(PID.TID 0000.0001)                 8.467544159567805E+07,      /* J = 33 */
(PID.TID 0000.0001)                 8.530540337302092E+07,      /* J = 34 */
(PID.TID 0000.0001)                 8.593510529533908E+07,      /* J = 35 */
(PID.TID 0000.0001)                 8.656454544440059E+07,      /* J = 36 */
(PID.TID 0000.0001)                 8.719372190284635E+07,      /* J = 37 */
(PID.TID 0000.0001)                 8.782263275409557E+07,      /* J = 38 */
(PID.TID 0000.0001)                 8.845127608236952E+07,      /* J = 39 */
(PID.TID 0000.0001)                 8.907964997273858E+07,      /* J = 40 */
(PID.TID 0000.0001)                 8.970775251102796E+07,      /* J = 41 */
(PID.TID 0000.0001)                 9.033558178395921E+07,      /* J = 42 */
(PID.TID 0000.0001)                 9.096313587903227E+07,      /* J = 43 */
(PID.TID 0000.0001)                 9.159041288459623E+07,      /* J = 44 */
(PID.TID 0000.0001)                 9.221741088992015E+07,      /* J = 45 */
(PID.TID 0000.0001)                 9.284412798498066E+07,      /* J = 46 */
(PID.TID 0000.0001)                 9.347056226076873E+07,      /* J = 47 */
(PID.TID 0000.0001)                 9.409671180895932E+07,      /* J = 48 */
(PID.TID 0000.0001)                 9.472257472228888E+07,      /* J = 49 */
(PID.TID 0000.0001)                 9.534814909420149E+07       /* J = 50 */
(PID.TID 0000.0001)     ;
(PID.TID 0000.0001) globalArea = /* Integrated horizontal Area (m^2) */
(PID.TID 0000.0001)                 8.089362968494528E+16
(PID.TID 0000.0001)     ;
(PID.TID 0000.0001) // =======================================================
(PID.TID 0000.0001) // End of Model config. summary
(PID.TID 0000.0001) // =======================================================
(PID.TID 0000.0001) 
(PID.TID 0000.0001) // =======================================================
(PID.TID 0000.0001) // Field Initial Temperature at iteration          1
(PID.TID 0000.0001) // CMIN =          1.000000000000000E+32
(PID.TID 0000.0001) // CMAX =         -1.000000000000000E+32
(PID.TID 0000.0001) // CINT =          0.000000000000000E+00
(PID.TID 0000.0001) // SYMBOLS (CMIN->CMAX): -abcdefghijklmnopqrstuvwxyz+
(PID.TID 0000.0001) //                  0.0: .
(PID.TID 0000.0001) // RANGE I (Lo:Hi:Step):(   1: 100:   1)
(PID.TID 0000.0001) // RANGE J (Lo:Hi:Step):(  50:   1:  -1)
(PID.TID 0000.0001) // RANGE K (Lo:Hi:Step):(   1:   1:   1)
(PID.TID 0000.0001) // =======================================================
(PID.TID 0000.0001) // =======================================================
(PID.TID 0000.0001) // END OF FIELD                                          =
(PID.TID 0000.0001) // =======================================================
(PID.TID 0000.0001) 
(PID.TID 0000.0001) // =======================================================
(PID.TID 0000.0001) // Field Initial Salinity at iteration          1
(PID.TID 0000.0001) // CMIN =          1.000000000000000E+32
(PID.TID 0000.0001) // CMAX =         -1.000000000000000E+32
(PID.TID 0000.0001) // CINT =          0.000000000000000E+00
(PID.TID 0000.0001) // SYMBOLS (CMIN->CMAX): -abcdefghijklmnopqrstuvwxyz+
(PID.TID 0000.0001) //                  0.0: .
(PID.TID 0000.0001) // RANGE I (Lo:Hi:Step):(   1: 100:   1)
(PID.TID 0000.0001) // RANGE J (Lo:Hi:Step):(  50:   1:  -1)
(PID.TID 0000.0001) // RANGE K (Lo:Hi:Step):(   1:   1:   1)
(PID.TID 0000.0001) // =======================================================
(PID.TID 0000.0001) // =======================================================
(PID.TID 0000.0001) // END OF FIELD                                          =
(PID.TID 0000.0001) // =======================================================
(PID.TID 0000.0001) 
(PID.TID 0000.0001) Start initial hydrostatic pressure computation
(PID.TID 0000.0001) Pressure is predetermined for buoyancyRelation OCEANIC
(PID.TID 0000.0001) 
(PID.TID 0000.0001) // =======================================================
(PID.TID 0000.0001) // Model current state
(PID.TID 0000.0001) // =======================================================
(PID.TID 0000.0001) 
(PID.TID 0000.0001) // =======================================================
(PID.TID 0000.0001) // Begin MONITOR dynamic field statistics
(PID.TID 0000.0001) // =======================================================
(PID.TID 0000.0001) %MON time_tsnumber                =                     0
(PID.TID 0000.0001) %MON time_secondsf                =   0.0000000000000E+00
(PID.TID 0000.0001) %MON dynstat_eta_max              =   0.0000000000000E+00
(PID.TID 0000.0001) %MON dynstat_eta_min              =   0.0000000000000E+00
(PID.TID 0000.0001) %MON dynstat_eta_mean             =   0.0000000000000E+00
(PID.TID 0000.0001) %MON dynstat_eta_sd               =   0.0000000000000E+00
(PID.TID 0000.0001) %MON dynstat_eta_del2             =   0.0000000000000E+00
(PID.TID 0000.0001) %MON dynstat_uvel_max             =   0.0000000000000E+00
(PID.TID 0000.0001) %MON dynstat_uvel_min             =   0.0000000000000E+00
(PID.TID 0000.0001) %MON dynstat_uvel_mean            =   0.0000000000000E+00
(PID.TID 0000.0001) %MON dynstat_uvel_sd              =   0.0000000000000E+00
(PID.TID 0000.0001) %MON dynstat_uvel_del2            =   0.0000000000000E+00
(PID.TID 0000.0001) %MON dynstat_vvel_max             =   0.0000000000000E+00
(PID.TID 0000.0001) %MON dynstat_vvel_min             =   0.0000000000000E+00
(PID.TID 0000.0001) %MON dynstat_vvel_mean            =   0.0000000000000E+00
(PID.TID 0000.0001) %MON dynstat_vvel_sd              =   0.0000000000000E+00
(PID.TID 0000.0001) %MON dynstat_vvel_del2            =   0.0000000000000E+00
(PID.TID 0000.0001) %MON dynstat_wvel_max             =   0.0000000000000E+00
(PID.TID 0000.0001) %MON dynstat_wvel_min             =   0.0000000000000E+00
(PID.TID 0000.0001) %MON dynstat_wvel_mean            =   0.0000000000000E+00
(PID.TID 0000.0001) %MON dynstat_wvel_sd              =   0.0000000000000E+00
(PID.TID 0000.0001) %MON dynstat_wvel_del2            =   0.0000000000000E+00
(PID.TID 0000.0001) %MON dynstat_theta_max            =  -1.9000000000000E+00
(PID.TID 0000.0001) %MON dynstat_theta_min            =  -1.9000000000000E+00
(PID.TID 0000.0001) %MON dynstat_theta_mean           =  -1.8999999999995E+00
(PID.TID 0000.0001) %MON dynstat_theta_sd             =   5.0004445029109E-13
(PID.TID 0000.0001) %MON dynstat_theta_del2           =   0.0000000000000E+00
(PID.TID 0000.0001) %MON dynstat_salt_max             =   3.4400000000000E+01
(PID.TID 0000.0001) %MON dynstat_salt_min             =   3.4400000000000E+01
(PID.TID 0000.0001) %MON dynstat_salt_mean            =   3.4399999999992E+01
(PID.TID 0000.0001) %MON dynstat_salt_sd              =   7.5743855632025E-12
(PID.TID 0000.0001) %MON dynstat_salt_del2            =   0.0000000000000E+00
(PID.TID 0000.0001) %MON advcfl_uvel_max              =   0.0000000000000E+00
(PID.TID 0000.0001) %MON advcfl_vvel_max              =   0.0000000000000E+00
(PID.TID 0000.0001) %MON advcfl_wvel_max              =   0.0000000000000E+00
(PID.TID 0000.0001) %MON advcfl_W_hf_max              =   0.0000000000000E+00
(PID.TID 0000.0001) %MON pe_b_mean                    =   0.0000000000000E+00
(PID.TID 0000.0001) %MON ke_max                       =   0.0000000000000E+00
(PID.TID 0000.0001) %MON ke_mean                      =   0.0000000000000E+00
(PID.TID 0000.0001) %MON ke_vol                       =   4.9883516278638E+19
(PID.TID 0000.0001) %MON vort_r_min                   =   0.0000000000000E+00
(PID.TID 0000.0001) %MON vort_r_max                   =   0.0000000000000E+00
(PID.TID 0000.0001) %MON vort_a_mean                  =  -1.4215243381248E-04
(PID.TID 0000.0001) %MON vort_a_sd                    =   7.4397295396985E-07
(PID.TID 0000.0001) %MON vort_p_mean                  =  -1.5364965068326E-04
(PID.TID 0000.0001) %MON vort_p_sd                    =   8.6036724855396E-05
(PID.TID 0000.0001) %MON surfExpan_theta_mean         =   0.0000000000000E+00
(PID.TID 0000.0001) %MON surfExpan_salt_mean          =   0.0000000000000E+00
(PID.TID 0000.0001) // =======================================================
(PID.TID 0000.0001) // End MONITOR dynamic field statistics
(PID.TID 0000.0001) // =======================================================
 cg2d: Sum(rhs),rhsMax =   1.61246661491143E+01  3.26917884430380E-13
(PID.TID 0000.0001)                    cg2d_init_res =    8.79295287522168E+00
(PID.TID 0000.0001)                       cg2d_iters =   131
(PID.TID 0000.0001)                         cg2d_res =    8.22379262029045E-14
(PID.TID 0000.0001) // =======================================================
(PID.TID 0000.0001) // Begin MONITOR dynamic field statistics
(PID.TID 0000.0001) // =======================================================
(PID.TID 0000.0001) %MON time_tsnumber                =                     1
(PID.TID 0000.0001) %MON time_secondsf                =   1.8000000000000E+03
(PID.TID 0000.0001) %MON dynstat_eta_max              =   2.0087153412907E-12
(PID.TID 0000.0001) %MON dynstat_eta_min              =  -1.1868990776640E-13
(PID.TID 0000.0001) %MON dynstat_eta_mean             =   4.0113961547414E-15
(PID.TID 0000.0001) %MON dynstat_eta_sd               =   3.1481696667781E-13
(PID.TID 0000.0001) %MON dynstat_eta_del2             =   2.1263215762202E-14
(PID.TID 0000.0001) %MON dynstat_uvel_max             =   2.7302693698163E-15
(PID.TID 0000.0001) %MON dynstat_uvel_min             =  -2.1249087147027E-14
(PID.TID 0000.0001) %MON dynstat_uvel_mean            =   2.5604230692642E-16
(PID.TID 0000.0001) %MON dynstat_uvel_sd              =   2.8009712914319E-15
(PID.TID 0000.0001) %MON dynstat_uvel_del2            =   1.6152324650454E-16
(PID.TID 0000.0001) %MON dynstat_vvel_max             =   1.3256826198724E-14
(PID.TID 0000.0001) %MON dynstat_vvel_min             =  -1.4411699325804E-14
(PID.TID 0000.0001) %MON dynstat_vvel_mean            =   2.1822121589882E-15
(PID.TID 0000.0001) %MON dynstat_vvel_sd              =   5.9892115348629E-15
(PID.TID 0000.0001) %MON dynstat_vvel_del2            =   7.4642833870275E-17
(PID.TID 0000.0001) %MON dynstat_wvel_max             =   1.1159529673837E-15
(PID.TID 0000.0001) %MON dynstat_wvel_min             =  -6.5938837648002E-17
(PID.TID 0000.0001) %MON dynstat_wvel_mean            =   2.8126521794809E-18
(PID.TID 0000.0001) %MON dynstat_wvel_sd              =   1.2563860038144E-16
(PID.TID 0000.0001) %MON dynstat_wvel_del2            =   5.0947534041159E-18
(PID.TID 0000.0001) %MON dynstat_theta_max            =  -1.9000000000000E+00
(PID.TID 0000.0001) %MON dynstat_theta_min            =  -1.9006444446264E+00
(PID.TID 0000.0001) %MON dynstat_theta_mean           =  -1.9000116422081E+00
(PID.TID 0000.0001) %MON dynstat_theta_sd             =   5.4218887357854E-05
(PID.TID 0000.0001) %MON dynstat_theta_del2           =   2.5094393165189E-06
(PID.TID 0000.0001) %MON dynstat_salt_max             =   3.4400000000000E+01
(PID.TID 0000.0001) %MON dynstat_salt_min             =   3.4399763880077E+01
(PID.TID 0000.0001) %MON dynstat_salt_mean            =   3.4399995287923E+01
(PID.TID 0000.0001) %MON dynstat_salt_sd              =   2.1306009916839E-05
(PID.TID 0000.0001) %MON dynstat_salt_del2            =   9.7020430796418E-07
(PID.TID 0000.0001) %MON advcfl_uvel_max              =   5.6122249509646E-16
(PID.TID 0000.0001) %MON advcfl_vvel_max              =   2.3333017026126E-15
(PID.TID 0000.0001) %MON advcfl_wvel_max              =   6.6957178043025E-14
(PID.TID 0000.0001) %MON advcfl_W_hf_max              =   2.0087153412907E-13
(PID.TID 0000.0001) %MON pe_b_mean                    =  -1.2269152739382E-17
(PID.TID 0000.0001) %MON ke_max                       =   3.2145491894185E-28
(PID.TID 0000.0001) %MON ke_mean                      =   2.3977631089329E-29
(PID.TID 0000.0001) %MON ke_vol                       =   4.9883516278638E+19
(PID.TID 0000.0001) %MON vort_r_min                   =  -1.9394916208725E-18
(PID.TID 0000.0001) %MON vort_r_max                   =   1.9175442700049E-18
(PID.TID 0000.0001) %MON vort_a_mean                  =  -1.4215243381248E-04
(PID.TID 0000.0001) %MON vort_a_sd                    =   7.4397295396985E-07
(PID.TID 0000.0001) %MON vort_p_mean                  =  -1.5364965068326E-04
(PID.TID 0000.0001) %MON vort_p_sd                    =   8.6036724855396E-05
(PID.TID 0000.0001) %MON surfExpan_theta_mean         =  -4.2342404963773E-18
(PID.TID 0000.0001) %MON surfExpan_salt_mean          =   7.6662225244262E-17
(PID.TID 0000.0001) // =======================================================
(PID.TID 0000.0001) // End MONITOR dynamic field statistics
(PID.TID 0000.0001) // =======================================================
 cg2d: Sum(rhs),rhsMax =   1.61246692623869E+01  2.52028492001113E-05
(PID.TID 0000.0001)                    cg2d_init_res =    1.65908369897510E+01
(PID.TID 0000.0001)                       cg2d_iters =   135
(PID.TID 0000.0001)                         cg2d_res =    9.71542570425524E-14
(PID.TID 0000.0001) // =======================================================
(PID.TID 0000.0001) // Begin MONITOR dynamic field statistics
(PID.TID 0000.0001) // =======================================================
(PID.TID 0000.0001) %MON time_tsnumber                =                     2
(PID.TID 0000.0001) %MON time_secondsf                =   3.6000000000000E+03
(PID.TID 0000.0001) %MON dynstat_eta_max              =   1.5184089521955E-04
(PID.TID 0000.0001) %MON dynstat_eta_min              =  -9.3852657734554E-06
(PID.TID 0000.0001) %MON dynstat_eta_mean             =   2.4365729231992E-07
(PID.TID 0000.0001) %MON dynstat_eta_sd               =   2.3821538637182E-05
(PID.TID 0000.0001) %MON dynstat_eta_del2             =   1.7668271399412E-06
(PID.TID 0000.0001) %MON dynstat_uvel_max             =   6.9698781423445E-07
(PID.TID 0000.0001) %MON dynstat_uvel_min             =  -1.2398683995131E-06
(PID.TID 0000.0001) %MON dynstat_uvel_mean            =  -2.9757000021957E-09
(PID.TID 0000.0001) %MON dynstat_uvel_sd              =   2.0915404262930E-07
(PID.TID 0000.0001) %MON dynstat_uvel_del2            =   3.3285145903972E-08
(PID.TID 0000.0001) %MON dynstat_vvel_max             =   8.6512320228264E-06
(PID.TID 0000.0001) %MON dynstat_vvel_min             =  -1.4020317670141E-05
(PID.TID 0000.0001) %MON dynstat_vvel_mean            =   2.5709842068725E-07
(PID.TID 0000.0001) %MON dynstat_vvel_sd              =   7.0479058378024E-07
(PID.TID 0000.0001) %MON dynstat_vvel_del2            =   4.4882597133719E-08
(PID.TID 0000.0001) %MON dynstat_wvel_max             =   8.4356051783797E-08
(PID.TID 0000.0001) %MON dynstat_wvel_min             =  -6.9804192804361E-09
(PID.TID 0000.0001) %MON dynstat_wvel_mean            =   2.0449478365671E-10
(PID.TID 0000.0001) %MON dynstat_wvel_sd              =   9.3314819705107E-09
(PID.TID 0000.0001) %MON dynstat_wvel_del2            =   5.3001098679830E-10
(PID.TID 0000.0001) %MON dynstat_theta_max            =  -1.9000000000000E+00
(PID.TID 0000.0001) %MON dynstat_theta_min            =  -1.9012857879317E+00
(PID.TID 0000.0001) %MON dynstat_theta_mean           =  -1.9000232651760E+00
(PID.TID 0000.0001) %MON dynstat_theta_sd             =   1.0825752280425E-04
(PID.TID 0000.0001) %MON dynstat_theta_del2           =   5.0034573267668E-06
(PID.TID 0000.0001) %MON dynstat_salt_max             =   3.4400000000000E+01
(PID.TID 0000.0001) %MON dynstat_salt_min             =   3.4399528802223E+01
(PID.TID 0000.0001) %MON dynstat_salt_mean            =   3.4399990582837E+01
(PID.TID 0000.0001) %MON dynstat_salt_sd              =   4.2548393230055E-05
(PID.TID 0000.0001) %MON dynstat_salt_del2            =   1.9347390137460E-06
(PID.TID 0000.0001) %MON advcfl_uvel_max              =   3.4197023190961E-07
(PID.TID 0000.0001) %MON advcfl_vvel_max              =   2.2699357203724E-06
(PID.TID 0000.0001) %MON advcfl_wvel_max              =   5.0613631070278E-06
(PID.TID 0000.0001) %MON advcfl_W_hf_max              =   1.5184089321083E-05
(PID.TID 0000.0001) %MON pe_b_mean                    =  -2.5868232271649E-10
(PID.TID 0000.0001) %MON ke_max                       =   6.3415784452855E-11
(PID.TID 0000.0001) %MON ke_mean                      =   3.0488222294300E-13
(PID.TID 0000.0001) %MON ke_vol                       =   4.9883516278638E+19
(PID.TID 0000.0001) %MON vort_r_min                   =  -1.7397374048178E-10
(PID.TID 0000.0001) %MON vort_r_max                   =   1.4233343051195E-09
(PID.TID 0000.0001) %MON vort_a_mean                  =  -1.4215243357465E-04
(PID.TID 0000.0001) %MON vort_a_sd                    =   7.4397510901956E-07
(PID.TID 0000.0001) %MON vort_p_mean                  =  -1.5364965042620E-04
(PID.TID 0000.0001) %MON vort_p_sd                    =   8.6036719547660E-05
(PID.TID 0000.0001) %MON surfExpan_theta_mean         =  -2.5712184134736E-10
(PID.TID 0000.0001) %MON surfExpan_salt_mean          =   4.6565854206256E-09
(PID.TID 0000.0001) // =======================================================
(PID.TID 0000.0001) // End MONITOR dynamic field statistics
(PID.TID 0000.0001) // =======================================================
 cg2d: Sum(rhs),rhsMax =   1.56601362025777E+01  3.86499061814878E-05
(PID.TID 0000.0001)                    cg2d_init_res =    4.57153453043817E+02
(PID.TID 0000.0001)                       cg2d_iters =   139
(PID.TID 0000.0001)                         cg2d_res =    5.78611228937983E-14
(PID.TID 0000.0001) // =======================================================
(PID.TID 0000.0001) // Begin MONITOR dynamic field statistics
(PID.TID 0000.0001) // =======================================================
(PID.TID 0000.0001) %MON time_tsnumber                =                     3
(PID.TID 0000.0001) %MON time_secondsf                =   5.4000000000000E+03
(PID.TID 0000.0001) %MON dynstat_eta_max              =   2.2459447096157E-04
(PID.TID 0000.0001) %MON dynstat_eta_min              =  -8.5591086388325E-06
(PID.TID 0000.0001) %MON dynstat_eta_mean             =   1.6405655321681E-07
(PID.TID 0000.0001) %MON dynstat_eta_sd               =   3.5252884806903E-05
(PID.TID 0000.0001) %MON dynstat_eta_del2             =   2.5711932378516E-06
(PID.TID 0000.0001) %MON dynstat_uvel_max             =   5.1724410784851E-05
(PID.TID 0000.0001) %MON dynstat_uvel_min             =  -5.4289393136032E-05
(PID.TID 0000.0001) %MON dynstat_uvel_mean            =   1.9062250995889E-06
(PID.TID 0000.0001) %MON dynstat_uvel_sd              =   1.1507775542702E-05
(PID.TID 0000.0001) %MON dynstat_uvel_del2            =   5.6092043329543E-07
(PID.TID 0000.0001) %MON dynstat_vvel_max             =   2.2316499127561E-05
(PID.TID 0000.0001) %MON dynstat_vvel_min             =  -3.2172857203752E-05
(PID.TID 0000.0001) %MON dynstat_vvel_mean            =   3.8406851932474E-07
(PID.TID 0000.0001) %MON dynstat_vvel_sd              =   1.4841481543895E-06
(PID.TID 0000.0001) %MON dynstat_vvel_del2            =   1.1141264769605E-07
(PID.TID 0000.0001) %MON dynstat_wvel_max             =   8.6992358101360E-08
(PID.TID 0000.0001) %MON dynstat_wvel_min             =  -3.8748735615070E-08
(PID.TID 0000.0001) %MON dynstat_wvel_mean            =  -1.9394970420938E-10
(PID.TID 0000.0001) %MON dynstat_wvel_sd              =   6.6237066304649E-09
(PID.TID 0000.0001) %MON dynstat_wvel_del2            =   8.1741524699365E-10
(PID.TID 0000.0001) %MON dynstat_theta_max            =  -1.9000000000000E+00
(PID.TID 0000.0001) %MON dynstat_theta_min            =  -1.9019252128461E+00
(PID.TID 0000.0001) %MON dynstat_theta_mean           =  -1.9000348761745E+00
(PID.TID 0000.0001) %MON dynstat_theta_sd             =   1.6218447952596E-04
(PID.TID 0000.0001) %MON dynstat_theta_del2           =   7.4880699852861E-06
(PID.TID 0000.0001) %MON dynstat_salt_max             =   3.4400000000000E+01
(PID.TID 0000.0001) %MON dynstat_salt_min             =   3.4399294369399E+01
(PID.TID 0000.0001) %MON dynstat_salt_mean            =   3.4399985882099E+01
(PID.TID 0000.0001) %MON dynstat_salt_sd              =   6.3751331188743E-05
(PID.TID 0000.0001) %MON dynstat_salt_del2            =   2.8958145042154E-06
(PID.TID 0000.0001) %MON advcfl_uvel_max              =   1.1209155637083E-06
(PID.TID 0000.0001) %MON advcfl_vvel_max              =   5.2088918034124E-06
(PID.TID 0000.0001) %MON advcfl_wvel_max              =   5.2195414860816E-06
(PID.TID 0000.0001) %MON advcfl_W_hf_max              =   9.2234872716983E-06
(PID.TID 0000.0001) %MON pe_b_mean                    =   2.6580071752128E-11
(PID.TID 0000.0001) %MON ke_max                       =   1.7586543266969E-09
(PID.TID 0000.0001) %MON ke_mean                      =   6.7837089137818E-11
(PID.TID 0000.0001) %MON ke_vol                       =   4.9883516278638E+19
(PID.TID 0000.0001) %MON vort_r_min                   =  -5.0031105946763E-09
(PID.TID 0000.0001) %MON vort_r_max                   =   4.9993346112801E-09
(PID.TID 0000.0001) %MON vort_a_mean                  =  -1.4215245994352E-04
(PID.TID 0000.0001) %MON vort_a_sd                    =   7.4374768741675E-07
(PID.TID 0000.0001) %MON vort_p_mean                  =  -1.5364967892777E-04
(PID.TID 0000.0001) %MON vort_p_sd                    =   8.6036361708172E-05
(PID.TID 0000.0001) %MON surfExpan_theta_mean         =   8.3882307678569E-11
(PID.TID 0000.0001) %MON surfExpan_salt_mean          =  -1.5213046973732E-09
(PID.TID 0000.0001) // =======================================================
(PID.TID 0000.0001) // End MONITOR dynamic field statistics
(PID.TID 0000.0001) // =======================================================
 cg2d: Sum(rhs),rhsMax =   1.68462023613185E+01  5.35137987652811E-05
(PID.TID 0000.0001)                    cg2d_init_res =    4.76479725052298E+02
(PID.TID 0000.0001)                       cg2d_iters =   139
(PID.TID 0000.0001)                         cg2d_res =    8.68821367559381E-14
(PID.TID 0000.0001) // =======================================================
(PID.TID 0000.0001) // Begin MONITOR dynamic field statistics
(PID.TID 0000.0001) // =======================================================
(PID.TID 0000.0001) %MON time_tsnumber                =                     4
(PID.TID 0000.0001) %MON time_secondsf                =   7.2000000000000E+03
(PID.TID 0000.0001) %MON dynstat_eta_max              =   3.2390302281602E-04
(PID.TID 0000.0001) %MON dynstat_eta_min              =  -1.2877910014211E-05
(PID.TID 0000.0001) %MON dynstat_eta_mean             =   1.3092134629369E-08
(PID.TID 0000.0001) %MON dynstat_eta_sd               =   5.0860433321444E-05
(PID.TID 0000.0001) %MON dynstat_eta_del2             =   3.7043082587840E-06
(PID.TID 0000.0001) %MON dynstat_uvel_max             =   1.5523832592509E-04
(PID.TID 0000.0001) %MON dynstat_uvel_min             =  -1.5861586572032E-04
(PID.TID 0000.0001) %MON dynstat_uvel_mean            =   5.7994474695669E-06
(PID.TID 0000.0001) %MON dynstat_uvel_sd              =   3.4315857695593E-05
(PID.TID 0000.0001) %MON dynstat_uvel_del2            =   1.5851292767293E-06
(PID.TID 0000.0001) %MON dynstat_vvel_max             =   3.9413626416100E-05
(PID.TID 0000.0001) %MON dynstat_vvel_min             =  -5.6132881315489E-05
(PID.TID 0000.0001) %MON dynstat_vvel_mean            =   5.8960935698044E-07
(PID.TID 0000.0001) %MON dynstat_vvel_sd              =   2.5840685248077E-06
(PID.TID 0000.0001) %MON dynstat_vvel_del2            =   1.9430283063574E-07
(PID.TID 0000.0001) %MON dynstat_wvel_max             =   1.4851135683102E-07
(PID.TID 0000.0001) %MON dynstat_wvel_min             =  -7.2653487087515E-08
(PID.TID 0000.0001) %MON dynstat_wvel_mean            =  -1.7744976744034E-10
(PID.TID 0000.0001) %MON dynstat_wvel_sd              =   1.0648151238121E-08
(PID.TID 0000.0001) %MON dynstat_wvel_del2            =   1.4204588243457E-09
(PID.TID 0000.0001) %MON dynstat_theta_max            =  -1.9000000000000E+00
(PID.TID 0000.0001) %MON dynstat_theta_min            =  -1.9025627247405E+00
(PID.TID 0000.0001) %MON dynstat_theta_mean           =  -1.9000464752176E+00
(PID.TID 0000.0001) %MON dynstat_theta_sd             =   2.1600002335893E-04
(PID.TID 0000.0001) %MON dynstat_theta_del2           =   9.9633204073130E-06
(PID.TID 0000.0001) %MON dynstat_salt_max             =   3.4400000000000E+01
(PID.TID 0000.0001) %MON dynstat_salt_min             =   3.4399060579971E+01
(PID.TID 0000.0001) %MON dynstat_salt_mean            =   3.4399981185703E+01
(PID.TID 0000.0001) %MON dynstat_salt_sd              =   8.4914907656674E-05
(PID.TID 0000.0001) %MON dynstat_salt_del2            =   3.8534459956874E-06
(PID.TID 0000.0001) %MON advcfl_uvel_max              =   2.5637187692968E-06
(PID.TID 0000.0001) %MON advcfl_vvel_max              =   9.0880988136819E-06
(PID.TID 0000.0001) %MON advcfl_wvel_max              =   8.9106814098612E-06
(PID.TID 0000.0001) %MON advcfl_W_hf_max              =   1.5103029926306E-05
(PID.TID 0000.0001) %MON pe_b_mean                    =   1.4217181760357E-09
(PID.TID 0000.0001) %MON ke_max                       =   1.3134978340963E-08
(PID.TID 0000.0001) %MON ke_mean                      =   5.9681903019254E-10
(PID.TID 0000.0001) %MON ke_vol                       =   4.9883516278638E+19
(PID.TID 0000.0001) %MON vort_r_min                   =  -1.4330193592536E-08
(PID.TID 0000.0001) %MON vort_r_max                   =   1.4776743402024E-08
(PID.TID 0000.0001) %MON vort_a_mean                  =  -1.4215251285778E-04
(PID.TID 0000.0001) %MON vort_a_sd                    =   7.4329655331739E-07
(PID.TID 0000.0001) %MON vort_p_mean                  =  -1.5364973612171E-04
(PID.TID 0000.0001) %MON vort_p_sd                    =   8.6035640894843E-05
(PID.TID 0000.0001) %MON surfExpan_theta_mean         =   1.5945916332935E-10
(PID.TID 0000.0001) %MON surfExpan_salt_mean          =  -2.8850527761432E-09
(PID.TID 0000.0001) // =======================================================
(PID.TID 0000.0001) // End MONITOR dynamic field statistics
(PID.TID 0000.0001) // =======================================================
 cg2d: Sum(rhs),rhsMax =   1.72860744267138E+01  6.83598540319013E-05
(PID.TID 0000.0001)                    cg2d_init_res =    5.38815713265712E+02
(PID.TID 0000.0001)                       cg2d_iters =   139
(PID.TID 0000.0001)                         cg2d_res =    5.43034584508246E-14
(PID.TID 0000.0001) // =======================================================
(PID.TID 0000.0001) // Begin MONITOR dynamic field statistics
(PID.TID 0000.0001) // =======================================================
(PID.TID 0000.0001) %MON time_tsnumber                =                     5
(PID.TID 0000.0001) %MON time_secondsf                =   9.0000000000000E+03
(PID.TID 0000.0001) %MON dynstat_eta_max              =   4.0943648450922E-04
(PID.TID 0000.0001) %MON dynstat_eta_min              =  -1.6355113170110E-05
(PID.TID 0000.0001) %MON dynstat_eta_mean             =  -3.6065092134540E-07
(PID.TID 0000.0001) %MON dynstat_eta_sd               =   6.4344467174724E-05
(PID.TID 0000.0001) %MON dynstat_eta_del2             =   4.6873647939448E-06
(PID.TID 0000.0001) %MON dynstat_uvel_max             =   3.2835626718897E-04
(PID.TID 0000.0001) %MON dynstat_uvel_min             =  -3.3098819946287E-04
(PID.TID 0000.0001) %MON dynstat_uvel_mean            =   1.2328633831744E-05
(PID.TID 0000.0001) %MON dynstat_uvel_sd              =   7.2300880430419E-05
(PID.TID 0000.0001) %MON dynstat_uvel_del2            =   3.2754063150798E-06
(PID.TID 0000.0001) %MON dynstat_vvel_max             =   5.9026193051054E-05
(PID.TID 0000.0001) %MON dynstat_vvel_min             =  -8.2476294034694E-05
(PID.TID 0000.0001) %MON dynstat_vvel_mean            =   8.1097260702082E-07
(PID.TID 0000.0001) %MON dynstat_vvel_sd              =   3.8578867118147E-06
(PID.TID 0000.0001) %MON dynstat_vvel_del2            =   2.8951529843644E-07
(PID.TID 0000.0001) %MON dynstat_wvel_max             =   2.2114790962393E-07
(PID.TID 0000.0001) %MON dynstat_wvel_min             =  -1.2565620711218E-07
(PID.TID 0000.0001) %MON dynstat_wvel_mean            =  -3.4851036066953E-10
(PID.TID 0000.0001) %MON dynstat_wvel_sd              =   1.4921770981559E-08
(PID.TID 0000.0001) %MON dynstat_wvel_del2            =   2.0632097504865E-09
(PID.TID 0000.0001) %MON dynstat_theta_max            =  -1.9000000000000E+00
(PID.TID 0000.0001) %MON dynstat_theta_min            =  -1.9031983335717E+00
(PID.TID 0000.0001) %MON dynstat_theta_mean           =  -1.9000580623312E+00
(PID.TID 0000.0001) %MON dynstat_theta_sd             =   2.6970457304547E-04
(PID.TID 0000.0001) %MON dynstat_theta_del2           =   1.2429267797467E-05
(PID.TID 0000.0001) %MON dynstat_salt_max             =   3.4400000000000E+01
(PID.TID 0000.0001) %MON dynstat_salt_min             =   3.4398827430739E+01
(PID.TID 0000.0001) %MON dynstat_salt_mean            =   3.4399976493644E+01
(PID.TID 0000.0001) %MON dynstat_salt_sd              =   1.0603925838793E-04
(PID.TID 0000.0001) %MON dynstat_salt_del2            =   4.8076546884614E-06
(PID.TID 0000.0001) %MON advcfl_uvel_max              =   4.8563218363728E-06
(PID.TID 0000.0001) %MON advcfl_vvel_max              =   1.3353184308512E-05
(PID.TID 0000.0001) %MON advcfl_wvel_max              =   1.3268874577436E-05
(PID.TID 0000.0001) %MON advcfl_W_hf_max              =   2.2416029349437E-05
(PID.TID 0000.0001) %MON pe_b_mean                    =   4.0960942585099E-09
(PID.TID 0000.0001) %MON ke_max                       =   5.4983970394937E-08
(PID.TID 0000.0001) %MON ke_mean                      =   2.6427163257579E-09
(PID.TID 0000.0001) %MON ke_vol                       =   4.9883516278638E+19
(PID.TID 0000.0001) %MON vort_r_min                   =  -2.9667882188619E-08
(PID.TID 0000.0001) %MON vort_r_max                   =   3.0994311174799E-08
(PID.TID 0000.0001) %MON vort_a_mean                  =  -1.4215260145645E-04
(PID.TID 0000.0001) %MON vort_a_sd                    =   7.4255506375155E-07
(PID.TID 0000.0001) %MON vort_p_mean                  =  -1.5364983188619E-04
(PID.TID 0000.0001) %MON vort_p_sd                    =   8.6034438607183E-05
(PID.TID 0000.0001) %MON surfExpan_theta_mean         =   3.9477192309697E-10
(PID.TID 0000.0001) %MON surfExpan_salt_mean          =  -7.1425353006089E-09
(PID.TID 0000.0001) // =======================================================
(PID.TID 0000.0001) // End MONITOR dynamic field statistics
(PID.TID 0000.0001) // =======================================================
 cg2d: Sum(rhs),rhsMax =   1.81360454241596E+01  8.31784458807544E-05
(PID.TID 0000.0001)                    cg2d_init_res =    5.59714462194814E+02
(PID.TID 0000.0001)                       cg2d_iters =   139
(PID.TID 0000.0001)                         cg2d_res =    4.16748883605592E-14
(PID.TID 0000.0001) // =======================================================
(PID.TID 0000.0001) // Begin MONITOR dynamic field statistics
(PID.TID 0000.0001) // =======================================================
(PID.TID 0000.0001) %MON time_tsnumber                =                     6
(PID.TID 0000.0001) %MON time_secondsf                =   1.0800000000000E+04
(PID.TID 0000.0001) %MON dynstat_eta_max              =   5.0298853424488E-04
(PID.TID 0000.0001) %MON dynstat_eta_min              =  -2.1050192422314E-05
(PID.TID 0000.0001) %MON dynstat_eta_mean             =  -9.2535190266902E-07
(PID.TID 0000.0001) %MON dynstat_eta_sd               =   7.9103425586959E-05
(PID.TID 0000.0001) %MON dynstat_eta_del2             =   5.7649568723580E-06
(PID.TID 0000.0001) %MON dynstat_uvel_max             =   5.7573025072944E-04
(PID.TID 0000.0001) %MON dynstat_uvel_min             =  -5.7484058219379E-04
(PID.TID 0000.0001) %MON dynstat_uvel_mean            =   2.1677834519187E-05
(PID.TID 0000.0001) %MON dynstat_uvel_sd              =   1.2637602273283E-04
(PID.TID 0000.0001) %MON dynstat_uvel_del2            =   5.6633075113782E-06
(PID.TID 0000.0001) %MON dynstat_vvel_max             =   7.9687994050505E-05
(PID.TID 0000.0001) %MON dynstat_vvel_min             =  -1.0993166379918E-04
(PID.TID 0000.0001) %MON dynstat_vvel_mean            =   1.0806916676467E-06
(PID.TID 0000.0001) %MON dynstat_vvel_sd              =   5.2167488729264E-06
(PID.TID 0000.0001) %MON dynstat_vvel_del2            =   3.9040346068571E-07
(PID.TID 0000.0001) %MON dynstat_wvel_max             =   2.9651208873756E-07
(PID.TID 0000.0001) %MON dynstat_wvel_min             =  -1.9820683158856E-07
(PID.TID 0000.0001) %MON dynstat_wvel_mean            =  -4.8754870901670E-10
(PID.TID 0000.0001) %MON dynstat_wvel_sd              =   2.0238237257224E-08
(PID.TID 0000.0001) %MON dynstat_wvel_del2            =   2.8336285134733E-09
(PID.TID 0000.0001) %MON dynstat_theta_max            =  -1.9000000000000E+00
(PID.TID 0000.0001) %MON dynstat_theta_min            =  -1.9038320474738E+00
(PID.TID 0000.0001) %MON dynstat_theta_mean           =  -1.9000696375368E+00
(PID.TID 0000.0001) %MON dynstat_theta_sd             =   3.2329851485415E-04
(PID.TID 0000.0001) %MON dynstat_theta_del2           =   1.4885963752136E-05
(PID.TID 0000.0001) %MON dynstat_salt_max             =   3.4400000000000E+01
(PID.TID 0000.0001) %MON dynstat_salt_min             =   3.4398594919168E+01
(PID.TID 0000.0001) %MON dynstat_salt_mean            =   3.4399971805913E+01
(PID.TID 0000.0001) %MON dynstat_salt_sd              =   1.2712450816907E-04
(PID.TID 0000.0001) %MON dynstat_salt_del2            =   5.7584588858220E-06
(PID.TID 0000.0001) %MON advcfl_uvel_max              =   8.3292811913556E-06
(PID.TID 0000.0001) %MON advcfl_vvel_max              =   1.7798299320218E-05
(PID.TID 0000.0001) %MON advcfl_wvel_max              =   1.7790725324254E-05
(PID.TID 0000.0001) %MON advcfl_W_hf_max              =   2.9847462697214E-05
(PID.TID 0000.0001) %MON pe_b_mean                    =   8.0035796864674E-09
(PID.TID 0000.0001) %MON ke_max                       =   1.6573359424071E-07
(PID.TID 0000.0001) %MON ke_mean                      =   8.0670726433950E-09
(PID.TID 0000.0001) %MON ke_vol                       =   4.9883516278638E+19
(PID.TID 0000.0001) %MON vort_r_min                   =  -5.1260611112853E-08
(PID.TID 0000.0001) %MON vort_r_max                   =   5.4014114851082E-08
(PID.TID 0000.0001) %MON vort_a_mean                  =  -1.4215272810579E-04
(PID.TID 0000.0001) %MON vort_a_sd                    =   7.4152470689453E-07
(PID.TID 0000.0001) %MON vort_p_mean                  =  -1.5364996877887E-04
(PID.TID 0000.0001) %MON vort_p_sd                    =   8.6032721702681E-05
(PID.TID 0000.0001) %MON surfExpan_theta_mean         =   5.9659819868526E-10
(PID.TID 0000.0001) %MON surfExpan_salt_mean          =  -1.0791850836027E-08
(PID.TID 0000.0001) // =======================================================
(PID.TID 0000.0001) // End MONITOR dynamic field statistics
(PID.TID 0000.0001) // =======================================================
 cg2d: Sum(rhs),rhsMax =   1.90072241893325E+01  9.79904736648118E-05
(PID.TID 0000.0001)                    cg2d_init_res =    5.84591904793663E+02
(PID.TID 0000.0001)                       cg2d_iters =   137
(PID.TID 0000.0001)                         cg2d_res =    9.81019915682669E-14
(PID.TID 0000.0001) // =======================================================
(PID.TID 0000.0001) // Begin MONITOR dynamic field statistics
(PID.TID 0000.0001) // =======================================================
(PID.TID 0000.0001) %MON time_tsnumber                =                     7
(PID.TID 0000.0001) %MON time_secondsf                =   1.2600000000000E+04
(PID.TID 0000.0001) %MON dynstat_eta_max              =   5.9783032743342E-04
(PID.TID 0000.0001) %MON dynstat_eta_min              =  -2.5737442311470E-05
(PID.TID 0000.0001) %MON dynstat_eta_mean             =  -1.7100948800141E-06
(PID.TID 0000.0001) %MON dynstat_eta_sd               =   9.4094180771912E-05
(PID.TID 0000.0001) %MON dynstat_eta_del2             =   6.8530726752343E-06
(PID.TID 0000.0001) %MON dynstat_uvel_max             =   9.0197914429242E-04
(PID.TID 0000.0001) %MON dynstat_uvel_min             =  -8.9345401408256E-04
(PID.TID 0000.0001) %MON dynstat_uvel_mean            =   3.4017270948647E-05
(PID.TID 0000.0001) %MON dynstat_uvel_sd              =   1.9745815974890E-04
(PID.TID 0000.0001) %MON dynstat_uvel_del2            =   8.7943082201129E-06
(PID.TID 0000.0001) %MON dynstat_vvel_max             =   1.0038406919458E-04
(PID.TID 0000.0001) %MON dynstat_vvel_min             =  -1.3628282151494E-04
(PID.TID 0000.0001) %MON dynstat_vvel_mean            =   1.3719812153862E-06
(PID.TID 0000.0001) %MON dynstat_vvel_sd              =   6.5685911293600E-06
(PID.TID 0000.0001) %MON dynstat_vvel_del2            =   4.9198680871718E-07
(PID.TID 0000.0001) %MON dynstat_wvel_max             =   3.7086283022929E-07
(PID.TID 0000.0001) %MON dynstat_wvel_min             =  -2.9337106030289E-07
(PID.TID 0000.0001) %MON dynstat_wvel_mean            =  -6.6852787943267E-10
(PID.TID 0000.0001) %MON dynstat_wvel_sd              =   2.6232706370792E-08
(PID.TID 0000.0001) %MON dynstat_wvel_del2            =   3.7036364529340E-09
(PID.TID 0000.0001) %MON dynstat_theta_max            =  -1.9000000000000E+00
(PID.TID 0000.0001) %MON dynstat_theta_min            =  -1.9044638753407E+00
(PID.TID 0000.0001) %MON dynstat_theta_mean           =  -1.9000812008578E+00
(PID.TID 0000.0001) %MON dynstat_theta_sd             =   3.7678224810581E-04
(PID.TID 0000.0001) %MON dynstat_theta_del2           =   1.7333458836725E-05
(PID.TID 0000.0001) %MON dynstat_salt_max             =   3.4400000000000E+01
(PID.TID 0000.0001) %MON dynstat_salt_min             =   3.4398363042440E+01
(PID.TID 0000.0001) %MON dynstat_salt_mean            =   3.4399967122505E+01
(PID.TID 0000.0001) %MON dynstat_salt_sd              =   1.4817078625072E-04
(PID.TID 0000.0001) %MON dynstat_salt_del2            =   6.7058765918083E-06
(PID.TID 0000.0001) %MON advcfl_uvel_max              =   1.2825574377207E-05
(PID.TID 0000.0001) %MON advcfl_vvel_max              =   2.2064638755563E-05
(PID.TID 0000.0001) %MON advcfl_wvel_max              =   2.2251769813757E-05
(PID.TID 0000.0001) %MON advcfl_W_hf_max              =   3.7214343953798E-05
(PID.TID 0000.0001) %MON pe_b_mean                    =   1.3147347542992E-08
(PID.TID 0000.0001) %MON ke_max                       =   4.0678516607709E-07
(PID.TID 0000.0001) %MON ke_mean                      =   1.9686651263212E-08
(PID.TID 0000.0001) %MON ke_vol                       =   4.9883516278638E+19
(PID.TID 0000.0001) %MON vort_r_min                   =  -7.9407446681537E-08
(PID.TID 0000.0001) %MON vort_r_max                   =   8.4165801636021E-08
(PID.TID 0000.0001) %MON vort_a_mean                  =  -1.4215289517424E-04
(PID.TID 0000.0001) %MON vort_a_sd                    =   7.4021798619887E-07
(PID.TID 0000.0001) %MON vort_p_mean                  =  -1.5365014935973E-04
(PID.TID 0000.0001) %MON vort_p_sd                    =   8.6030460937406E-05
(PID.TID 0000.0001) %MON surfExpan_theta_mean         =   8.2909271785022E-10
(PID.TID 0000.0001) %MON surfExpan_salt_mean          =  -1.4997002383935E-08
(PID.TID 0000.0001) // =======================================================
(PID.TID 0000.0001) // End MONITOR dynamic field statistics
(PID.TID 0000.0001) // =======================================================
 cg2d: Sum(rhs),rhsMax =   2.00085134745957E+01  1.12801315201934E-04
(PID.TID 0000.0001)                    cg2d_init_res =    6.03948300485217E+02
(PID.TID 0000.0001)                       cg2d_iters =   138
(PID.TID 0000.0001)                         cg2d_res =    9.82703331849980E-14
(PID.TID 0000.0001) // =======================================================
(PID.TID 0000.0001) // Begin MONITOR dynamic field statistics
(PID.TID 0000.0001) // =======================================================
(PID.TID 0000.0001) %MON time_tsnumber                =                     8
(PID.TID 0000.0001) %MON time_secondsf                =   1.4400000000000E+04
(PID.TID 0000.0001) %MON dynstat_eta_max              =   6.9876121512992E-04
(PID.TID 0000.0001) %MON dynstat_eta_min              =  -3.1059334081917E-05
(PID.TID 0000.0001) %MON dynstat_eta_mean             =  -2.7035194204288E-06
(PID.TID 0000.0001) %MON dynstat_eta_sd               =   1.1005778406631E-04
(PID.TID 0000.0001) %MON dynstat_eta_del2             =   8.0062059439520E-06
(PID.TID 0000.0001) %MON dynstat_uvel_max             =   1.3058702215167E-03
(PID.TID 0000.0001) %MON dynstat_uvel_min             =  -1.2843097333584E-03
(PID.TID 0000.0001) %MON dynstat_uvel_mean            =   4.9306051930421E-05
(PID.TID 0000.0001) %MON dynstat_uvel_sd              =   2.8518995016761E-04
(PID.TID 0000.0001) %MON dynstat_uvel_del2            =   1.2658256544140E-05
(PID.TID 0000.0001) %MON dynstat_vvel_max             =   1.2006882071963E-04
(PID.TID 0000.0001) %MON dynstat_vvel_min             =  -1.5983921863179E-04
(PID.TID 0000.0001) %MON dynstat_vvel_mean            =   1.6791416564098E-06
(PID.TID 0000.0001) %MON dynstat_vvel_sd              =   7.8336827606241E-06
(PID.TID 0000.0001) %MON dynstat_vvel_del2            =   5.8929438482220E-07
(PID.TID 0000.0001) %MON dynstat_wvel_max             =   4.3864920700215E-07
(PID.TID 0000.0001) %MON dynstat_wvel_min             =  -4.0632719388600E-07
(PID.TID 0000.0001) %MON dynstat_wvel_mean            =  -8.2924022850756E-10
(PID.TID 0000.0001) %MON dynstat_wvel_sd              =   3.3110111605281E-08
(PID.TID 0000.0001) %MON dynstat_wvel_del2            =   4.6727766795008E-09
(PID.TID 0000.0001) %MON dynstat_theta_max            =  -1.9000000000000E+00
(PID.TID 0000.0001) %MON dynstat_theta_min            =  -1.9050938248995E+00
(PID.TID 0000.0001) %MON dynstat_theta_mean           =  -1.9000927523166E+00
(PID.TID 0000.0001) %MON dynstat_theta_sd             =   4.3015616198831E-04
(PID.TID 0000.0001) %MON dynstat_theta_del2           =   1.9771800316091E-05
(PID.TID 0000.0001) %MON dynstat_salt_max             =   3.4400000000000E+01
(PID.TID 0000.0001) %MON dynstat_salt_min             =   3.4398131798163E+01
(PID.TID 0000.0001) %MON dynstat_salt_mean            =   3.4399962443412E+01
(PID.TID 0000.0001) %MON dynstat_salt_sd              =   1.6917821853665E-04
(PID.TID 0000.0001) %MON dynstat_salt_del2            =   7.6499245676060E-06
(PID.TID 0000.0001) %MON advcfl_uvel_max              =   1.8292123295796E-05
(PID.TID 0000.0001) %MON advcfl_vvel_max              =   2.5878497222742E-05
(PID.TID 0000.0001) %MON advcfl_wvel_max              =   2.6318952420129E-05
(PID.TID 0000.0001) %MON advcfl_W_hf_max              =   4.3867027651332E-05
(PID.TID 0000.0001) %MON pe_b_mean                    =   1.9551982761398E-08
(PID.TID 0000.0001) %MON ke_max                       =   8.5265286600790E-07
(PID.TID 0000.0001) %MON ke_mean                      =   4.1060019035243E-08
(PID.TID 0000.0001) %MON ke_vol                       =   4.9883516278638E+19
(PID.TID 0000.0001) %MON vort_r_min                   =  -1.1444783474599E-07
(PID.TID 0000.0001) %MON vort_r_max                   =   1.2122820023629E-07
(PID.TID 0000.0001) %MON vort_a_mean                  =  -1.4215310202870E-04
(PID.TID 0000.0001) %MON vort_a_sd                    =   7.3868199803684E-07
(PID.TID 0000.0001) %MON vort_p_mean                  =  -1.5365037294447E-04
(PID.TID 0000.0001) %MON vort_p_sd                    =   8.6027666831057E-05
(PID.TID 0000.0001) %MON surfExpan_theta_mean         =   1.0496731538222E-09
(PID.TID 0000.0001) %MON surfExpan_salt_mean          =  -1.8985013297111E-08
(PID.TID 0000.0001) // =======================================================
(PID.TID 0000.0001) // End MONITOR dynamic field statistics
(PID.TID 0000.0001) // =======================================================
 cg2d: Sum(rhs),rhsMax =   2.10802668995068E+01  1.27608247617253E-04
(PID.TID 0000.0001)                    cg2d_init_res =    6.24252775510453E+02
(PID.TID 0000.0001)                       cg2d_iters =   139
(PID.TID 0000.0001)                         cg2d_res =    4.31443053772894E-14
(PID.TID 0000.0001) // =======================================================
(PID.TID 0000.0001) // Begin MONITOR dynamic field statistics
(PID.TID 0000.0001) // =======================================================
(PID.TID 0000.0001) %MON time_tsnumber                =                     9
(PID.TID 0000.0001) %MON time_secondsf                =   1.6200000000000E+04
(PID.TID 0000.0001) %MON dynstat_eta_max              =   8.0530665832803E-04
(PID.TID 0000.0001) %MON dynstat_eta_min              =  -3.6845959032150E-05
(PID.TID 0000.0001) %MON dynstat_eta_mean             =  -3.9048310484007E-06
(PID.TID 0000.0001) %MON dynstat_eta_sd               =   1.2691671374705E-04
(PID.TID 0000.0001) %MON dynstat_eta_del2             =   9.2182393365116E-06
(PID.TID 0000.0001) %MON dynstat_uvel_max             =   1.7831154053563E-03
(PID.TID 0000.0001) %MON dynstat_uvel_min             =  -1.7420257780878E-03
(PID.TID 0000.0001) %MON dynstat_uvel_mean            =   6.7387835657224E-05
(PID.TID 0000.0001) %MON dynstat_uvel_sd              =   3.8857093115727E-04
(PID.TID 0000.0001) %MON dynstat_uvel_del2            =   1.7188479910620E-05
(PID.TID 0000.0001) %MON dynstat_vvel_max             =   1.3794260667039E-04
(PID.TID 0000.0001) %MON dynstat_vvel_min             =  -1.7895354068784E-04
(PID.TID 0000.0001) %MON dynstat_vvel_mean            =   1.9919008190603E-06
(PID.TID 0000.0001) %MON dynstat_vvel_sd              =   8.9488123513014E-06
(PID.TID 0000.0001) %MON dynstat_vvel_del2            =   6.7866462920513E-07
(PID.TID 0000.0001) %MON dynstat_wvel_max             =   5.1846345237389E-07
(PID.TID 0000.0001) %MON dynstat_wvel_min             =  -5.3445497549039E-07
(PID.TID 0000.0001) %MON dynstat_wvel_mean            =  -9.8191345886452E-10
(PID.TID 0000.0001) %MON dynstat_wvel_sd              =   4.1542660685312E-08
(PID.TID 0000.0001) %MON dynstat_wvel_del2            =   5.7471311057350E-09
(PID.TID 0000.0001) %MON dynstat_theta_max            =  -1.9000000000000E+00
(PID.TID 0000.0001) %MON dynstat_theta_min            =  -1.9057219034697E+00
(PID.TID 0000.0001) %MON dynstat_theta_mean           =  -1.9001042919357E+00
(PID.TID 0000.0001) %MON dynstat_theta_sd             =   4.8342064938142E-04
(PID.TID 0000.0001) %MON dynstat_theta_del2           =   2.2201034709745E-05
(PID.TID 0000.0001) %MON dynstat_salt_max             =   3.4400000000000E+01
(PID.TID 0000.0001) %MON dynstat_salt_min             =   3.4397901184085E+01
(PID.TID 0000.0001) %MON dynstat_salt_mean            =   3.4399957768626E+01
(PID.TID 0000.0001) %MON dynstat_salt_sd              =   1.9014693224941E-04
(PID.TID 0000.0001) %MON dynstat_salt_del2            =   8.5906193304525E-06
(PID.TID 0000.0001) %MON advcfl_uvel_max              =   2.4614835316946E-05
(PID.TID 0000.0001) %MON advcfl_vvel_max              =   2.8973169071593E-05
(PID.TID 0000.0001) %MON advcfl_wvel_max              =   3.2067298529423E-05
(PID.TID 0000.0001) %MON advcfl_W_hf_max              =   4.9457106465139E-05
(PID.TID 0000.0001) %MON pe_b_mean                    =   2.7216117320357E-08
(PID.TID 0000.0001) %MON ke_max                       =   1.5897596514336E-06
(PID.TID 0000.0001) %MON ke_mean                      =   7.6219806014370E-08
(PID.TID 0000.0001) %MON ke_vol                       =   4.9883516278638E+19
(PID.TID 0000.0001) %MON vort_r_min                   =  -1.5564548364280E-07
(PID.TID 0000.0001) %MON vort_r_max                   =   1.6469316305047E-07
(PID.TID 0000.0001) %MON vort_a_mean                  =  -1.4215334647516E-04
(PID.TID 0000.0001) %MON vort_a_sd                    =   7.3698286876344E-07
(PID.TID 0000.0001) %MON vort_p_mean                  =  -1.5365063716164E-04
(PID.TID 0000.0001) %MON vort_p_sd                    =   8.6024372116675E-05
(PID.TID 0000.0001) %MON surfExpan_theta_mean         =   1.2694609744841E-09
(PID.TID 0000.0001) %MON surfExpan_salt_mean          =  -2.2957821683572E-08
(PID.TID 0000.0001) // =======================================================
(PID.TID 0000.0001) // End MONITOR dynamic field statistics
(PID.TID 0000.0001) // =======================================================
 cg2d: Sum(rhs),rhsMax =   2.22329998091302E+01  1.42406052626792E-04
(PID.TID 0000.0001)                    cg2d_init_res =    6.44768358631061E+02
(PID.TID 0000.0001)                       cg2d_iters =   139
(PID.TID 0000.0001)                         cg2d_res =    4.70994000938058E-14
(PID.TID 0000.0001) // =======================================================
(PID.TID 0000.0001) // Begin MONITOR dynamic field statistics
(PID.TID 0000.0001) // =======================================================
(PID.TID 0000.0001) %MON time_tsnumber                =                    10
(PID.TID 0000.0001) %MON time_secondsf                =   1.8000000000000E+04
(PID.TID 0000.0001) %MON dynstat_eta_max              =   9.1936255473996E-04
(PID.TID 0000.0001) %MON dynstat_eta_min              =  -4.3273195525079E-05
(PID.TID 0000.0001) %MON dynstat_eta_mean             =  -5.3043964179153E-06
(PID.TID 0000.0001) %MON dynstat_eta_sd               =   1.4496353437508E-04
(PID.TID 0000.0001) %MON dynstat_eta_del2             =   1.0510509259901E-05
(PID.TID 0000.0001) %MON dynstat_uvel_max             =   2.3258262133210E-03
(PID.TID 0000.0001) %MON dynstat_uvel_min             =  -2.2579446464070E-03
(PID.TID 0000.0001) %MON dynstat_uvel_mean            =   8.7972577629818E-05
(PID.TID 0000.0001) %MON dynstat_uvel_sd              =   5.0584491080600E-04
(PID.TID 0000.0001) %MON dynstat_uvel_del2            =   2.2299885332164E-05
(PID.TID 0000.0001) %MON dynstat_vvel_max             =   1.5337663337845E-04
(PID.TID 0000.0001) %MON dynstat_vvel_min             =  -1.9238517243456E-04
(PID.TID 0000.0001) %MON dynstat_vvel_mean            =   2.3086573362882E-06
(PID.TID 0000.0001) %MON dynstat_vvel_sd              =   9.8765056209503E-06
(PID.TID 0000.0001) %MON dynstat_vvel_del2            =   7.5700394222373E-07
(PID.TID 0000.0001) %MON dynstat_wvel_max             =   6.4238571838983E-07
(PID.TID 0000.0001) %MON dynstat_wvel_min             =  -6.7427456557364E-07
(PID.TID 0000.0001) %MON dynstat_wvel_mean            =  -1.1170472739549E-09
(PID.TID 0000.0001) %MON dynstat_wvel_sd              =   5.2443741054650E-08
(PID.TID 0000.0001) %MON dynstat_wvel_del2            =   6.9334672789625E-09
(PID.TID 0000.0001) %MON dynstat_theta_max            =  -1.9000000000000E+00
(PID.TID 0000.0001) %MON dynstat_theta_min            =  -1.9063481173206E+00
(PID.TID 0000.0001) %MON dynstat_theta_mean           =  -1.9001158197375E+00
(PID.TID 0000.0001) %MON dynstat_theta_sd             =   5.3657609848417E-04
(PID.TID 0000.0001) %MON dynstat_theta_del2           =   2.4621207321821E-05
(PID.TID 0000.0001) %MON dynstat_salt_max             =   3.4400000000000E+01
(PID.TID 0000.0001) %MON dynstat_salt_min             =   3.4397671198338E+01
(PID.TID 0000.0001) %MON dynstat_salt_mean            =   3.4399953098143E+01
(PID.TID 0000.0001) %MON dynstat_salt_sd              =   2.1107705308122E-04
(PID.TID 0000.0001) %MON dynstat_salt_del2            =   9.5279769491737E-06
(PID.TID 0000.0001) %MON advcfl_uvel_max              =   3.1626622774502E-05
(PID.TID 0000.0001) %MON advcfl_vvel_max              =   3.1147794597355E-05
(PID.TID 0000.0001) %MON advcfl_wvel_max              =   4.0456473934418E-05
(PID.TID 0000.0001) %MON advcfl_W_hf_max              =   5.3644350470842E-05
(PID.TID 0000.0001) %MON pe_b_mean                    =   3.6096149720361E-08
(PID.TID 0000.0001) %MON ke_max                       =   2.7047533072402E-06
(PID.TID 0000.0001) %MON ke_mean                      =   1.2917118884166E-07
(PID.TID 0000.0001) %MON ke_vol                       =   4.9883516278638E+19
(PID.TID 0000.0001) %MON vort_r_min                   =  -2.0229177143939E-07
(PID.TID 0000.0001) %MON vort_r_max                   =   2.1372829453947E-07
(PID.TID 0000.0001) %MON vort_a_mean                  =  -1.4215362447497E-04
(PID.TID 0000.0001) %MON vort_a_sd                    =   7.3520246782187E-07
(PID.TID 0000.0001) %MON vort_p_mean                  =  -1.5365093764594E-04
(PID.TID 0000.0001) %MON vort_p_sd                    =   8.6020634645919E-05
(PID.TID 0000.0001) %MON surfExpan_theta_mean         =   1.4791305050911E-09
(PID.TID 0000.0001) %MON surfExpan_salt_mean          =  -2.6746506125878E-08
(PID.TID 0000.0001) // =======================================================
(PID.TID 0000.0001) // End MONITOR dynamic field statistics
(PID.TID 0000.0001) // =======================================================
 cg2d: Sum(rhs),rhsMax =   2.34513166829894E+01  1.57192700748174E-04
(PID.TID 0000.0001)                    cg2d_init_res =    6.66874615322088E+02
(PID.TID 0000.0001)                       cg2d_iters =   139
(PID.TID 0000.0001)                         cg2d_res =    5.09714271132421E-14
(PID.TID 0000.0001) // =======================================================
(PID.TID 0000.0001) // Begin MONITOR dynamic field statistics
(PID.TID 0000.0001) // =======================================================
(PID.TID 0000.0001) %MON time_tsnumber                =                    11
(PID.TID 0000.0001) %MON time_secondsf                =   1.9800000000000E+04
(PID.TID 0000.0001) %MON dynstat_eta_max              =   1.0417647511206E-03
(PID.TID 0000.0001) %MON dynstat_eta_min              =  -5.0372666204508E-05
(PID.TID 0000.0001) %MON dynstat_eta_mean             =  -6.8931788027187E-06
(PID.TID 0000.0001) %MON dynstat_eta_sd               =   1.6432660127122E-04
(PID.TID 0000.0001) %MON dynstat_eta_del2             =   1.1891367887801E-05
(PID.TID 0000.0001) %MON dynstat_uvel_max             =   2.9237723615764E-03
(PID.TID 0000.0001) %MON dynstat_uvel_min             =  -2.8214869054367E-03
(PID.TID 0000.0001) %MON dynstat_uvel_mean            =   1.1068141774443E-04
(PID.TID 0000.0001) %MON dynstat_uvel_sd              =   6.3478309764257E-04
(PID.TID 0000.0001) %MON dynstat_uvel_del2            =   2.7897583952150E-05
(PID.TID 0000.0001) %MON dynstat_vvel_max             =   1.6598394985251E-04
(PID.TID 0000.0001) %MON dynstat_vvel_min             =  -1.9925398372754E-04
(PID.TID 0000.0001) %MON dynstat_vvel_mean            =   2.6286307522051E-06
(PID.TID 0000.0001) %MON dynstat_vvel_sd              =   1.0615319093356E-05
(PID.TID 0000.0001) %MON dynstat_vvel_del2            =   8.2298128910576E-07
(PID.TID 0000.0001) %MON dynstat_wvel_max             =   7.7024128136427E-07
(PID.TID 0000.0001) %MON dynstat_wvel_min             =  -8.2170527894749E-07
(PID.TID 0000.0001) %MON dynstat_wvel_mean            =  -1.2370894963261E-09
(PID.TID 0000.0001) %MON dynstat_wvel_sd              =   6.6897562491322E-08
(PID.TID 0000.0001) %MON dynstat_wvel_del2            =   8.2470526647393E-09
(PID.TID 0000.0001) %MON dynstat_theta_max            =  -1.9000000000000E+00
(PID.TID 0000.0001) %MON dynstat_theta_min            =  -1.9069724718684E+00
(PID.TID 0000.0001) %MON dynstat_theta_mean           =  -1.9001273357436E+00
(PID.TID 0000.0001) %MON dynstat_theta_sd             =   5.8962289621459E-04
(PID.TID 0000.0001) %MON dynstat_theta_del2           =   2.7032363040323E-05
(PID.TID 0000.0001) %MON dynstat_salt_max             =   3.4400000000000E+01
(PID.TID 0000.0001) %MON dynstat_salt_min             =   3.4397441839359E+01
(PID.TID 0000.0001) %MON dynstat_salt_mean            =   3.4399948431954E+01
(PID.TID 0000.0001) %MON dynstat_salt_sd              =   2.3196870634410E-04
(PID.TID 0000.0001) %MON dynstat_salt_del2            =   1.0462013354148E-05
(PID.TID 0000.0001) %MON advcfl_uvel_max              =   3.9119237389148E-05
(PID.TID 0000.0001) %MON advcfl_vvel_max              =   3.2259877823801E-05
(PID.TID 0000.0001) %MON advcfl_wvel_max              =   4.9302316736849E-05
(PID.TID 0000.0001) %MON advcfl_W_hf_max              =   5.6237230878456E-05
(PID.TID 0000.0001) %MON pe_b_mean                    =   4.6127144239026E-08
(PID.TID 0000.0001) %MON ke_max                       =   4.2742610601435E-06
(PID.TID 0000.0001) %MON ke_mean                      =   2.0342362643155E-07
(PID.TID 0000.0001) %MON ke_vol                       =   4.9883516278638E+19
(PID.TID 0000.0001) %MON vort_r_min                   =  -2.5350467888286E-07
(PID.TID 0000.0001) %MON vort_r_max                   =   2.6730355737166E-07
(PID.TID 0000.0001) %MON vort_a_mean                  =  -1.4215393079199E-04
(PID.TID 0000.0001) %MON vort_a_sd                    =   7.3342744734917E-07
(PID.TID 0000.0001) %MON vort_p_mean                  =  -1.5365126873771E-04
(PID.TID 0000.0001) %MON vort_p_sd                    =   8.6016528884176E-05
(PID.TID 0000.0001) %MON surfExpan_theta_mean         =   1.6792857005829E-09
(PID.TID 0000.0001) %MON surfExpan_salt_mean          =  -3.0362477980537E-08
(PID.TID 0000.0001) // =======================================================
(PID.TID 0000.0001) // End MONITOR dynamic field statistics
(PID.TID 0000.0001) // =======================================================
 cg2d: Sum(rhs),rhsMax =   2.47282601096180E+01  1.71968715564903E-04
(PID.TID 0000.0001)                    cg2d_init_res =    6.90671850555700E+02
(PID.TID 0000.0001)                       cg2d_iters =   139
(PID.TID 0000.0001)                         cg2d_res =    5.36634560296457E-14
(PID.TID 0000.0001) // =======================================================
(PID.TID 0000.0001) // Begin MONITOR dynamic field statistics
(PID.TID 0000.0001) // =======================================================
(PID.TID 0000.0001) %MON time_tsnumber                =                    12
(PID.TID 0000.0001) %MON time_secondsf                =   2.1600000000000E+04
(PID.TID 0000.0001) %MON dynstat_eta_max              =   1.1736017279102E-03
(PID.TID 0000.0001) %MON dynstat_eta_min              =  -5.8180728654740E-05
(PID.TID 0000.0001) %MON dynstat_eta_mean             =  -8.6600561491830E-06
(PID.TID 0000.0001) %MON dynstat_eta_sd               =   1.8517322870385E-04
(PID.TID 0000.0001) %MON dynstat_eta_del2             =   1.3372111804230E-05
(PID.TID 0000.0001) %MON dynstat_uvel_max             =   3.5650597183839E-03
(PID.TID 0000.0001) %MON dynstat_uvel_min             =  -3.4208904266374E-03
(PID.TID 0000.0001) %MON dynstat_uvel_mean            =   1.3507265423001E-04
(PID.TID 0000.0001) %MON dynstat_uvel_sd              =   7.7283411446299E-04
(PID.TID 0000.0001) %MON dynstat_uvel_del2            =   3.3866399706544E-05
(PID.TID 0000.0001) %MON dynstat_vvel_max             =   1.7560963423833E-04
(PID.TID 0000.0001) %MON dynstat_vvel_min             =  -1.9912642572438E-04
(PID.TID 0000.0001) %MON dynstat_vvel_mean            =   2.9530670304144E-06
(PID.TID 0000.0001) %MON dynstat_vvel_sd              =   1.1209565067702E-05
(PID.TID 0000.0001) %MON dynstat_vvel_del2            =   8.7600937698197E-07
(PID.TID 0000.0001) %MON dynstat_wvel_max             =   8.9804933739477E-07
(PID.TID 0000.0001) %MON dynstat_wvel_min             =  -9.7234613947151E-07
(PID.TID 0000.0001) %MON dynstat_wvel_mean            =  -1.3390945308779E-09
(PID.TID 0000.0001) %MON dynstat_wvel_sd              =   8.5801876929424E-08
(PID.TID 0000.0001) %MON dynstat_wvel_del2            =   9.7003300625729E-09
(PID.TID 0000.0001) %MON dynstat_theta_max            =  -1.9000000000000E+00
(PID.TID 0000.0001) %MON dynstat_theta_min            =  -1.9075949715815E+00
(PID.TID 0000.0001) %MON dynstat_theta_mean           =  -1.9001388399755E+00
(PID.TID 0000.0001) %MON dynstat_theta_sd             =   6.4256142652475E-04
(PID.TID 0000.0001) %MON dynstat_theta_del2           =   2.9434546261518E-05
(PID.TID 0000.0001) %MON dynstat_salt_max             =   3.4400000000000E+01
(PID.TID 0000.0001) %MON dynstat_salt_min             =   3.4397213105930E+01
(PID.TID 0000.0001) %MON dynstat_salt_mean            =   3.4399943770055E+01
(PID.TID 0000.0001) %MON dynstat_salt_sd              =   2.5282201640535E-04
(PID.TID 0000.0001) %MON dynstat_salt_del2            =   1.1392744300970E-05
(PID.TID 0000.0001) %MON advcfl_uvel_max              =   4.6857985184854E-05
(PID.TID 0000.0001) %MON advcfl_vvel_max              =   3.2239225761944E-05
(PID.TID 0000.0001) %MON advcfl_wvel_max              =   5.8340768368291E-05
(PID.TID 0000.0001) %MON advcfl_W_hf_max              =   5.8340768368291E-05
(PID.TID 0000.0001) %MON pe_b_mean                    =   5.7243166782293E-08
(PID.TID 0000.0001) %MON ke_max                       =   6.3548978402270E-06
(PID.TID 0000.0001) %MON ke_mean                      =   3.0154546540912E-07
(PID.TID 0000.0001) %MON ke_vol                       =   4.9883516278638E+19
(PID.TID 0000.0001) %MON vort_r_min                   =  -3.0828743209778E-07
(PID.TID 0000.0001) %MON vort_r_max                   =   3.2426460815954E-07
(PID.TID 0000.0001) %MON vort_a_mean                  =  -1.4215425933930E-04
(PID.TID 0000.0001) %MON vort_a_sd                    =   7.3174114009815E-07
(PID.TID 0000.0001) %MON vort_p_mean                  =  -1.5365162385777E-04
(PID.TID 0000.0001) %MON vort_p_sd                    =   8.6012140845790E-05
(PID.TID 0000.0001) %MON surfExpan_theta_mean         =   1.8677228421727E-09
(PID.TID 0000.0001) %MON surfExpan_salt_mean          =  -3.3765885488660E-08
(PID.TID 0000.0001) // =======================================================
(PID.TID 0000.0001) // End MONITOR dynamic field statistics
(PID.TID 0000.0001) // =======================================================
 cg2d: Sum(rhs),rhsMax =   2.50041910703133E+01  1.94570367188503E-04
(PID.TID 0000.0001)                    cg2d_init_res =    6.87547593282792E+02
(PID.TID 0000.0001)                       cg2d_iters =   139
(PID.TID 0000.0001)                         cg2d_res =    5.18710134814484E-14
(PID.TID 0000.0001) // =======================================================
(PID.TID 0000.0001) // Begin MONITOR dynamic field statistics
(PID.TID 0000.0001) // =======================================================
(PID.TID 0000.0001) %MON time_tsnumber                =                    13
(PID.TID 0000.0001) %MON time_secondsf                =   2.3400000000000E+04
(PID.TID 0000.0001) %MON dynstat_eta_max              =   1.3155475301943E-03
(PID.TID 0000.0001) %MON dynstat_eta_min              =  -6.6708025903344E-05
(PID.TID 0000.0001) %MON dynstat_eta_mean             =  -1.0595117561941E-05
(PID.TID 0000.0001) %MON dynstat_eta_sd               =   2.0760623998078E-04
(PID.TID 0000.0001) %MON dynstat_eta_del2             =   1.4959477923065E-05
(PID.TID 0000.0001) %MON dynstat_uvel_max             =   4.2371558275803E-03
(PID.TID 0000.0001) %MON dynstat_uvel_min             =  -4.0442543774556E-03
(PID.TID 0000.0001) %MON dynstat_uvel_mean            =   1.6067982963629E-04
(PID.TID 0000.0001) %MON dynstat_uvel_sd              =   9.1734665873338E-04
(PID.TID 0000.0001) %MON dynstat_uvel_del2            =   4.0090600958771E-05
(PID.TID 0000.0001) %MON dynstat_vvel_max             =   1.8233091153813E-04
(PID.TID 0000.0001) %MON dynstat_vvel_min             =  -1.9200255397268E-04
(PID.TID 0000.0001) %MON dynstat_vvel_mean            =   3.2836542525939E-06
(PID.TID 0000.0001) %MON dynstat_vvel_sd              =   1.1754768108545E-05
(PID.TID 0000.0001) %MON dynstat_vvel_del2            =   9.1692258010647E-07
(PID.TID 0000.0001) %MON dynstat_wvel_max             =   1.0220264399538E-06
(PID.TID 0000.0001) %MON dynstat_wvel_min             =  -1.1217629961483E-06
(PID.TID 0000.0001) %MON dynstat_wvel_mean            =  -1.4234651199337E-09
(PID.TID 0000.0001) %MON dynstat_wvel_sd              =   1.0973485858501E-07
(PID.TID 0000.0001) %MON dynstat_wvel_del2            =   1.1306131989871E-08
(PID.TID 0000.0001) %MON dynstat_theta_max            =  -1.9000000000000E+00
(PID.TID 0000.0001) %MON dynstat_theta_min            =  -1.9082156201589E+00
(PID.TID 0000.0001) %MON dynstat_theta_mean           =  -1.9001503324544E+00
(PID.TID 0000.0001) %MON dynstat_theta_sd             =   6.9539207162639E-04
(PID.TID 0000.0001) %MON dynstat_theta_del2           =   3.1827801068563E-05
(PID.TID 0000.0001) %MON dynstat_salt_max             =   3.4400000000000E+01
(PID.TID 0000.0001) %MON dynstat_salt_min             =   3.4396984997109E+01
(PID.TID 0000.0001) %MON dynstat_salt_mean            =   3.4399939112438E+01
(PID.TID 0000.0001) %MON dynstat_salt_sd              =   2.7363710710526E-04
(PID.TID 0000.0001) %MON dynstat_salt_del2            =   1.2320185440140E-05
(PID.TID 0000.0001) %MON advcfl_uvel_max              =   5.4598045370162E-05
(PID.TID 0000.0001) %MON advcfl_vvel_max              =   3.1085847405120E-05
(PID.TID 0000.0001) %MON advcfl_wvel_max              =   6.7305779768901E-05
(PID.TID 0000.0001) %MON advcfl_W_hf_max              =   6.7305779768901E-05
(PID.TID 0000.0001) %MON pe_b_mean                    =   6.9387874321633E-08
(PID.TID 0000.0001) %MON ke_max                       =   8.9768731748895E-06
(PID.TID 0000.0001) %MON ke_mean                      =   4.2489574469142E-07
(PID.TID 0000.0001) %MON ke_vol                       =   4.9883516278638E+19
(PID.TID 0000.0001) %MON vort_r_min                   =  -3.6561667425211E-07
(PID.TID 0000.0001) %MON vort_r_max                   =   3.8343567936351E-07
(PID.TID 0000.0001) %MON vort_a_mean                  =  -1.4215460370497E-04
(PID.TID 0000.0001) %MON vort_a_sd                    =   7.3021592407439E-07
(PID.TID 0000.0001) %MON vort_p_mean                  =  -1.5365199607556E-04
(PID.TID 0000.0001) %MON vort_p_sd                    =   8.6007560835553E-05
(PID.TID 0000.0001) %MON surfExpan_theta_mean         =   2.0457180285383E-09
(PID.TID 0000.0001) %MON surfExpan_salt_mean          =  -3.6979876137229E-08
(PID.TID 0000.0001) // =======================================================
(PID.TID 0000.0001) // End MONITOR dynamic field statistics
(PID.TID 0000.0001) // =======================================================
 cg2d: Sum(rhs),rhsMax =   2.46795289393477E+01  2.23856907533701E-04
(PID.TID 0000.0001)                    cg2d_init_res =    6.69652839798812E+02
(PID.TID 0000.0001)                       cg2d_iters =   136
(PID.TID 0000.0001)                         cg2d_res =    9.47873081327662E-14
(PID.TID 0000.0001) // =======================================================
(PID.TID 0000.0001) // Begin MONITOR dynamic field statistics
(PID.TID 0000.0001) // =======================================================
(PID.TID 0000.0001) %MON time_tsnumber                =                    14
(PID.TID 0000.0001) %MON time_secondsf                =   2.5200000000000E+04
(PID.TID 0000.0001) %MON dynstat_eta_max              =   1.4681519669434E-03
(PID.TID 0000.0001) %MON dynstat_eta_min              =  -7.5972481799766E-05
(PID.TID 0000.0001) %MON dynstat_eta_mean             =  -1.2690089409585E-05
(PID.TID 0000.0001) %MON dynstat_eta_sd               =   2.3170944119590E-04
(PID.TID 0000.0001) %MON dynstat_eta_del2             =   1.6659278559790E-05
(PID.TID 0000.0001) %MON dynstat_uvel_max             =   4.9277753551047E-03
(PID.TID 0000.0001) %MON dynstat_uvel_min             =  -4.6803985608823E-03
(PID.TID 0000.0001) %MON dynstat_uvel_mean            =   1.8704482663127E-04
(PID.TID 0000.0001) %MON dynstat_uvel_sd              =   1.0657571562251E-03
(PID.TID 0000.0001) %MON dynstat_uvel_del2            =   4.6462212544654E-05
(PID.TID 0000.0001) %MON dynstat_vvel_max             =   1.8642874974720E-04
(PID.TID 0000.0001) %MON dynstat_vvel_min             =  -1.7830906566590E-04
(PID.TID 0000.0001) %MON dynstat_vvel_mean            =   3.6228044100695E-06
(PID.TID 0000.0001) %MON dynstat_vvel_sd              =   1.2390928050635E-05
(PID.TID 0000.0001) %MON dynstat_vvel_del2            =   9.5107772395623E-07
(PID.TID 0000.0001) %MON dynstat_wvel_max             =   1.1426864777653E-06
(PID.TID 0000.0001) %MON dynstat_wvel_min             =  -1.2657668814506E-06
(PID.TID 0000.0001) %MON dynstat_wvel_mean            =  -1.4912804515848E-09
(PID.TID 0000.0001) %MON dynstat_wvel_sd              =   1.3886958460008E-07
(PID.TID 0000.0001) %MON dynstat_wvel_del2            =   1.3075673574662E-08
(PID.TID 0000.0001) %MON dynstat_theta_max            =  -1.9000000000000E+00
(PID.TID 0000.0001) %MON dynstat_theta_min            =  -1.9088344206785E+00
(PID.TID 0000.0001) %MON dynstat_theta_mean           =  -1.9001618132012E+00
(PID.TID 0000.0001) %MON dynstat_theta_sd             =   7.4811521164510E-04
(PID.TID 0000.0001) %MON dynstat_theta_del2           =   3.4212171132687E-05
(PID.TID 0000.0001) %MON dynstat_salt_max             =   3.4400000000000E+01
(PID.TID 0000.0001) %MON dynstat_salt_min             =   3.4396757512179E+01
(PID.TID 0000.0001) %MON dynstat_salt_mean            =   3.4399934459097E+01
(PID.TID 0000.0001) %MON dynstat_salt_sd              =   2.9441410163929E-04
(PID.TID 0000.0001) %MON dynstat_salt_del2            =   1.3244352278560E-05
(PID.TID 0000.0001) %MON advcfl_uvel_max              =   6.2100888559487E-05
(PID.TID 0000.0001) %MON advcfl_vvel_max              =   3.0183430098504E-05
(PID.TID 0000.0001) %MON advcfl_wvel_max              =   7.5946012887038E-05
(PID.TID 0000.0001) %MON advcfl_W_hf_max              =   7.5946012887038E-05
(PID.TID 0000.0001) %MON pe_b_mean                    =   8.2517283852591E-08
(PID.TID 0000.0001) %MON ke_max                       =   1.2141700650365E-05
(PID.TID 0000.0001) %MON ke_mean                      =   5.7354811646905E-07
(PID.TID 0000.0001) %MON ke_vol                       =   4.9883516278638E+19
(PID.TID 0000.0001) %MON vort_r_min                   =  -4.2451421253835E-07
(PID.TID 0000.0001) %MON vort_r_max                   =   4.4370649885707E-07
(PID.TID 0000.0001) %MON vort_a_mean                  =  -1.4215495760501E-04
(PID.TID 0000.0001) %MON vort_a_sd                    =   7.2890844189011E-07
(PID.TID 0000.0001) %MON vort_p_mean                  =  -1.5365237859886E-04
(PID.TID 0000.0001) %MON vort_p_sd                    =   8.6002877092672E-05
(PID.TID 0000.0001) %MON surfExpan_theta_mean         =   2.2150025112806E-09
(PID.TID 0000.0001) %MON surfExpan_salt_mean          =  -4.0035738843388E-08
(PID.TID 0000.0001) // =======================================================
(PID.TID 0000.0001) // End MONITOR dynamic field statistics
(PID.TID 0000.0001) // =======================================================
 cg2d: Sum(rhs),rhsMax =   2.43039773100751E+01  2.56399788859945E-04
(PID.TID 0000.0001)                    cg2d_init_res =    6.52200675436093E+02
(PID.TID 0000.0001)                       cg2d_iters =   136
(PID.TID 0000.0001)                         cg2d_res =    9.39807766068884E-14
(PID.TID 0000.0001) // =======================================================
(PID.TID 0000.0001) // Begin MONITOR dynamic field statistics
(PID.TID 0000.0001) // =======================================================
(PID.TID 0000.0001) %MON time_tsnumber                =                    15
(PID.TID 0000.0001) %MON time_secondsf                =   2.7000000000000E+04
(PID.TID 0000.0001) %MON dynstat_eta_max              =   1.6317464690138E-03
(PID.TID 0000.0001) %MON dynstat_eta_min              =  -8.5985979439871E-05
(PID.TID 0000.0001) %MON dynstat_eta_mean             =  -1.4939079722243E-05
(PID.TID 0000.0001) %MON dynstat_eta_sd               =   2.5753314552201E-04
(PID.TID 0000.0001) %MON dynstat_eta_del2             =   1.8475272456166E-05
(PID.TID 0000.0001) %MON dynstat_uvel_max             =   5.6257651727432E-03
(PID.TID 0000.0001) %MON dynstat_uvel_min             =  -5.3196775868265E-03
(PID.TID 0000.0001) %MON dynstat_uvel_mean            =   2.1375064810785E-04
(PID.TID 0000.0001) %MON dynstat_uvel_sd              =   1.2157740203700E-03
(PID.TID 0000.0001) %MON dynstat_uvel_del2            =   5.2891551105735E-05
(PID.TID 0000.0001) %MON dynstat_vvel_max             =   1.8835423424535E-04
(PID.TID 0000.0001) %MON dynstat_vvel_min             =  -1.5885384677509E-04
(PID.TID 0000.0001) %MON dynstat_vvel_mean            =   3.9730657273465E-06
(PID.TID 0000.0001) %MON dynstat_vvel_sd              =   1.3274699729145E-05
(PID.TID 0000.0001) %MON dynstat_vvel_del2            =   9.7769748919160E-07
(PID.TID 0000.0001) %MON dynstat_wvel_max             =   1.2780528951027E-06
(PID.TID 0000.0001) %MON dynstat_wvel_min             =  -1.4783460770866E-06
(PID.TID 0000.0001) %MON dynstat_wvel_mean            =  -1.5453185065728E-09
(PID.TID 0000.0001) %MON dynstat_wvel_sd              =   1.7300288617446E-07
(PID.TID 0000.0001) %MON dynstat_wvel_del2            =   1.5008321555077E-08
(PID.TID 0000.0001) %MON dynstat_theta_max            =  -1.9000000000000E+00
(PID.TID 0000.0001) %MON dynstat_theta_min            =  -1.9094513758437E+00
(PID.TID 0000.0001) %MON dynstat_theta_mean           =  -1.9001732822365E+00
(PID.TID 0000.0001) %MON dynstat_theta_sd             =   8.0073122481575E-04
(PID.TID 0000.0001) %MON dynstat_theta_del2           =   3.6587699631368E-05
(PID.TID 0000.0001) %MON dynstat_salt_max             =   3.4400000000000E+01
(PID.TID 0000.0001) %MON dynstat_salt_min             =   3.4396530650557E+01
(PID.TID 0000.0001) %MON dynstat_salt_mean            =   3.4399929810028E+01
(PID.TID 0000.0001) %MON dynstat_salt_sd              =   3.1515312262248E-04
(PID.TID 0000.0001) %MON dynstat_salt_del2            =   1.4165260150347E-05
(PID.TID 0000.0001) %MON advcfl_uvel_max              =   6.9149827908607E-05
(PID.TID 0000.0001) %MON advcfl_vvel_max              =   3.0495172395948E-05
(PID.TID 0000.0001) %MON advcfl_wvel_max              =   8.8700764625198E-05
(PID.TID 0000.0001) %MON advcfl_W_hf_max              =   8.8700764625198E-05
(PID.TID 0000.0001) %MON pe_b_mean                    =   9.6599913876321E-08
(PID.TID 0000.0001) %MON ke_max                       =   1.5824960951696E-05
(PID.TID 0000.0001) %MON ke_mean                      =   7.4644446515077E-07
(PID.TID 0000.0001) %MON ke_vol                       =   4.9883516278638E+19
(PID.TID 0000.0001) %MON vort_r_min                   =  -4.8411661879102E-07
(PID.TID 0000.0001) %MON vort_r_max                   =   5.0411495688640E-07
(PID.TID 0000.0001) %MON vort_a_mean                  =  -1.4215531533618E-04
(PID.TID 0000.0001) %MON vort_a_sd                    =   7.2785747941739E-07
(PID.TID 0000.0001) %MON vort_p_mean                  =  -1.5365276526314E-04
(PID.TID 0000.0001) %MON vort_p_sd                    =   8.5998169530424E-05
(PID.TID 0000.0001) %MON surfExpan_theta_mean         =   2.3780917341636E-09
(PID.TID 0000.0001) %MON surfExpan_salt_mean          =  -4.2978989247497E-08
(PID.TID 0000.0001) // =======================================================
(PID.TID 0000.0001) // End MONITOR dynamic field statistics
(PID.TID 0000.0001) // =======================================================
 cg2d: Sum(rhs),rhsMax =   2.39002329234809E+01  2.92286031396115E-04
(PID.TID 0000.0001)                    cg2d_init_res =    6.35561475183537E+02
(PID.TID 0000.0001)                       cg2d_iters =   136
(PID.TID 0000.0001)                         cg2d_res =    9.20659819021271E-14
(PID.TID 0000.0001) // =======================================================
(PID.TID 0000.0001) // Begin MONITOR dynamic field statistics
(PID.TID 0000.0001) // =======================================================
(PID.TID 0000.0001) %MON time_tsnumber                =                    16
(PID.TID 0000.0001) %MON time_secondsf                =   2.8800000000000E+04
(PID.TID 0000.0001) %MON dynstat_eta_max              =   1.8065209061418E-03
(PID.TID 0000.0001) %MON dynstat_eta_min              =  -9.6755267295780E-05
(PID.TID 0000.0001) %MON dynstat_eta_mean             =  -1.7338204618313E-05
(PID.TID 0000.0001) %MON dynstat_eta_sd               =   2.8510594530878E-04
(PID.TID 0000.0001) %MON dynstat_eta_del2             =   2.0409666908018E-05
(PID.TID 0000.0001) %MON dynstat_uvel_max             =   6.3218546385129E-03
(PID.TID 0000.0001) %MON dynstat_uvel_min             =  -5.9546208807743E-03
(PID.TID 0000.0001) %MON dynstat_uvel_mean            =   2.4044925916313E-04
(PID.TID 0000.0001) %MON dynstat_uvel_sd              =   1.3655296419714E-03
(PID.TID 0000.0001) %MON dynstat_uvel_del2            =   5.9302313224249E-05
(PID.TID 0000.0001) %MON dynstat_vvel_max             =   1.8868599407096E-04
(PID.TID 0000.0001) %MON dynstat_vvel_min             =  -1.3476380250922E-04
(PID.TID 0000.0001) %MON dynstat_vvel_mean            =   4.3366795969223E-06
(PID.TID 0000.0001) %MON dynstat_vvel_sd              =   1.4532302866093E-05
(PID.TID 0000.0001) %MON dynstat_vvel_del2            =   1.0021998906594E-06
(PID.TID 0000.0001) %MON dynstat_wvel_max             =   1.4029964755947E-06
(PID.TID 0000.0001) %MON dynstat_wvel_min             =  -1.7887734981529E-06
(PID.TID 0000.0001) %MON dynstat_wvel_mean            =  -1.5887692112688E-09
(PID.TID 0000.0001) %MON dynstat_wvel_sd              =   2.1159039409585E-07
(PID.TID 0000.0001) %MON dynstat_wvel_del2            =   1.7103671251120E-08
(PID.TID 0000.0001) %MON dynstat_theta_max            =  -1.9000000000000E+00
(PID.TID 0000.0001) %MON dynstat_theta_min            =  -1.9100664882424E+00
(PID.TID 0000.0001) %MON dynstat_theta_mean           =  -1.9001847395810E+00
(PID.TID 0000.0001) %MON dynstat_theta_sd             =   8.5324048734683E-04
(PID.TID 0000.0001) %MON dynstat_theta_del2           =   3.8954429107188E-05
(PID.TID 0000.0001) %MON dynstat_salt_max             =   3.4400000000000E+01
(PID.TID 0000.0001) %MON dynstat_salt_min             =   3.4396304411702E+01
(PID.TID 0000.0001) %MON dynstat_salt_mean            =   3.4399925165220E+01
(PID.TID 0000.0001) %MON dynstat_salt_sd              =   3.3585429204223E-04
(PID.TID 0000.0001) %MON dynstat_salt_del2            =   1.5082924165721E-05
(PID.TID 0000.0001) %MON advcfl_uvel_max              =   7.5563645756650E-05
(PID.TID 0000.0001) %MON advcfl_vvel_max              =   3.0548885407055E-05
(PID.TID 0000.0001) %MON advcfl_wvel_max              =   1.0732640988917E-04
(PID.TID 0000.0001) %MON advcfl_W_hf_max              =   1.0732640988917E-04
(PID.TID 0000.0001) %MON pe_b_mean                    =   1.1161561683765E-07
(PID.TID 0000.0001) %MON ke_max                       =   1.9983446007475E-05
(PID.TID 0000.0001) %MON ke_mean                      =   9.4174026619219E-07
(PID.TID 0000.0001) %MON ke_vol                       =   4.9883516278638E+19
(PID.TID 0000.0001) %MON vort_r_min                   =  -5.4373094439410E-07
(PID.TID 0000.0001) %MON vort_r_max                   =   5.6581294595054E-07
(PID.TID 0000.0001) %MON vort_a_mean                  =  -1.4215567215919E-04
(PID.TID 0000.0001) %MON vort_a_sd                    =   7.2708470452300E-07
(PID.TID 0000.0001) %MON vort_p_mean                  =  -1.5365315094582E-04
(PID.TID 0000.0001) %MON vort_p_sd                    =   8.5993504445859E-05
(PID.TID 0000.0001) %MON surfExpan_theta_mean         =   2.5371075812872E-09
(PID.TID 0000.0001) %MON surfExpan_salt_mean          =  -4.5848003283836E-08
(PID.TID 0000.0001) // =======================================================
(PID.TID 0000.0001) // End MONITOR dynamic field statistics
(PID.TID 0000.0001) // =======================================================
 cg2d: Sum(rhs),rhsMax =   2.34862155776408E+01  3.31558475462812E-04
(PID.TID 0000.0001)                    cg2d_init_res =    6.19957945352960E+02
(PID.TID 0000.0001)                       cg2d_iters =   136
(PID.TID 0000.0001)                         cg2d_res =    9.46221720378365E-14
(PID.TID 0000.0001) // =======================================================
(PID.TID 0000.0001) // Begin MONITOR dynamic field statistics
(PID.TID 0000.0001) // =======================================================
(PID.TID 0000.0001) %MON time_tsnumber                =                    17
(PID.TID 0000.0001) %MON time_secondsf                =   3.0600000000000E+04
(PID.TID 0000.0001) %MON dynstat_eta_max              =   1.9925304297740E-03
(PID.TID 0000.0001) %MON dynstat_eta_min              =  -1.0827942635073E-04
(PID.TID 0000.0001) %MON dynstat_eta_mean             =  -1.9884993416278E-05
(PID.TID 0000.0001) %MON dynstat_eta_sd               =   3.1443552742609E-04
(PID.TID 0000.0001) %MON dynstat_eta_del2             =   2.2462767284439E-05
(PID.TID 0000.0001) %MON dynstat_uvel_max             =   7.0092629118888E-03
(PID.TID 0000.0001) %MON dynstat_uvel_min             =  -6.5803990664402E-03
(PID.TID 0000.0001) %MON dynstat_uvel_mean            =   2.6688416117214E-04
(PID.TID 0000.0001) %MON dynstat_uvel_sd              =   1.5136994044416E-03
(PID.TID 0000.0001) %MON dynstat_uvel_del2            =   6.5645001808009E-05
(PID.TID 0000.0001) %MON dynstat_vvel_max             =   1.8808506678795E-04
(PID.TID 0000.0001) %MON dynstat_vvel_min             =  -1.3667816262210E-04
(PID.TID 0000.0001) %MON dynstat_vvel_mean            =   4.7150286966716E-06
(PID.TID 0000.0001) %MON dynstat_vvel_sd              =   1.6216788789960E-05
(PID.TID 0000.0001) %MON dynstat_vvel_del2            =   1.0260655203806E-06
(PID.TID 0000.0001) %MON dynstat_wvel_max             =   1.5180050095017E-06
(PID.TID 0000.0001) %MON dynstat_wvel_min             =  -2.1245743582911E-06
(PID.TID 0000.0001) %MON dynstat_wvel_mean            =  -1.6250017201549E-09
(PID.TID 0000.0001) %MON dynstat_wvel_sd              =   2.5379906729165E-07
(PID.TID 0000.0001) %MON dynstat_wvel_del2            =   1.9366395664196E-08
(PID.TID 0000.0001) %MON dynstat_theta_max            =  -1.9000000000000E+00
(PID.TID 0000.0001) %MON dynstat_theta_min            =  -1.9106797606315E+00
(PID.TID 0000.0001) %MON dynstat_theta_mean           =  -1.9001961852554E+00
(PID.TID 0000.0001) %MON dynstat_theta_sd             =   9.0564337347494E-04
(PID.TID 0000.0001) %MON dynstat_theta_del2           =   4.1312401628266E-05
(PID.TID 0000.0001) %MON dynstat_salt_max             =   3.4400000000000E+01
(PID.TID 0000.0001) %MON dynstat_salt_min             =   3.4396078795007E+01
(PID.TID 0000.0001) %MON dynstat_salt_mean            =   3.4399920524672E+01
(PID.TID 0000.0001) %MON dynstat_salt_sd              =   3.5651773127627E-04
(PID.TID 0000.0001) %MON dynstat_salt_del2            =   1.5997359287894E-05
(PID.TID 0000.0001) %MON advcfl_uvel_max              =   8.1207962623898E-05
(PID.TID 0000.0001) %MON advcfl_vvel_max              =   3.0451593295910E-05
(PID.TID 0000.0001) %MON advcfl_wvel_max              =   1.2747446149747E-04
(PID.TID 0000.0001) %MON advcfl_W_hf_max              =   1.2747446149747E-04
(PID.TID 0000.0001) %MON pe_b_mean                    =   1.2755262725027E-07
(PID.TID 0000.0001) %MON ke_max                       =   2.4565643044223E-05
(PID.TID 0000.0001) %MON ke_mean                      =   1.1572901782518E-06
(PID.TID 0000.0001) %MON ke_vol                       =   4.9883516278638E+19
(PID.TID 0000.0001) %MON vort_r_min                   =  -6.0287700814339E-07
(PID.TID 0000.0001) %MON vort_r_max                   =   6.2733674275855E-07
(PID.TID 0000.0001) %MON vort_a_mean                  =  -1.4215602460843E-04
(PID.TID 0000.0001) %MON vort_a_sd                    =   7.2659764458143E-07
(PID.TID 0000.0001) %MON vort_p_mean                  =  -1.5365353190097E-04
(PID.TID 0000.0001) %MON vort_p_sd                    =   8.5988930283261E-05
(PID.TID 0000.0001) %MON surfExpan_theta_mean         =   2.6935436347141E-09
(PID.TID 0000.0001) %MON surfExpan_salt_mean          =  -4.8669788040669E-08
(PID.TID 0000.0001) // =======================================================
(PID.TID 0000.0001) // End MONITOR dynamic field statistics
(PID.TID 0000.0001) // =======================================================
 cg2d: Sum(rhs),rhsMax =   2.30746219468527E+01  3.74232163204408E-04
(PID.TID 0000.0001)                    cg2d_init_res =    6.05479229135103E+02
(PID.TID 0000.0001)                       cg2d_iters =   136
(PID.TID 0000.0001)                         cg2d_res =    9.58037530226013E-14
(PID.TID 0000.0001) // =======================================================
(PID.TID 0000.0001) // Begin MONITOR dynamic field statistics
(PID.TID 0000.0001) // =======================================================
(PID.TID 0000.0001) %MON time_tsnumber                =                    18
(PID.TID 0000.0001) %MON time_secondsf                =   3.2400000000000E+04
(PID.TID 0000.0001) %MON dynstat_eta_max              =   2.1897454392059E-03
(PID.TID 0000.0001) %MON dynstat_eta_min              =  -1.2055261729402E-04
(PID.TID 0000.0001) %MON dynstat_eta_mean             =  -2.2577448560823E-05
(PID.TID 0000.0001) %MON dynstat_eta_sd               =   3.4551621061513E-04
(PID.TID 0000.0001) %MON dynstat_eta_del2             =   2.4634184919410E-05
(PID.TID 0000.0001) %MON dynstat_uvel_max             =   7.6841160411996E-03
(PID.TID 0000.0001) %MON dynstat_uvel_min             =  -7.1950811431060E-03
(PID.TID 0000.0001) %MON dynstat_uvel_mean            =   2.9290600852695E-04
(PID.TID 0000.0001) %MON dynstat_uvel_sd              =   1.6595784760267E-03
(PID.TID 0000.0001) %MON dynstat_uvel_del2            =   7.1897207688648E-05
(PID.TID 0000.0001) %MON dynstat_vvel_max             =   1.8746327699118E-04
(PID.TID 0000.0001) %MON dynstat_vvel_min             =  -1.6434397114941E-04
(PID.TID 0000.0001) %MON dynstat_vvel_mean            =   5.1083134877734E-06
(PID.TID 0000.0001) %MON dynstat_vvel_sd              =   1.8297342455080E-05
(PID.TID 0000.0001) %MON dynstat_vvel_del2            =   1.0550998777352E-06
(PID.TID 0000.0001) %MON dynstat_wvel_max             =   1.6877134051306E-06
(PID.TID 0000.0001) %MON dynstat_wvel_min             =  -2.4783151416291E-06
(PID.TID 0000.0001) %MON dynstat_wvel_mean            =  -1.6571399896420E-09
(PID.TID 0000.0001) %MON dynstat_wvel_sd              =   2.9856523195788E-07
(PID.TID 0000.0001) %MON dynstat_wvel_del2            =   2.1772453865614E-08
(PID.TID 0000.0001) %MON dynstat_theta_max            =  -1.9000000000000E+00
(PID.TID 0000.0001) %MON dynstat_theta_min            =  -1.9112911962087E+00
(PID.TID 0000.0001) %MON dynstat_theta_mean           =  -1.9002076192804E+00
(PID.TID 0000.0001) %MON dynstat_theta_sd             =   9.5794025546136E-04
(PID.TID 0000.0001) %MON dynstat_theta_del2           =   4.3661658393387E-05
(PID.TID 0000.0001) %MON dynstat_salt_max             =   3.4400000000000E+01
(PID.TID 0000.0001) %MON dynstat_salt_min             =   3.4395853799702E+01
(PID.TID 0000.0001) %MON dynstat_salt_mean            =   3.4399915888374E+01
(PID.TID 0000.0001) %MON dynstat_salt_sd              =   3.7714356109068E-04
(PID.TID 0000.0001) %MON dynstat_salt_del2            =   1.6908580174257E-05
(PID.TID 0000.0001) %MON advcfl_uvel_max              =   8.6001597011631E-05
(PID.TID 0000.0001) %MON advcfl_vvel_max              =   3.0350923474906E-05
(PID.TID 0000.0001) %MON advcfl_wvel_max              =   1.4869890849775E-04
(PID.TID 0000.0001) %MON advcfl_W_hf_max              =   1.4869890849775E-04
(PID.TID 0000.0001) %MON pe_b_mean                    =   1.4440254776957E-07
(PID.TID 0000.0001) %MON ke_max                       =   2.9523877823675E-05
(PID.TID 0000.0001) %MON ke_mean                      =   1.3911958364015E-06
(PID.TID 0000.0001) %MON ke_vol                       =   4.9883516278638E+19
(PID.TID 0000.0001) %MON vort_r_min                   =  -6.6131296404878E-07
(PID.TID 0000.0001) %MON vort_r_max                   =   6.8773684035856E-07
(PID.TID 0000.0001) %MON vort_a_mean                  =  -1.4215637070387E-04
(PID.TID 0000.0001) %MON vort_a_sd                    =   7.2639422347819E-07
(PID.TID 0000.0001) %MON vort_p_mean                  =  -1.5365390598844E-04
(PID.TID 0000.0001) %MON vort_p_sd                    =   8.5984474763530E-05
(PID.TID 0000.0001) %MON surfExpan_theta_mean         =   2.8479003245927E-09
(PID.TID 0000.0001) %MON surfExpan_salt_mean          =  -5.1453385119397E-08
(PID.TID 0000.0001) // =======================================================
(PID.TID 0000.0001) // End MONITOR dynamic field statistics
(PID.TID 0000.0001) // =======================================================
 cg2d: Sum(rhs),rhsMax =   2.26736515670022E+01  4.20304592752942E-04
(PID.TID 0000.0001)                    cg2d_init_res =    5.92129515661333E+02
(PID.TID 0000.0001)                       cg2d_iters =   136
(PID.TID 0000.0001)                         cg2d_res =    9.31871310898138E-14
(PID.TID 0000.0001) // =======================================================
(PID.TID 0000.0001) // Begin MONITOR dynamic field statistics
(PID.TID 0000.0001) // =======================================================
(PID.TID 0000.0001) %MON time_tsnumber                =                    19
(PID.TID 0000.0001) %MON time_secondsf                =   3.4200000000000E+04
(PID.TID 0000.0001) %MON dynstat_eta_max              =   2.3980950734902E-03
(PID.TID 0000.0001) %MON dynstat_eta_min              =  -1.3356595995444E-04
(PID.TID 0000.0001) %MON dynstat_eta_mean             =  -2.5413008350040E-05
(PID.TID 0000.0001) %MON dynstat_eta_sd               =   3.7833552840075E-04
(PID.TID 0000.0001) %MON dynstat_eta_del2             =   2.6923034840025E-05
(PID.TID 0000.0001) %MON dynstat_uvel_max             =   8.3456643737352E-03
(PID.TID 0000.0001) %MON dynstat_uvel_min             =  -7.7996852759302E-03
(PID.TID 0000.0001) %MON dynstat_uvel_mean            =   3.1848089041430E-04
(PID.TID 0000.0001) %MON dynstat_uvel_sd              =   1.8031155036808E-03
(PID.TID 0000.0001) %MON dynstat_uvel_del2            =   7.8064077313546E-05
(PID.TID 0000.0001) %MON dynstat_vvel_max             =   1.9261087975811E-04
(PID.TID 0000.0001) %MON dynstat_vvel_min             =  -1.9312126655148E-04
(PID.TID 0000.0001) %MON dynstat_vvel_mean            =   5.5154209529154E-06
(PID.TID 0000.0001) %MON dynstat_vvel_sd              =   2.0681185235880E-05
(PID.TID 0000.0001) %MON dynstat_vvel_del2            =   1.0939552756329E-06
(PID.TID 0000.0001) %MON dynstat_wvel_max             =   1.9693857718150E-06
(PID.TID 0000.0001) %MON dynstat_wvel_min             =  -2.8612521257761E-06
(PID.TID 0000.0001) %MON dynstat_wvel_mean            =  -1.6878969329992E-09
(PID.TID 0000.0001) %MON dynstat_wvel_sd              =   3.4466705461537E-07
(PID.TID 0000.0001) %MON dynstat_wvel_del2            =   2.4232442079090E-08
(PID.TID 0000.0001) %MON dynstat_theta_max            =  -1.9000000000000E+00
(PID.TID 0000.0001) %MON dynstat_theta_min            =  -1.9119007988538E+00
(PID.TID 0000.0001) %MON dynstat_theta_mean           =  -1.9002190416768E+00
(PID.TID 0000.0001) %MON dynstat_theta_sd             =   1.0101315036103E-03
(PID.TID 0000.0001) %MON dynstat_theta_del2           =   4.6002238455887E-05
(PID.TID 0000.0001) %MON dynstat_salt_max             =   3.4400000000000E+01
(PID.TID 0000.0001) %MON dynstat_salt_min             =   3.4395629424767E+01
(PID.TID 0000.0001) %MON dynstat_salt_mean            =   3.4399911256322E+01
(PID.TID 0000.0001) %MON dynstat_salt_sd              =   3.9773190164385E-04
(PID.TID 0000.0001) %MON dynstat_salt_del2            =   1.7816600643449E-05
(PID.TID 0000.0001) %MON advcfl_uvel_max              =   8.9921034445387E-05
(PID.TID 0000.0001) %MON advcfl_vvel_max              =   3.1266970665176E-05
(PID.TID 0000.0001) %MON advcfl_wvel_max              =   1.7167512754656E-04
(PID.TID 0000.0001) %MON advcfl_W_hf_max              =   1.7167512754656E-04
(PID.TID 0000.0001) %MON pe_b_mean                    =   1.6215396118557E-07
(PID.TID 0000.0001) %MON ke_max                       =   3.4826473890167E-05
(PID.TID 0000.0001) %MON ke_mean                      =   1.6423429087591E-06
(PID.TID 0000.0001) %MON ke_vol                       =   4.9883516278638E+19
(PID.TID 0000.0001) %MON vort_r_min                   =  -7.1904435354784E-07
(PID.TID 0000.0001) %MON vort_r_max                   =   7.4694614400820E-07
(PID.TID 0000.0001) %MON vort_a_mean                  =  -1.4215671006036E-04
(PID.TID 0000.0001) %MON vort_a_sd                    =   7.2646802677455E-07
(PID.TID 0000.0001) %MON vort_p_mean                  =  -1.5365427279191E-04
(PID.TID 0000.0001) %MON vort_p_sd                    =   8.5980143446654E-05
(PID.TID 0000.0001) %MON surfExpan_theta_mean         =   2.9995807045588E-09
(PID.TID 0000.0001) %MON surfExpan_salt_mean          =  -5.4188013681653E-08
(PID.TID 0000.0001) // =======================================================
(PID.TID 0000.0001) // End MONITOR dynamic field statistics
(PID.TID 0000.0001) // =======================================================
 cg2d: Sum(rhs),rhsMax =   2.22877580608344E+01  4.69769672811274E-04
(PID.TID 0000.0001)                    cg2d_init_res =    5.79856435481063E+02
(PID.TID 0000.0001)                       cg2d_iters =   136
(PID.TID 0000.0001)                         cg2d_res =    8.66592578194989E-14
(PID.TID 0000.0001) // =======================================================
(PID.TID 0000.0001) // Begin MONITOR dynamic field statistics
(PID.TID 0000.0001) // =======================================================
(PID.TID 0000.0001) %MON time_tsnumber                =                    20
(PID.TID 0000.0001) %MON time_secondsf                =   3.6000000000000E+04
(PID.TID 0000.0001) %MON dynstat_eta_max              =   2.6175190578440E-03
(PID.TID 0000.0001) %MON dynstat_eta_min              =  -1.4730948761286E-04
(PID.TID 0000.0001) %MON dynstat_eta_mean             =  -2.8387480448141E-05
(PID.TID 0000.0001) %MON dynstat_eta_sd               =   4.1288213810478E-04
(PID.TID 0000.0001) %MON dynstat_eta_del2             =   2.9328456012815E-05
(PID.TID 0000.0001) %MON dynstat_uvel_max             =   8.9962949634991E-03
(PID.TID 0000.0001) %MON dynstat_uvel_min             =  -8.3980308937066E-03
(PID.TID 0000.0001) %MON dynstat_uvel_mean            =   3.4369108334236E-04
(PID.TID 0000.0001) %MON dynstat_uvel_sd              =   1.9449031753096E-03
(PID.TID 0000.0001) %MON dynstat_uvel_del2            =   8.4181450398503E-05
(PID.TID 0000.0001) %MON dynstat_vvel_max             =   1.9983830146962E-04
(PID.TID 0000.0001) %MON dynstat_vvel_min             =  -2.2230051059942E-04
(PID.TID 0000.0001) %MON dynstat_vvel_mean            =   5.9340133512447E-06
(PID.TID 0000.0001) %MON dynstat_vvel_sd              =   2.3246115732203E-05
(PID.TID 0000.0001) %MON dynstat_vvel_del2            =   1.1393214079910E-06
(PID.TID 0000.0001) %MON dynstat_wvel_max             =   2.2523281820435E-06
(PID.TID 0000.0001) %MON dynstat_wvel_min             =  -3.2517154210227E-06
(PID.TID 0000.0001) %MON dynstat_wvel_mean            =  -1.7193740690628E-09
(PID.TID 0000.0001) %MON dynstat_wvel_sd              =   3.9080874164001E-07
(PID.TID 0000.0001) %MON dynstat_wvel_del2            =   2.6699147359895E-08
(PID.TID 0000.0001) %MON dynstat_theta_max            =  -1.9000000000000E+00
(PID.TID 0000.0001) %MON dynstat_theta_min            =  -1.9125085733167E+00
(PID.TID 0000.0001) %MON dynstat_theta_mean           =  -1.9002304524657E+00
(PID.TID 0000.0001) %MON dynstat_theta_sd             =   1.0622174862543E-03
(PID.TID 0000.0001) %MON dynstat_theta_del2           =   4.8334180117303E-05
(PID.TID 0000.0001) %MON dynstat_salt_max             =   3.4400000000000E+01
(PID.TID 0000.0001) %MON dynstat_salt_min             =   3.4395405668863E+01
(PID.TID 0000.0001) %MON dynstat_salt_mean            =   3.4399906628509E+01
(PID.TID 0000.0001) %MON dynstat_salt_sd              =   4.1828287247947E-04
(PID.TID 0000.0001) %MON dynstat_salt_del2            =   1.8721434269273E-05
(PID.TID 0000.0001) %MON advcfl_uvel_max              =   9.3001046383183E-05
(PID.TID 0000.0001) %MON advcfl_vvel_max              =   3.5991186614930E-05
(PID.TID 0000.0001) %MON advcfl_wvel_max              =   1.9510292526136E-04
(PID.TID 0000.0001) %MON advcfl_W_hf_max              =   1.9510292526136E-04
(PID.TID 0000.0001) %MON pe_b_mean                    =   1.8078584424223E-07
(PID.TID 0000.0001) %MON ke_max                       =   4.0468490992697E-05
(PID.TID 0000.0001) %MON ke_mean                      =   1.9108659366117E-06
(PID.TID 0000.0001) %MON ke_vol                       =   4.9883516278638E+19
(PID.TID 0000.0001) %MON vort_r_min                   =  -7.7631704424218E-07
(PID.TID 0000.0001) %MON vort_r_max                   =   8.0517829766722E-07
(PID.TID 0000.0001) %MON vort_a_mean                  =  -1.4215704389235E-04
(PID.TID 0000.0001) %MON vort_a_sd                    =   7.2681347979157E-07
(PID.TID 0000.0001) %MON vort_p_mean                  =  -1.5365463362406E-04
(PID.TID 0000.0001) %MON vort_p_sd                    =   8.5975919752711E-05
(PID.TID 0000.0001) %MON surfExpan_theta_mean         =   3.1468586653619E-09
(PID.TID 0000.0001) %MON surfExpan_salt_mean          =  -5.6842512501645E-08
(PID.TID 0000.0001) // =======================================================
(PID.TID 0000.0001) // End MONITOR dynamic field statistics
(PID.TID 0000.0001) // =======================================================
(PID.TID 0000.0001) %CHECKPOINT        20 ckptA
(PID.TID 0000.0001)   Seconds in section "ALL                    [THE_MODEL_MAIN]":
(PID.TID 0000.0001)           User time:  47.1268348
(PID.TID 0000.0001)         System time:  0.618905982
(PID.TID 0000.0001)     Wall clock time:  47.7668681
(PID.TID 0000.0001)          No. starts: 1
(PID.TID 0000.0001)           No. stops: 1
(PID.TID 0000.0001)   Seconds in section "INITIALISE_FIXED       [THE_MODEL_MAIN]":
(PID.TID 0000.0001)           User time:  1.84272005
(PID.TID 0000.0001)         System time:  0.163974993
(PID.TID 0000.0001)     Wall clock time:  2.00654507
(PID.TID 0000.0001)          No. starts: 1
(PID.TID 0000.0001)           No. stops: 1
(PID.TID 0000.0001)   Seconds in section "THE_MAIN_LOOP          [THE_MODEL_MAIN]":
(PID.TID 0000.0001)           User time:  44.492237
(PID.TID 0000.0001)         System time:  0.160976008
(PID.TID 0000.0001)     Wall clock time:  44.6715
(PID.TID 0000.0001)          No. starts: 1
(PID.TID 0000.0001)           No. stops: 1
(PID.TID 0000.0001)   Seconds in section "INITIALISE_VARIA    [THE_MAIN_LOOP]":
(PID.TID 0000.0001)           User time:  0.433933854
(PID.TID 0000.0001)         System time:  0.0619910061
(PID.TID 0000.0001)     Wall clock time:  0.497629166
(PID.TID 0000.0001)          No. starts: 1
(PID.TID 0000.0001)           No. stops: 1
(PID.TID 0000.0001)   Seconds in section "MAIN LOOP           [THE_MAIN_LOOP]":
(PID.TID 0000.0001)           User time:  43.5163851
(PID.TID 0000.0001)         System time:  0.0489929914
(PID.TID 0000.0001)     Wall clock time:  43.5820038
(PID.TID 0000.0001)          No. starts: 1
(PID.TID 0000.0001)           No. stops: 1
(PID.TID 0000.0001)   Seconds in section "FORWARD_STEP        [THE_MAIN_LOOP]":
(PID.TID 0000.0001)           User time:  43.5153856
(PID.TID 0000.0001)         System time:  0.0489929914
(PID.TID 0000.0001)     Wall clock time:  43.5812738
(PID.TID 0000.0001)          No. starts: 20
(PID.TID 0000.0001)           No. stops: 20
(PID.TID 0000.0001)   Seconds in section "LOAD_FIELDS_DRIVER  [FORWARD_STEP]":
(PID.TID 0000.0001)           User time:  0.00100016594
(PID.TID 0000.0001)         System time:  0.
(PID.TID 0000.0001)     Wall clock time:  0.00205564499
(PID.TID 0000.0001)          No. starts: 20
(PID.TID 0000.0001)           No. stops: 20
(PID.TID 0000.0001)   Seconds in section "EXTERNAL_FLDS_LOAD [LOAD_FLDS_DRIVER]":
(PID.TID 0000.0001)           User time:  0.
(PID.TID 0000.0001)         System time:  0.
(PID.TID 0000.0001)     Wall clock time:  0.000681638718
(PID.TID 0000.0001)          No. starts: 20
(PID.TID 0000.0001)           No. stops: 20
(PID.TID 0000.0001)   Seconds in section "DO_ATMOSPHERIC_PHYS [FORWARD_STEP]":
(PID.TID 0000.0001)           User time:  0.
(PID.TID 0000.0001)         System time:  0.000999987125
(PID.TID 0000.0001)     Wall clock time:  0.000671625137
(PID.TID 0000.0001)          No. starts: 20
(PID.TID 0000.0001)           No. stops: 20
(PID.TID 0000.0001)   Seconds in section "DO_OCEANIC_PHYS     [FORWARD_STEP]":
(PID.TID 0000.0001)           User time:  0.269950628
(PID.TID 0000.0001)         System time:  0.00200000405
(PID.TID 0000.0001)     Wall clock time:  0.273314953
(PID.TID 0000.0001)          No. starts: 20
(PID.TID 0000.0001)           No. stops: 20
(PID.TID 0000.0001)   Seconds in section "SHELFICE_THERMODYNAMICS [DO_OCEANIC_PHYS]":
(PID.TID 0000.0001)           User time:  0.0599861145
(PID.TID 0000.0001)         System time:  0.
(PID.TID 0000.0001)     Wall clock time:  0.0582170486
(PID.TID 0000.0001)          No. starts: 20
(PID.TID 0000.0001)           No. stops: 20
(PID.TID 0000.0001)   Seconds in section "THERMODYNAMICS      [FORWARD_STEP]":
(PID.TID 0000.0001)           User time:  6.67799211
(PID.TID 0000.0001)         System time:  0.000999987125
(PID.TID 0000.0001)     Wall clock time:  6.68314719
(PID.TID 0000.0001)          No. starts: 20
(PID.TID 0000.0001)           No. stops: 20
(PID.TID 0000.0001)   Seconds in section "DYNAMICS            [FORWARD_STEP]":
(PID.TID 0000.0001)           User time:  17.9702721
(PID.TID 0000.0001)         System time:  0.0119979978
(PID.TID 0000.0001)     Wall clock time:  17.9897938
(PID.TID 0000.0001)          No. starts: 20
(PID.TID 0000.0001)           No. stops: 20
(PID.TID 0000.0001)   Seconds in section "SOLVE_FOR_PRESSURE  [FORWARD_STEP]":
(PID.TID 0000.0001)           User time:  6.68896866
(PID.TID 0000.0001)         System time:  0.00299999118
(PID.TID 0000.0001)     Wall clock time:  6.69123483
(PID.TID 0000.0001)          No. starts: 20
(PID.TID 0000.0001)           No. stops: 20
(PID.TID 0000.0001)   Seconds in section "MOM_CORRECTION_STEP [FORWARD_STEP]":
(PID.TID 0000.0001)           User time:  1.3367939
(PID.TID 0000.0001)         System time:  0.
(PID.TID 0000.0001)     Wall clock time:  1.33776665
(PID.TID 0000.0001)          No. starts: 20
(PID.TID 0000.0001)           No. stops: 20
(PID.TID 0000.0001)   Seconds in section "UPDATE_ETAH         [FORWARD_STEP]":
(PID.TID 0000.0001)           User time:  0.00400066376
(PID.TID 0000.0001)         System time:  0.00100001693
(PID.TID 0000.0001)     Wall clock time:  0.00559067726
(PID.TID 0000.0001)          No. starts: 20
(PID.TID 0000.0001)           No. stops: 20
(PID.TID 0000.0001)   Seconds in section "TRC_CORRECTION_STEP [FORWARD_STEP]":
(PID.TID 0000.0001)           User time:  4.09238482
(PID.TID 0000.0001)         System time:  0.000999987125
(PID.TID 0000.0001)     Wall clock time:  4.09410357
(PID.TID 0000.0001)          No. starts: 20
(PID.TID 0000.0001)           No. stops: 20
(PID.TID 0000.0001)   Seconds in section "BLOCKING_EXCHANGES  [FORWARD_STEP]":
(PID.TID 0000.0001)           User time:  0.501922131
(PID.TID 0000.0001)         System time:  0.
(PID.TID 0000.0001)     Wall clock time:  0.501579046
(PID.TID 0000.0001)          No. starts: 20
(PID.TID 0000.0001)           No. stops: 20
(PID.TID 0000.0001)   Seconds in section "DO_STATEVARS_TAVE   [FORWARD_STEP]":
(PID.TID 0000.0001)           User time:  0.
(PID.TID 0000.0001)         System time:  0.
(PID.TID 0000.0001)     Wall clock time:  0.000686168671
(PID.TID 0000.0001)          No. starts: 20
(PID.TID 0000.0001)           No. stops: 20
(PID.TID 0000.0001)   Seconds in section "MONITOR             [FORWARD_STEP]":
(PID.TID 0000.0001)           User time:  5.62914658
(PID.TID 0000.0001)         System time:  0.00400000811
(PID.TID 0000.0001)     Wall clock time:  5.63791323
(PID.TID 0000.0001)          No. starts: 20
(PID.TID 0000.0001)           No. stops: 20
(PID.TID 0000.0001)   Seconds in section "DO_THE_MODEL_IO     [FORWARD_STEP]":
(PID.TID 0000.0001)           User time:  0.330955505
(PID.TID 0000.0001)         System time:  0.0209969878
(PID.TID 0000.0001)     Wall clock time:  0.352066755
(PID.TID 0000.0001)          No. starts: 20
(PID.TID 0000.0001)           No. stops: 20
(PID.TID 0000.0001)   Seconds in section "DO_WRITE_PICKUP     [FORWARD_STEP]":
(PID.TID 0000.0001)           User time:  0.
(PID.TID 0000.0001)         System time:  0.000999003649
(PID.TID 0000.0001)     Wall clock time:  0.000681400299
(PID.TID 0000.0001)          No. starts: 20
(PID.TID 0000.0001)           No. stops: 20
(PID.TID 0000.0001)   Seconds in section "DO_WRITE_PICKUP        [THE_MODEL_MAIN]":
(PID.TID 0000.0001)           User time:  0.791877747
(PID.TID 0000.0001)         System time:  0.292954981
(PID.TID 0000.0001)     Wall clock time:  1.08843994
(PID.TID 0000.0001)          No. starts: 1
(PID.TID 0000.0001)           No. stops: 1
(PID.TID 0000.0001) // ======================================================
(PID.TID 0000.0001) // Tile <-> Tile communication statistics
(PID.TID 0000.0001) // ======================================================
(PID.TID 0000.0001) // o Tile number: 000001
(PID.TID 0000.0001) //         No. X exchanges =              0
(PID.TID 0000.0001) //            Max. X spins =              0
(PID.TID 0000.0001) //            Min. X spins =     1000000000
(PID.TID 0000.0001) //          Total. X spins =              0
(PID.TID 0000.0001) //            Avg. X spins =       0.00E+00
(PID.TID 0000.0001) //         No. Y exchanges =              0
(PID.TID 0000.0001) //            Max. Y spins =              0
(PID.TID 0000.0001) //            Min. Y spins =     1000000000
(PID.TID 0000.0001) //          Total. Y spins =              0
(PID.TID 0000.0001) //            Avg. Y spins =       0.00E+00
(PID.TID 0000.0001) // o Tile number: 000002
(PID.TID 0000.0001) //         No. X exchanges =              0
(PID.TID 0000.0001) //            Max. X spins =              0
(PID.TID 0000.0001) //            Min. X spins =     1000000000
(PID.TID 0000.0001) //          Total. X spins =              0
(PID.TID 0000.0001) //            Avg. X spins =       0.00E+00
(PID.TID 0000.0001) //         No. Y exchanges =              0
(PID.TID 0000.0001) //            Max. Y spins =              0
(PID.TID 0000.0001) //            Min. Y spins =     1000000000
(PID.TID 0000.0001) //          Total. Y spins =              0
(PID.TID 0000.0001) //            Avg. Y spins =       0.00E+00
(PID.TID 0000.0001) // o Thread number: 000001
(PID.TID 0000.0001) //            No. barriers =          39762
(PID.TID 0000.0001) //      Max. barrier spins =              1
(PID.TID 0000.0001) //      Min. barrier spins =              1
(PID.TID 0000.0001) //     Total barrier spins =          39762
(PID.TID 0000.0001) //      Avg. barrier spins =       1.00E+00
