(PID.TID 0000.0001) 
(PID.TID 0000.0001) // ======================================================
(PID.TID 0000.0001) //                      MITgcm UV
(PID.TID 0000.0001) //                      =========
(PID.TID 0000.0001) // ======================================================
(PID.TID 0000.0001) // execution environment starting up...
(PID.TID 0000.0001) 
(PID.TID 0000.0001) // MITgcmUV version:  checkpoint59n
(PID.TID 0000.0001) // Build user:        mlosch
(PID.TID 0000.0001) // Build host:        eddy
(PID.TID 0000.0001) // Build date:        Wed Feb 27 10:35:01 EST 2008
(PID.TID 0000.0001) 
(PID.TID 0000.0001) // =======================================================
(PID.TID 0000.0001) // Execution Environment parameter file "eedata"
(PID.TID 0000.0001) // =======================================================
(PID.TID 0000.0001) ># Example "eedata" file
(PID.TID 0000.0001) ># Lines beginning "#" are comments
(PID.TID 0000.0001) ># nTx - No. threads per process in X
(PID.TID 0000.0001) ># nTy - No. threads per process in Y
(PID.TID 0000.0001) > &EEPARMS
(PID.TID 0000.0001) > &
(PID.TID 0000.0001) ># Note: Some systems use & as the
(PID.TID 0000.0001) ># namelist terminator. Other systems
(PID.TID 0000.0001) ># use a / character (as shown here).
(PID.TID 0000.0001) 
(PID.TID 0000.0001) // =======================================================
(PID.TID 0000.0001) // Computational Grid Specification ( see files "SIZE.h" )
(PID.TID 0000.0001) //                                  ( and "eedata"       )
(PID.TID 0000.0001) // =======================================================
(PID.TID 0000.0001)      nPx =    1 ; /* No. processes in X */
(PID.TID 0000.0001)      nPy =    1 ; /* No. processes in Y */
(PID.TID 0000.0001)      nSx =    1 ; /* No. tiles in X per process */
(PID.TID 0000.0001)      nSy =    2 ; /* No. tiles in Y per process */
(PID.TID 0000.0001)      sNx =   50 ; /* Tile size in X */
(PID.TID 0000.0001)      sNy =   50 ; /* Tile size in Y */
(PID.TID 0000.0001)      OLx =    3 ; /* Tile overlap distance in X */
(PID.TID 0000.0001)      OLy =    3 ; /* Tile overlap distance in Y */
(PID.TID 0000.0001)      nTx =    1 ; /* No. threads in X per process */
(PID.TID 0000.0001)      nTy =    1 ; /* No. threads in Y per process */
(PID.TID 0000.0001)       Nr =   30 ; /* No. levels in the vertical   */
(PID.TID 0000.0001)       nX =   50 ; /* Total domain size in X ( = nPx*nSx*sNx ) */
(PID.TID 0000.0001)       nY =  100 ; /* Total domain size in Y ( = nPy*nSy*sNy ) */
(PID.TID 0000.0001)   nTiles =    2 ; /* Total no. tiles per process ( = nSx*nSy ) */
(PID.TID 0000.0001)   nProcs =    1 ; /* Total no. processes ( = nPx*nPy ) */
(PID.TID 0000.0001) nThreads =    1 ; /* Total no. threads per process ( = nTx*nTy ) */
(PID.TID 0000.0001) usingMPI =    F ; /* Flag used to control whether MPI is in use */
(PID.TID 0000.0001)                   /*  note: To execute a program with MPI calls */
(PID.TID 0000.0001)                   /*  it must be launched appropriately e.g     */
(PID.TID 0000.0001)                   /*  "mpirun -np 64 ......"                    */
(PID.TID 0000.0001) useCoupler=   F ; /* Flag used to control communications with */
(PID.TID 0000.0001)                   /*  other model components, through a coupler */
(PID.TID 0000.0001) 
(PID.TID 0000.0001) // ======================================================
(PID.TID 0000.0001) // Mapping of tiles to threads
(PID.TID 0000.0001) // ======================================================
(PID.TID 0000.0001) // -o- Thread   1, tiles (   1:   1,   1:   2)
(PID.TID 0000.0001) 
(PID.TID 0000.0001) // ======================================================
(PID.TID 0000.0001) // Tile <-> Tile connectvity table
(PID.TID 0000.0001) // ======================================================
(PID.TID 0000.0001) // Tile number: 000001 (process no. = 000001)
(PID.TID 0000.0001) //        WEST: Tile = 000001, Process = 000001, Comm = put
(PID.TID 0000.0001) //                bi = 000001, bj = 000001
(PID.TID 0000.0001) //        EAST: Tile = 000001, Process = 000001, Comm = put
(PID.TID 0000.0001) //                bi = 000001, bj = 000001
(PID.TID 0000.0001) //       SOUTH: Tile = 000002, Process = 000001, Comm = put
(PID.TID 0000.0001) //                bi = 000001, bj = 000002
(PID.TID 0000.0001) //       NORTH: Tile = 000002, Process = 000001, Comm = put
(PID.TID 0000.0001) //                bi = 000001, bj = 000002
(PID.TID 0000.0001) // Tile number: 000002 (process no. = 000001)
(PID.TID 0000.0001) //        WEST: Tile = 000002, Process = 000001, Comm = put
(PID.TID 0000.0001) //                bi = 000001, bj = 000002
(PID.TID 0000.0001) //        EAST: Tile = 000002, Process = 000001, Comm = put
(PID.TID 0000.0001) //                bi = 000001, bj = 000002
(PID.TID 0000.0001) //       SOUTH: Tile = 000001, Process = 000001, Comm = put
(PID.TID 0000.0001) //                bi = 000001, bj = 000001
(PID.TID 0000.0001) //       NORTH: Tile = 000001, Process = 000001, Comm = put
(PID.TID 0000.0001) //                bi = 000001, bj = 000001
(PID.TID 0000.0001) 
(PID.TID 0000.0001) // =======================================================
(PID.TID 0000.0001) // Model parameter file "data"
(PID.TID 0000.0001) // =======================================================
(PID.TID 0000.0001) ># ====================
(PID.TID 0000.0001) ># | Model parameters |
(PID.TID 0000.0001) ># ====================
(PID.TID 0000.0001) >#
(PID.TID 0000.0001) ># Continuous equation parameters
(PID.TID 0000.0001) > &PARM01
(PID.TID 0000.0001) > Tref = 30*-1.9,
(PID.TID 0000.0001) > Sref = 30*34.4,
(PID.TID 0000.0001) > viscAz=1.E-3,
(PID.TID 0000.0001) > viscAh=600.0,
(PID.TID 0000.0001) > no_slip_sides=.FALSE.,
(PID.TID 0000.0001) > no_slip_bottom=.FALSE.,
(PID.TID 0000.0001) > diffKhT=100.0,
(PID.TID 0000.0001) > diffKzT=5.E-5,
(PID.TID 0000.0001) > diffKhS=100.0,
(PID.TID 0000.0001) > diffKzS=5.E-5,
(PID.TID 0000.0001) > bottomDragQuadratic=2.5E-3,
(PID.TID 0000.0001) > eosType='JMD95Z',
(PID.TID 0000.0001) > HeatCapacity_cp = 3974.0,
(PID.TID 0000.0001) > rhoConst=1030.,
(PID.TID 0000.0001) > rhoNil=1030.,
(PID.TID 0000.0001) > gravity=9.81,
(PID.TID 0000.0001) > gBaro=9.81,
(PID.TID 0000.0001) > convertFW2Salt = 33.4,
(PID.TID 0000.0001) > rigidLid=.FALSE.,
(PID.TID 0000.0001) > implicitFreeSurface=.TRUE.,
(PID.TID 0000.0001) > exactConserv=.true.,
(PID.TID 0000.0001) > hFacMin=0.05,
(PID.TID 0000.0001) > nonHydrostatic=.false.,
(PID.TID 0000.0001) > readBinaryPrec=64,
(PID.TID 0000.0001) > useCDScheme = .true.,
(PID.TID 0000.0001) > &
(PID.TID 0000.0001) >
(PID.TID 0000.0001) ># Elliptic solver parameters
(PID.TID 0000.0001) > &PARM02
(PID.TID 0000.0001) > cg2dMaxIters=1000,
(PID.TID 0000.0001) > cg2dTargetResidual=1.E-13,
(PID.TID 0000.0001) > cg3dMaxIters=400,
(PID.TID 0000.0001) > cg3dTargetResidual=1.E-13,
(PID.TID 0000.0001) > &
(PID.TID 0000.0001) >
(PID.TID 0000.0001) ># Time stepping parameters
(PID.TID 0000.0001) > &PARM03
(PID.TID 0000.0001) > niter0=0,
(PID.TID 0000.0001) > nTimeSteps=20,
(PID.TID 0000.0001) > deltaT=1800.0,
(PID.TID 0000.0001) > abEps=0.1,
(PID.TID 0000.0001) > cAdjFreq = -1.,
(PID.TID 0000.0001) > tauCD = 400000.,
(PID.TID 0000.0001) > pChkptFreq=0.0,
(PID.TID 0000.0001) > chkptFreq=0.0,
(PID.TID 0000.0001) > dumpFreq=0.0,
(PID.TID 0000.0001) > taveFreq=0.0,
(PID.TID 0000.0001) > monitorFreq=1.,
(PID.TID 0000.0001) > &
(PID.TID 0000.0001) >
(PID.TID 0000.0001) ># Gridding parameters
(PID.TID 0000.0001) > &PARM04
(PID.TID 0000.0001) > usingCartesianGrid=.FALSE.,
(PID.TID 0000.0001) > usingSphericalPolarGrid=.TRUE.,
(PID.TID 0000.0001) > phiMin = -80.0,
(PID.TID 0000.0001) > delX=50*0.3,
(PID.TID 0000.0001) > delY=100*0.1,
(PID.TID 0000.0001) > delZ=30*30.0,
(PID.TID 0000.0001) > &
(PID.TID 0000.0001) >
(PID.TID 0000.0001) ># Input datasets
(PID.TID 0000.0001) > &PARM05
(PID.TID 0000.0001) > bathyFile='bathy.box',
(PID.TID 0000.0001) > shelfIceFile='icetopo.exp1',
(PID.TID 0000.0001) > &
(PID.TID 0000.0001) 
(PID.TID 0000.0001) S/R INI_PARMS ; starts to read PARM01
(PID.TID 0000.0001) S/R INI_PARMS ; read PARM01 : OK
(PID.TID 0000.0001) S/R INI_PARMS ; starts to read PARM02
(PID.TID 0000.0001) S/R INI_PARMS ; read PARM02 : OK
(PID.TID 0000.0001) S/R INI_PARMS ; starts to read PARM03
(PID.TID 0000.0001) S/R INI_PARMS ; read PARM03 : OK
(PID.TID 0000.0001) S/R INI_PARMS ; starts to read PARM04
(PID.TID 0000.0001) S/R INI_PARMS ; read PARM04 : OK
(PID.TID 0000.0001) S/R INI_PARMS ; starts to read PARM05
(PID.TID 0000.0001) S/R INI_PARMS ; read PARM05 : OK
(PID.TID 0000.0001)  PACKAGES_BOOT: opening data.pkg
(PID.TID 0000.0001)  OPEN_COPY_DATA_FILE: opening file data.pkg
(PID.TID 0000.0001) // =======================================================
(PID.TID 0000.0001) // Parameter file "data.pkg"
(PID.TID 0000.0001) // =======================================================
(PID.TID 0000.0001) ># Packages
(PID.TID 0000.0001) > &PACKAGES
(PID.TID 0000.0001) > useMNC=.TRUE.,
(PID.TID 0000.0001) > useShelfIce=.true.,
(PID.TID 0000.0001) > &
(PID.TID 0000.0001) 
(PID.TID 0000.0001)  PACKAGES_BOOT: finished reading data.pkg
(PID.TID 0000.0001)  MNC_READPARMS: opening file 'data.mnc'
(PID.TID 0000.0001)  OPEN_COPY_DATA_FILE: opening file data.mnc
(PID.TID 0000.0001) // =======================================================
(PID.TID 0000.0001) // Parameter file "data.mnc"
(PID.TID 0000.0001) // =======================================================
(PID.TID 0000.0001) ># Example "data.mnc" file
(PID.TID 0000.0001) ># Lines beginning "#" are comments
(PID.TID 0000.0001) > &MNC_01
(PID.TID 0000.0001) ># mnc_echo_gvtypes=.FALSE.,
(PID.TID 0000.0001) ># mnc_use_indir=.FALSE.,
(PID.TID 0000.0001) > mnc_use_outdir=.TRUE.,
(PID.TID 0000.0001) > mnc_outdir_str='mnc_test_',
(PID.TID 0000.0001) >#mnc_outdir_date=.TRUE.,
(PID.TID 0000.0001) > monitor_mnc=.FALSE.,
(PID.TID 0000.0001) >#snapshot_mnc=.FALSE.,
(PID.TID 0000.0001) >#timeave_mnc=.FALSE.,
(PID.TID 0000.0001) > pickup_read_mnc=.FALSE.,
(PID.TID 0000.0001) > pickup_write_mnc=.FALSE.,
(PID.TID 0000.0001) > &
(PID.TID 0000.0001) ># Note: Some systems use & as the
(PID.TID 0000.0001) ># namelist terminator. Other systems
(PID.TID 0000.0001) ># use a / character (as shown here).
(PID.TID 0000.0001) 
(PID.TID 0000.0001)  MNC_READPARMS: finished reading data.mnc
(PID.TID 0000.0001)  SHELFICE_READPARMS: opening data.shelfice
(PID.TID 0000.0001)  OPEN_COPY_DATA_FILE: opening file data.shelfice
(PID.TID 0000.0001) // =======================================================
(PID.TID 0000.0001) // Parameter file "data.shelfice"
(PID.TID 0000.0001) // =======================================================
(PID.TID 0000.0001) ># ===================================
(PID.TID 0000.0001) ># | Parameters for SHELFICE package |
(PID.TID 0000.0001) ># ===================================
(PID.TID 0000.0001) > &SHELFICE_PARM01
(PID.TID 0000.0001) > SHELFICEboundaryLayer = .TRUE.,
(PID.TID 0000.0001) > SHELFICEloadAnomalyFile = 'phi0surf.exp1.jmd95z',
(PID.TID 0000.0001) > useISOMIPTD = .TRUE.,
(PID.TID 0000.0001) > no_slip_shelfice = .false.,
(PID.TID 0000.0001) > SHELFICEwriteState = .TRUE.,
(PID.TID 0000.0001) > &
(PID.TID 0000.0001) 
(PID.TID 0000.0001)  SHELFICE_READPARMS: finished reading data.shelfice
(PID.TID 0000.0001) SET_PARMS: done
(PID.TID 0000.0001) Enter INI_VERTICAL_GRID: setInterFDr=    T ; setCenterDr=    F
(PID.TID 0000.0001) %MON XC_max                       =   1.4850000000000E+01
(PID.TID 0000.0001) %MON XC_min                       =   1.5000000000000E-01
(PID.TID 0000.0001) %MON XC_mean                      =   7.5000000000000E+00
(PID.TID 0000.0001) %MON XC_sd                        =   4.3292609068985E+00
(PID.TID 0000.0001) %MON XG_max                       =   1.4700000000000E+01
(PID.TID 0000.0001) %MON XG_min                       =   1.1102230246252E-16
(PID.TID 0000.0001) %MON XG_mean                      =   7.3500000000000E+00
(PID.TID 0000.0001) %MON XG_sd                        =   4.3292609068985E+00
(PID.TID 0000.0001) %MON DXC_max                      =   1.1380125394806E+04
(PID.TID 0000.0001) %MON DXC_min                      =   5.8203914905589E+03
(PID.TID 0000.0001) %MON DXC_mean                     =   8.6215028627206E+03
(PID.TID 0000.0001) %MON DXC_sd                       =   1.6219001271572E+03
(PID.TID 0000.0001) %MON DXF_max                      =   1.1380125394806E+04
(PID.TID 0000.0001) %MON DXF_min                      =   5.8203914905589E+03
(PID.TID 0000.0001) %MON DXF_mean                     =   8.6215028627206E+03
(PID.TID 0000.0001) %MON DXF_sd                       =   1.6219001271572E+03
(PID.TID 0000.0001) %MON DXG_max                      =   1.1352761512017E+04
(PID.TID 0000.0001) %MON DXG_min                      =   5.7917296935586E+03
(PID.TID 0000.0001) %MON DXG_mean                     =   8.5934208253080E+03
(PID.TID 0000.0001) %MON DXG_sd                       =   1.6222785520817E+03
(PID.TID 0000.0001) %MON DXV_max                      =   1.1352761512017E+04
(PID.TID 0000.0001) %MON DXV_min                      =   5.7917296935586E+03
(PID.TID 0000.0001) %MON DXV_mean                     =   8.5934208253080E+03
(PID.TID 0000.0001) %MON DXV_sd                       =   1.6222785520817E+03
(PID.TID 0000.0001) %MON YC_max                       =  -7.0050000000001E+01
(PID.TID 0000.0001) %MON YC_min                       =  -7.9950000000000E+01
(PID.TID 0000.0001) %MON YC_mean                      =  -7.5000000000000E+01
(PID.TID 0000.0001) %MON YC_sd                        =   2.8866070047720E+00
(PID.TID 0000.0001) %MON YG_max                       =  -7.0100000000001E+01
(PID.TID 0000.0001) %MON YG_min                       =  -8.0000000000000E+01
(PID.TID 0000.0001) %MON YG_mean                      =  -7.5050000000000E+01
(PID.TID 0000.0001) %MON YG_sd                        =   2.8866070047720E+00
(PID.TID 0000.0001) %MON DYC_max                      =   1.1117747335204E+04
(PID.TID 0000.0001) %MON DYC_min                      =   1.1117747335204E+04
(PID.TID 0000.0001) %MON DYC_mean                     =   1.1117747335203E+04
(PID.TID 0000.0001) %MON DYC_sd                       =   6.0754246078432E-10
(PID.TID 0000.0001) %MON DYF_max                      =   1.1117747335204E+04
(PID.TID 0000.0001) %MON DYF_min                      =   1.1117747335204E+04
(PID.TID 0000.0001) %MON DYF_mean                     =   1.1117747335203E+04
(PID.TID 0000.0001) %MON DYF_sd                       =   6.0754246078432E-10
(PID.TID 0000.0001) %MON DYG_max                      =   1.1117747335204E+04
(PID.TID 0000.0001) %MON DYG_min                      =   1.1117747335204E+04
(PID.TID 0000.0001) %MON DYG_mean                     =   1.1117747335203E+04
(PID.TID 0000.0001) %MON DYG_sd                       =   6.0754246078432E-10
(PID.TID 0000.0001) %MON DYU_max                      =   1.1117747335204E+04
(PID.TID 0000.0001) %MON DYU_min                      =   1.1117747335204E+04
(PID.TID 0000.0001) %MON DYU_mean                     =   1.1117747335203E+04
(PID.TID 0000.0001) %MON DYU_sd                       =   6.0754246078432E-10
(PID.TID 0000.0001) %MON RA_max                       =   1.2652134272379E+08
(PID.TID 0000.0001) %MON RA_min                       =   6.4709633770803E+07
(PID.TID 0000.0001) %MON RA_mean                      =   9.5851678311588E+07
(PID.TID 0000.0001) %MON RA_sd                        =   1.8031873527991E+07
(PID.TID 0000.0001) %MON RAW_max                      =   1.2652134272379E+08
(PID.TID 0000.0001) %MON RAW_min                      =   6.4709633770803E+07
(PID.TID 0000.0001) %MON RAW_mean                     =   9.5851678311588E+07
(PID.TID 0000.0001) %MON RAW_sd                       =   1.8031873527991E+07
(PID.TID 0000.0001) %MON RAS_max                      =   1.2621711802744E+08
(PID.TID 0000.0001) %MON RAS_min                      =   6.4390979194019E+07
(PID.TID 0000.0001) %MON RAS_mean                     =   9.5539469354603E+07
(PID.TID 0000.0001) %MON RAS_sd                       =   1.8036080760153E+07
(PID.TID 0000.0001) %MON RAZ_max                      =   1.2621711802744E+08
(PID.TID 0000.0001) %MON RAZ_min                      =   6.4390979194019E+07
(PID.TID 0000.0001) %MON RAZ_mean                     =   9.5539469354603E+07
(PID.TID 0000.0001) %MON RAZ_sd                       =   1.8036080760153E+07
(PID.TID 0000.0001) %MON AngleCS_max                  =   1.0000000000000E+00
(PID.TID 0000.0001) %MON AngleCS_min                  =   1.0000000000000E+00
(PID.TID 0000.0001) %MON AngleCS_mean                 =   1.0000000000000E+00
(PID.TID 0000.0001) %MON AngleCS_sd                   =   0.0000000000000E+00
(PID.TID 0000.0001) %MON AngleSN_max                  =   0.0000000000000E+00
(PID.TID 0000.0001) %MON AngleSN_min                  =   0.0000000000000E+00
(PID.TID 0000.0001) %MON AngleSN_mean                 =   0.0000000000000E+00
(PID.TID 0000.0001) %MON AngleSN_sd                   =   0.0000000000000E+00
(PID.TID 0000.0001)  MDS_READ_FIELD: opening global file: bathy.box
(PID.TID 0000.0001)  MDS_READ_FIELD: opening global file: icetopo.exp1
(PID.TID 0000.0001) // =======================================================
(PID.TID 0000.0001) // Field Model R_low (ini_masks_etc) at iteration          1
(PID.TID 0000.0001) // CMIN =         -9.000000000000000E+02
(PID.TID 0000.0001) // CMAX =         -9.000000000000000E+02
(PID.TID 0000.0001) // CINT =          0.000000000000000E+00
(PID.TID 0000.0001) // SYMBOLS (CMIN->CMAX): -abcdefghijklmnopqrstuvwxyz+
(PID.TID 0000.0001) //                  0.0: .
(PID.TID 0000.0001) // RANGE I (Lo:Hi:Step):(  -2:  53:   1)
(PID.TID 0000.0001) // RANGE J (Lo:Hi:Step):( 103:  -2:  -1)
(PID.TID 0000.0001) // RANGE K (Lo:Hi:Step):(   1:   1:   1)
(PID.TID 0000.0001) // =======================================================
(PID.TID 0000.0001) // =======================================================
(PID.TID 0000.0001) // END OF FIELD                                          =
(PID.TID 0000.0001) // =======================================================
(PID.TID 0000.0001) 
(PID.TID 0000.0001) // =======================================================
(PID.TID 0000.0001) // Field Model Ro_surf (ini_masks_etc) at iteration          1
(PID.TID 0000.0001) // CMIN =         -6.812500000000010E+02
(PID.TID 0000.0001) // CMAX =         -2.000000000000000E+02
(PID.TID 0000.0001) // CINT =          1.782407407407411E+01
(PID.TID 0000.0001) // SYMBOLS (CMIN->CMAX): -abcdefghijklmnopqrstuvwxyz+
(PID.TID 0000.0001) //                  0.0: .
(PID.TID 0000.0001) // RANGE I (Lo:Hi:Step):(  -2:  53:   1)
(PID.TID 0000.0001) // RANGE J (Lo:Hi:Step):( 103:  -2:  -1)
(PID.TID 0000.0001) // RANGE K (Lo:Hi:Step):(   1:   1:   1)
(PID.TID 0000.0001) // =======================================================
(PID.TID 0000.0001) K =   1
(PID.TID 0000.0001) //                I=7       I=17      I=27      I=37      I=47
(PID.TID 0000.0001) // |--J--|210123456|890123456|890123456|890123456|890123456|890123
(PID.TID 0000.0001) //    103 aaa.aaaaaaaaaaaaaaaaaaaaaaaaaaaaaaaaaaaaaaaaaaaaaaaaa.aa
(PID.TID 0000.0001) //    102 ---.-------------------------------------------------.--
(PID.TID 0000.0001) //    101 ........................................................
(PID.TID 0000.0001) //    100 +++.+++++++++++++++++++++++++++++++++++++++++++++++++.++
(PID.TID 0000.0001) //     99 +++.+++++++++++++++++++++++++++++++++++++++++++++++++.++
(PID.TID 0000.0001) //     98 +++.+++++++++++++++++++++++++++++++++++++++++++++++++.++
(PID.TID 0000.0001) //     97 +++.+++++++++++++++++++++++++++++++++++++++++++++++++.++
(PID.TID 0000.0001) //     96 +++.+++++++++++++++++++++++++++++++++++++++++++++++++.++
(PID.TID 0000.0001) //     95 +++.+++++++++++++++++++++++++++++++++++++++++++++++++.++
(PID.TID 0000.0001) //     94 +++.+++++++++++++++++++++++++++++++++++++++++++++++++.++
(PID.TID 0000.0001) //     93 +++.+++++++++++++++++++++++++++++++++++++++++++++++++.++
(PID.TID 0000.0001) //     92 +++.+++++++++++++++++++++++++++++++++++++++++++++++++.++
(PID.TID 0000.0001) //     91 +++.+++++++++++++++++++++++++++++++++++++++++++++++++.++
(PID.TID 0000.0001) //     90 +++.+++++++++++++++++++++++++++++++++++++++++++++++++.++
(PID.TID 0000.0001) //     89 +++.+++++++++++++++++++++++++++++++++++++++++++++++++.++
(PID.TID 0000.0001) //     88 +++.+++++++++++++++++++++++++++++++++++++++++++++++++.++
(PID.TID 0000.0001) //     87 +++.+++++++++++++++++++++++++++++++++++++++++++++++++.++
(PID.TID 0000.0001) //     86 +++.+++++++++++++++++++++++++++++++++++++++++++++++++.++
(PID.TID 0000.0001) //     85 +++.+++++++++++++++++++++++++++++++++++++++++++++++++.++
(PID.TID 0000.0001) //     84 +++.+++++++++++++++++++++++++++++++++++++++++++++++++.++
(PID.TID 0000.0001) //     83 +++.+++++++++++++++++++++++++++++++++++++++++++++++++.++
(PID.TID 0000.0001) //     82 +++.+++++++++++++++++++++++++++++++++++++++++++++++++.++
(PID.TID 0000.0001) //     81 +++.+++++++++++++++++++++++++++++++++++++++++++++++++.++
(PID.TID 0000.0001) //     80 +++.+++++++++++++++++++++++++++++++++++++++++++++++++.++
(PID.TID 0000.0001) //     79 +++.+++++++++++++++++++++++++++++++++++++++++++++++++.++
(PID.TID 0000.0001) //     78 +++.+++++++++++++++++++++++++++++++++++++++++++++++++.++
(PID.TID 0000.0001) //     77 +++.+++++++++++++++++++++++++++++++++++++++++++++++++.++
(PID.TID 0000.0001) //     76 +++.+++++++++++++++++++++++++++++++++++++++++++++++++.++
(PID.TID 0000.0001) //     75 +++.+++++++++++++++++++++++++++++++++++++++++++++++++.++
(PID.TID 0000.0001) //     74 +++.+++++++++++++++++++++++++++++++++++++++++++++++++.++
(PID.TID 0000.0001) //     73 +++.+++++++++++++++++++++++++++++++++++++++++++++++++.++
(PID.TID 0000.0001) //     72 +++.+++++++++++++++++++++++++++++++++++++++++++++++++.++
(PID.TID 0000.0001) //     71 +++.+++++++++++++++++++++++++++++++++++++++++++++++++.++
(PID.TID 0000.0001) //     70 +++.+++++++++++++++++++++++++++++++++++++++++++++++++.++
(PID.TID 0000.0001) //     69 +++.+++++++++++++++++++++++++++++++++++++++++++++++++.++
(PID.TID 0000.0001) //     68 +++.+++++++++++++++++++++++++++++++++++++++++++++++++.++
(PID.TID 0000.0001) //     67 +++.+++++++++++++++++++++++++++++++++++++++++++++++++.++
(PID.TID 0000.0001) //     66 +++.+++++++++++++++++++++++++++++++++++++++++++++++++.++
(PID.TID 0000.0001) //     65 +++.+++++++++++++++++++++++++++++++++++++++++++++++++.++
(PID.TID 0000.0001) //     64 +++.+++++++++++++++++++++++++++++++++++++++++++++++++.++
(PID.TID 0000.0001) //     63 +++.+++++++++++++++++++++++++++++++++++++++++++++++++.++
(PID.TID 0000.0001) //     62 +++.+++++++++++++++++++++++++++++++++++++++++++++++++.++
(PID.TID 0000.0001) //     61 +++.+++++++++++++++++++++++++++++++++++++++++++++++++.++
(PID.TID 0000.0001) //     60 +++.+++++++++++++++++++++++++++++++++++++++++++++++++.++
(PID.TID 0000.0001) //     59 +++.+++++++++++++++++++++++++++++++++++++++++++++++++.++
(PID.TID 0000.0001) //     58 +++.+++++++++++++++++++++++++++++++++++++++++++++++++.++
(PID.TID 0000.0001) //     57 +++.+++++++++++++++++++++++++++++++++++++++++++++++++.++
(PID.TID 0000.0001) //     56 +++.+++++++++++++++++++++++++++++++++++++++++++++++++.++
(PID.TID 0000.0001) //     55 +++.+++++++++++++++++++++++++++++++++++++++++++++++++.++
(PID.TID 0000.0001) //     54 +++.+++++++++++++++++++++++++++++++++++++++++++++++++.++
(PID.TID 0000.0001) //     53 +++.+++++++++++++++++++++++++++++++++++++++++++++++++.++
(PID.TID 0000.0001) //     52 +++.+++++++++++++++++++++++++++++++++++++++++++++++++.++
(PID.TID 0000.0001) //     51 +++.+++++++++++++++++++++++++++++++++++++++++++++++++.++
(PID.TID 0000.0001) //     50 +++.+++++++++++++++++++++++++++++++++++++++++++++++++.++
(PID.TID 0000.0001) //     49 +++.+++++++++++++++++++++++++++++++++++++++++++++++++.++
(PID.TID 0000.0001) //     48 +++.+++++++++++++++++++++++++++++++++++++++++++++++++.++
(PID.TID 0000.0001) //     53 +++.+++++++++++++++++++++++++++++++++++++++++++++++++.++
(PID.TID 0000.0001) //     52 +++.+++++++++++++++++++++++++++++++++++++++++++++++++.++
(PID.TID 0000.0001) //     51 +++.+++++++++++++++++++++++++++++++++++++++++++++++++.++
(PID.TID 0000.0001) //     50 +++.+++++++++++++++++++++++++++++++++++++++++++++++++.++
(PID.TID 0000.0001) //     49 +++.+++++++++++++++++++++++++++++++++++++++++++++++++.++
(PID.TID 0000.0001) //     48 +++.+++++++++++++++++++++++++++++++++++++++++++++++++.++
(PID.TID 0000.0001) //     47 +++.+++++++++++++++++++++++++++++++++++++++++++++++++.++
(PID.TID 0000.0001) //     46 +++.+++++++++++++++++++++++++++++++++++++++++++++++++.++
(PID.TID 0000.0001) //     45 +++.+++++++++++++++++++++++++++++++++++++++++++++++++.++
(PID.TID 0000.0001) //     44 +++.+++++++++++++++++++++++++++++++++++++++++++++++++.++
(PID.TID 0000.0001) //     43 +++.+++++++++++++++++++++++++++++++++++++++++++++++++.++
(PID.TID 0000.0001) //     42 +++.+++++++++++++++++++++++++++++++++++++++++++++++++.++
(PID.TID 0000.0001) //     41 +++.+++++++++++++++++++++++++++++++++++++++++++++++++.++
(PID.TID 0000.0001) //     40 +++.+++++++++++++++++++++++++++++++++++++++++++++++++.++
(PID.TID 0000.0001) //     39 zzz.zzzzzzzzzzzzzzzzzzzzzzzzzzzzzzzzzzzzzzzzzzzzzzzzz.zz
(PID.TID 0000.0001) //     38 yyy.yyyyyyyyyyyyyyyyyyyyyyyyyyyyyyyyyyyyyyyyyyyyyyyyy.yy
(PID.TID 0000.0001) //     37 yyy.yyyyyyyyyyyyyyyyyyyyyyyyyyyyyyyyyyyyyyyyyyyyyyyyy.yy
(PID.TID 0000.0001) //     36 xxx.xxxxxxxxxxxxxxxxxxxxxxxxxxxxxxxxxxxxxxxxxxxxxxxxx.xx
(PID.TID 0000.0001) //     35 www.wwwwwwwwwwwwwwwwwwwwwwwwwwwwwwwwwwwwwwwwwwwwwwwww.ww
(PID.TID 0000.0001) //     34 vvv.vvvvvvvvvvvvvvvvvvvvvvvvvvvvvvvvvvvvvvvvvvvvvvvvv.vv
(PID.TID 0000.0001) //     33 vvv.vvvvvvvvvvvvvvvvvvvvvvvvvvvvvvvvvvvvvvvvvvvvvvvvv.vv
(PID.TID 0000.0001) //     32 uuu.uuuuuuuuuuuuuuuuuuuuuuuuuuuuuuuuuuuuuuuuuuuuuuuuu.uu
(PID.TID 0000.0001) //     31 ttt.ttttttttttttttttttttttttttttttttttttttttttttttttt.tt
(PID.TID 0000.0001) //     30 ttt.ttttttttttttttttttttttttttttttttttttttttttttttttt.tt
(PID.TID 0000.0001) //     29 sss.sssssssssssssssssssssssssssssssssssssssssssssssss.ss
(PID.TID 0000.0001) //     28 rrr.rrrrrrrrrrrrrrrrrrrrrrrrrrrrrrrrrrrrrrrrrrrrrrrrr.rr
(PID.TID 0000.0001) //     27 rrr.rrrrrrrrrrrrrrrrrrrrrrrrrrrrrrrrrrrrrrrrrrrrrrrrr.rr
(PID.TID 0000.0001) //     26 qqq.qqqqqqqqqqqqqqqqqqqqqqqqqqqqqqqqqqqqqqqqqqqqqqqqq.qq
(PID.TID 0000.0001) //     25 ppp.ppppppppppppppppppppppppppppppppppppppppppppppppp.pp
(PID.TID 0000.0001) //     24 ooo.ooooooooooooooooooooooooooooooooooooooooooooooooo.oo
(PID.TID 0000.0001) //     23 ooo.ooooooooooooooooooooooooooooooooooooooooooooooooo.oo
(PID.TID 0000.0001) //     22 nnn.nnnnnnnnnnnnnnnnnnnnnnnnnnnnnnnnnnnnnnnnnnnnnnnnn.nn
(PID.TID 0000.0001) //     21 mmm.mmmmmmmmmmmmmmmmmmmmmmmmmmmmmmmmmmmmmmmmmmmmmmmmm.mm
(PID.TID 0000.0001) //     20 mmm.mmmmmmmmmmmmmmmmmmmmmmmmmmmmmmmmmmmmmmmmmmmmmmmmm.mm
(PID.TID 0000.0001) //     19 lll.lllllllllllllllllllllllllllllllllllllllllllllllll.ll
(PID.TID 0000.0001) //     18 kkk.kkkkkkkkkkkkkkkkkkkkkkkkkkkkkkkkkkkkkkkkkkkkkkkkk.kk
(PID.TID 0000.0001) //     17 kkk.kkkkkkkkkkkkkkkkkkkkkkkkkkkkkkkkkkkkkkkkkkkkkkkkk.kk
(PID.TID 0000.0001) //     16 jjj.jjjjjjjjjjjjjjjjjjjjjjjjjjjjjjjjjjjjjjjjjjjjjjjjj.jj
(PID.TID 0000.0001) //     15 iii.iiiiiiiiiiiiiiiiiiiiiiiiiiiiiiiiiiiiiiiiiiiiiiiii.ii
(PID.TID 0000.0001) //     14 hhh.hhhhhhhhhhhhhhhhhhhhhhhhhhhhhhhhhhhhhhhhhhhhhhhhh.hh
(PID.TID 0000.0001) //     13 hhh.hhhhhhhhhhhhhhhhhhhhhhhhhhhhhhhhhhhhhhhhhhhhhhhhh.hh
(PID.TID 0000.0001) //     12 ggg.ggggggggggggggggggggggggggggggggggggggggggggggggg.gg
(PID.TID 0000.0001) //     11 fff.fffffffffffffffffffffffffffffffffffffffffffffffff.ff
(PID.TID 0000.0001) //     10 fff.fffffffffffffffffffffffffffffffffffffffffffffffff.ff
(PID.TID 0000.0001) //      9 eee.eeeeeeeeeeeeeeeeeeeeeeeeeeeeeeeeeeeeeeeeeeeeeeeee.ee
(PID.TID 0000.0001) //      8 ddd.ddddddddddddddddddddddddddddddddddddddddddddddddd.dd
(PID.TID 0000.0001) //      7 ddd.ddddddddddddddddddddddddddddddddddddddddddddddddd.dd
(PID.TID 0000.0001) //      6 ccc.ccccccccccccccccccccccccccccccccccccccccccccccccc.cc
(PID.TID 0000.0001) //      5 bbb.bbbbbbbbbbbbbbbbbbbbbbbbbbbbbbbbbbbbbbbbbbbbbbbbb.bb
(PID.TID 0000.0001) //      4 aaa.aaaaaaaaaaaaaaaaaaaaaaaaaaaaaaaaaaaaaaaaaaaaaaaaa.aa
(PID.TID 0000.0001) //      3 aaa.aaaaaaaaaaaaaaaaaaaaaaaaaaaaaaaaaaaaaaaaaaaaaaaaa.aa
(PID.TID 0000.0001) //      2 ---.-------------------------------------------------.--
(PID.TID 0000.0001) //      1 ........................................................
(PID.TID 0000.0001) //      0 +++.+++++++++++++++++++++++++++++++++++++++++++++++++.++
(PID.TID 0000.0001) //     -1 +++.+++++++++++++++++++++++++++++++++++++++++++++++++.++
(PID.TID 0000.0001) //     -2 +++.+++++++++++++++++++++++++++++++++++++++++++++++++.++
(PID.TID 0000.0001) // =======================================================
(PID.TID 0000.0001) // END OF FIELD                                          =
(PID.TID 0000.0001) // =======================================================
(PID.TID 0000.0001) 
(PID.TID 0000.0001) // =======================================================
(PID.TID 0000.0001) // Field hFacC at iteration          1
(PID.TID 0000.0001) // CMIN =          1.000000000000000E+32
(PID.TID 0000.0001) // CMAX =         -1.000000000000000E+32
(PID.TID 0000.0001) // CINT =          0.000000000000000E+00
(PID.TID 0000.0001) // SYMBOLS (CMIN->CMAX): -abcdefghijklmnopqrstuvwxyz+
(PID.TID 0000.0001) //                  0.0: .
(PID.TID 0000.0001) // RANGE I (Lo:Hi:Step):(  -2:  53:   1)
(PID.TID 0000.0001) // RANGE J (Lo:Hi:Step):( 103:  -2:  -1)
(PID.TID 0000.0001) // RANGE K (Lo:Hi:Step):(   1:   1:   1)
(PID.TID 0000.0001) // =======================================================
(PID.TID 0000.0001) // =======================================================
(PID.TID 0000.0001) // END OF FIELD                                          =
(PID.TID 0000.0001) // =======================================================
(PID.TID 0000.0001) 
(PID.TID 0000.0001) // =======================================================
(PID.TID 0000.0001) // Field hFacW at iteration          1
(PID.TID 0000.0001) // CMIN =          1.000000000000000E+32
(PID.TID 0000.0001) // CMAX =         -1.000000000000000E+32
(PID.TID 0000.0001) // CINT =          0.000000000000000E+00
(PID.TID 0000.0001) // SYMBOLS (CMIN->CMAX): -abcdefghijklmnopqrstuvwxyz+
(PID.TID 0000.0001) //                  0.0: .
(PID.TID 0000.0001) // RANGE I (Lo:Hi:Step):(  -2:  53:   1)
(PID.TID 0000.0001) // RANGE J (Lo:Hi:Step):( 103:  -2:  -1)
(PID.TID 0000.0001) // RANGE K (Lo:Hi:Step):(   1:   1:   1)
(PID.TID 0000.0001) // =======================================================
(PID.TID 0000.0001) // =======================================================
(PID.TID 0000.0001) // END OF FIELD                                          =
(PID.TID 0000.0001) // =======================================================
(PID.TID 0000.0001) 
(PID.TID 0000.0001) // =======================================================
(PID.TID 0000.0001) // Field hFacS at iteration          1
(PID.TID 0000.0001) // CMIN =          1.000000000000000E+32
(PID.TID 0000.0001) // CMAX =         -1.000000000000000E+32
(PID.TID 0000.0001) // CINT =          0.000000000000000E+00
(PID.TID 0000.0001) // SYMBOLS (CMIN->CMAX): -abcdefghijklmnopqrstuvwxyz+
(PID.TID 0000.0001) //                  0.0: .
(PID.TID 0000.0001) // RANGE I (Lo:Hi:Step):(  -2:  53:   1)
(PID.TID 0000.0001) // RANGE J (Lo:Hi:Step):( 103:  -2:  -1)
(PID.TID 0000.0001) // RANGE K (Lo:Hi:Step):(   1:   1:   1)
(PID.TID 0000.0001) // =======================================================
(PID.TID 0000.0001) // =======================================================
(PID.TID 0000.0001) // END OF FIELD                                          =
(PID.TID 0000.0001) // =======================================================
(PID.TID 0000.0001) 
(PID.TID 0000.0001) 
(PID.TID 0000.0001) // ===================================
(PID.TID 0000.0001) // GAD parameters :
(PID.TID 0000.0001) // ===================================
(PID.TID 0000.0001) tempAdvScheme =   /* Temp. Horiz.Advection scheme selector */
(PID.TID 0000.0001)                       2
(PID.TID 0000.0001)     ;
(PID.TID 0000.0001) tempVertAdvScheme =   /* Temp. Vert. Advection scheme selector */
(PID.TID 0000.0001)                       2
(PID.TID 0000.0001)     ;
(PID.TID 0000.0001) tempMultiDimAdvec =   /* use Muti-Dim Advec method for Temp */
(PID.TID 0000.0001)                   F
(PID.TID 0000.0001)     ;
(PID.TID 0000.0001) tempSOM_Advection = /* use 2nd Order Moment Advection for Temp */
(PID.TID 0000.0001)                   F
(PID.TID 0000.0001)     ;
(PID.TID 0000.0001) AdamsBashforthGt = /* apply Adams-Bashforth extrapolation on Gt */
(PID.TID 0000.0001)                   T
(PID.TID 0000.0001)     ;
(PID.TID 0000.0001) AdamsBashforth_T = /* apply Adams-Bashforth extrapolation on Temp */
(PID.TID 0000.0001)                   F
(PID.TID 0000.0001)     ;
(PID.TID 0000.0001) saltAdvScheme =   /* Salt. Horiz.advection scheme selector */
(PID.TID 0000.0001)                       2
(PID.TID 0000.0001)     ;
(PID.TID 0000.0001) saltVertAdvScheme =   /* Salt. Vert. Advection scheme selector */
(PID.TID 0000.0001)                       2
(PID.TID 0000.0001)     ;
(PID.TID 0000.0001) saltMultiDimAdvec =   /* use Muti-Dim Advec method for Salt */
(PID.TID 0000.0001)                   F
(PID.TID 0000.0001)     ;
(PID.TID 0000.0001) saltSOM_Advection = /* use 2nd Order Moment Advection for Salt */
(PID.TID 0000.0001)                   F
(PID.TID 0000.0001)     ;
(PID.TID 0000.0001) AdamsBashforthGs = /* apply Adams-Bashforth extrapolation on Gs */
(PID.TID 0000.0001)                   T
(PID.TID 0000.0001)     ;
(PID.TID 0000.0001) AdamsBashforth_S = /* apply Adams-Bashforth extrapolation on Salt */
(PID.TID 0000.0001)                   F
(PID.TID 0000.0001)     ;
(PID.TID 0000.0001) // ===================================
(PID.TID 0000.0001)  MDS_READ_FIELD: opening global file: phi0surf.exp1.jmd95z
(PID.TID 0000.0001) GAD_CHECK: #define ALLOW_GENERIC_ADVDIFF
(PID.TID 0000.0001) SHELFICE_CHECK: #define ALLOW_SHELFICE
(PID.TID 0000.0001) %MON fCori_max                    =  -1.3709057042516E-04
(PID.TID 0000.0001) %MON fCori_min                    =  -1.4360464034757E-04
(PID.TID 0000.0001) %MON fCori_mean                   =  -1.4069429304699E-04
(PID.TID 0000.0001) %MON fCori_sd                     =   1.9069739624987E-06
(PID.TID 0000.0001) %MON fCoriG_max                   =  -1.3713394327439E-04
(PID.TID 0000.0001) %MON fCoriG_min                   =  -1.4362679550910E-04
(PID.TID 0000.0001) %MON fCoriG_mean                  =  -1.4072713798624E-04
(PID.TID 0000.0001) %MON fCoriG_sd                    =   1.9008093726821E-06
(PID.TID 0000.0001) %MON fCoriCos_max                 =   4.9761447480159E-05
(PID.TID 0000.0001) %MON fCoriCos_min                 =   2.5450607565678E-05
(PID.TID 0000.0001) %MON fCoriCos_mean                =   3.7698922201606E-05
(PID.TID 0000.0001) %MON fCoriCos_sd                  =   7.0920218535054E-06
(PID.TID 0000.0001) INI_CG2D: CG2D normalisation factor =  1.0404366262810520E-03
(PID.TID 0000.0001) 
(PID.TID 0000.0001) CONFIG_CHECK: OK
(PID.TID 0000.0001) // =======================================================
(PID.TID 0000.0001) // Model configuration
(PID.TID 0000.0001) // =======================================================
(PID.TID 0000.0001) //
(PID.TID 0000.0001) // "Physical" paramters ( PARM01 in namelist )
(PID.TID 0000.0001) //
(PID.TID 0000.0001) buoyancyRelation = /* Type of relation to get Buoyancy */
(PID.TID 0000.0001)               'OCEANIC'
(PID.TID 0000.0001)     ;
(PID.TID 0000.0001) fluidIsAir  =  /* fluid major constituent is Air */
(PID.TID 0000.0001)                   F
(PID.TID 0000.0001)     ;
(PID.TID 0000.0001) fluidIsWater=  /* fluid major constituent is Water */
(PID.TID 0000.0001)                   T
(PID.TID 0000.0001)     ;
(PID.TID 0000.0001) usingPCoords =  /* use p (or p*) vertical coordinate */
(PID.TID 0000.0001)                   F
(PID.TID 0000.0001)     ;
(PID.TID 0000.0001) usingZCoords =  /* use z (or z*) vertical coordinate */
(PID.TID 0000.0001)                   T
(PID.TID 0000.0001)     ;
(PID.TID 0000.0001) tRef =   /* Reference temperature profile ( oC or K ) */
(PID.TID 0000.0001)    30 @ -1.900000000000000E+00              /* K =  1: 30 */
(PID.TID 0000.0001)     ;
(PID.TID 0000.0001) sRef =   /* Reference salinity profile ( psu ) */
(PID.TID 0000.0001)    30 @  3.440000000000000E+01              /* K =  1: 30 */
(PID.TID 0000.0001)     ;
(PID.TID 0000.0001) viscAh =   /* Lateral eddy viscosity ( m^2/s ) */
(PID.TID 0000.0001)                 6.000000000000000E+02
(PID.TID 0000.0001)     ;
(PID.TID 0000.0001) viscAhMax =   /* Maximum lateral eddy viscosity ( m^2/s ) */
(PID.TID 0000.0001)                 1.000000000000000E+21
(PID.TID 0000.0001)     ;
(PID.TID 0000.0001) viscAhGrid =   /* Grid dependent lateral eddy viscosity ( non-dim. ) */
(PID.TID 0000.0001)                 0.000000000000000E+00
(PID.TID 0000.0001)     ;
(PID.TID 0000.0001) useFullLeith =   /* Use Full Form of Leith Viscosity on/off flag*/
(PID.TID 0000.0001)                   F
(PID.TID 0000.0001)     ;
(PID.TID 0000.0001) useStrainTensionVisc =   /* Use StrainTension Form of Viscous Operator on/off flag*/
(PID.TID 0000.0001)                   F
(PID.TID 0000.0001)     ;
(PID.TID 0000.0001) useAreaViscLength =   /* Use area for visc length instead of geom. mean*/
(PID.TID 0000.0001)                   F
(PID.TID 0000.0001)     ;
(PID.TID 0000.0001) viscC2leith = /* Leith harmonic visc. factor (on grad(vort),non-dim.) */
(PID.TID 0000.0001)                 0.000000000000000E+00
(PID.TID 0000.0001)     ;
(PID.TID 0000.0001) viscC2leithD = /* Leith harmonic viscosity factor (on grad(div),non-dim.) */
(PID.TID 0000.0001)                 0.000000000000000E+00
(PID.TID 0000.0001)     ;
(PID.TID 0000.0001) viscC2smag =   /* Smagorinsky harmonic viscosity factor (non-dim.) */
(PID.TID 0000.0001)                 0.000000000000000E+00
(PID.TID 0000.0001)     ;
(PID.TID 0000.0001) viscA4 =   /* Lateral biharmonic viscosity ( m^4/s ) */
(PID.TID 0000.0001)                 0.000000000000000E+00
(PID.TID 0000.0001)     ;
(PID.TID 0000.0001) viscA4Max =   /* Maximum biharmonic viscosity ( m^2/s ) */
(PID.TID 0000.0001)                 1.000000000000000E+21
(PID.TID 0000.0001)     ;
(PID.TID 0000.0001) viscA4Grid =   /* Grid dependent biharmonic viscosity ( non-dim. ) */
(PID.TID 0000.0001)                 0.000000000000000E+00
(PID.TID 0000.0001)     ;
(PID.TID 0000.0001) viscC4leith = /* Leith biharm viscosity factor (on grad(vort), non-dim.) */
(PID.TID 0000.0001)                 0.000000000000000E+00
(PID.TID 0000.0001)     ;
(PID.TID 0000.0001) viscC4leithD = /* Leith biharm viscosity factor (on grad(div), non-dim.) */
(PID.TID 0000.0001)                 0.000000000000000E+00
(PID.TID 0000.0001)     ;
(PID.TID 0000.0001) viscC4Smag = /* Smagorinsky biharm viscosity factor (non-dim) */
(PID.TID 0000.0001)                 0.000000000000000E+00
(PID.TID 0000.0001)     ;
(PID.TID 0000.0001) no_slip_sides =  /* Viscous BCs: No-slip sides */
(PID.TID 0000.0001)                   F
(PID.TID 0000.0001)     ;
(PID.TID 0000.0001) sideDragFactor = /* side-drag scaling factor (non-dim) */
(PID.TID 0000.0001)                 2.000000000000000E+00
(PID.TID 0000.0001)     ;
(PID.TID 0000.0001) viscAr =   /* Vertical eddy viscosity ( m^2/s ) */
(PID.TID 0000.0001)                 1.000000000000000E-03
(PID.TID 0000.0001)     ;
(PID.TID 0000.0001) no_slip_bottom =  /* Viscous BCs: No-slip bottom */
(PID.TID 0000.0001)                   F
(PID.TID 0000.0001)     ;
(PID.TID 0000.0001) bottomDragLinear = /* linear bottom-drag coefficient ( m/s ) */
(PID.TID 0000.0001)                 0.000000000000000E+00
(PID.TID 0000.0001)     ;
(PID.TID 0000.0001) bottomDragQuadratic = /* quadratic bottom-drag coeff. ( m/m ) */
(PID.TID 0000.0001)                 2.500000000000000E-03
(PID.TID 0000.0001)     ;
(PID.TID 0000.0001) diffKhT =   /* Laplacian diffusion of heat laterally ( m^2/s ) */
(PID.TID 0000.0001)                 1.000000000000000E+02
(PID.TID 0000.0001)     ;
(PID.TID 0000.0001) diffK4T =   /* Biharmonic diffusion of heat laterally ( m^4/s ) */
(PID.TID 0000.0001)                 0.000000000000000E+00
(PID.TID 0000.0001)     ;
(PID.TID 0000.0001) diffKhS =   /* Laplacian diffusion of salt laterally ( m^2/s ) */
(PID.TID 0000.0001)                 1.000000000000000E+02
(PID.TID 0000.0001)     ;
(PID.TID 0000.0001) diffK4S =   /* Biharmonic diffusion of salt laterally ( m^4/s ) */
(PID.TID 0000.0001)                 0.000000000000000E+00
(PID.TID 0000.0001)     ;
(PID.TID 0000.0001) diffKrNrT = /* vertical profile of vertical diffusion of Temp ( m^2/s )*/
(PID.TID 0000.0001)    30 @  5.000000000000000E-05              /* K =  1: 30 */
(PID.TID 0000.0001)     ;
(PID.TID 0000.0001) diffKrNrS = /* vertical profile of vertical diffusion of Salt ( m^2/s )*/
(PID.TID 0000.0001)    30 @  5.000000000000000E-05              /* K =  1: 30 */
(PID.TID 0000.0001)     ;
(PID.TID 0000.0001) diffKrBL79surf = /* Surface diffusion for Bryan and Lewis 79 ( m^2/s ) */
(PID.TID 0000.0001)                 0.000000000000000E+00
(PID.TID 0000.0001)     ;
(PID.TID 0000.0001) diffKrBL79deep = /* Deep diffusion for Bryan and Lewis 1979 ( m^2/s ) */
(PID.TID 0000.0001)                 0.000000000000000E+00
(PID.TID 0000.0001)     ;
(PID.TID 0000.0001) diffKrBL79scl = /* Depth scale for Bryan and Lewis 1979 ( m ) */
(PID.TID 0000.0001)                 2.000000000000000E+02
(PID.TID 0000.0001)     ;
(PID.TID 0000.0001) diffKrBL79Ho = /* Turning depth for Bryan and Lewis 1979 ( m ) */
(PID.TID 0000.0001)                -2.000000000000000E+03
(PID.TID 0000.0001)     ;
(PID.TID 0000.0001) ivdc_kappa = /* Implicit Vertical Diffusivity for Convection ( m^2/s ) */
(PID.TID 0000.0001)                 0.000000000000000E+00
(PID.TID 0000.0001)     ;
(PID.TID 0000.0001) hMixCriteria=  /* Criteria for mixed-layer diagnostic */
(PID.TID 0000.0001)                -8.000000000000000E-01
(PID.TID 0000.0001)     ;
(PID.TID 0000.0001) eosType =  /* Type of Equation of State */
(PID.TID 0000.0001)               'JMD95Z'
(PID.TID 0000.0001)     ;
(PID.TID 0000.0001) tAlpha =   /* Linear EOS thermal expansion coefficient ( 1/oC ) */
(PID.TID 0000.0001)                 1.234567000000000E+05
(PID.TID 0000.0001)     ;
(PID.TID 0000.0001) sBeta =   /* Linear EOS haline contraction coefficient ( 1/psu ) */
(PID.TID 0000.0001)                 1.234567000000000E+05
(PID.TID 0000.0001)     ;
(PID.TID 0000.0001) rhonil =   /* Reference density ( kg/m^3 ) */
(PID.TID 0000.0001)                 1.030000000000000E+03
(PID.TID 0000.0001)     ;
(PID.TID 0000.0001) rhoConst =   /* Reference density ( kg/m^3 ) */
(PID.TID 0000.0001)                 1.030000000000000E+03
(PID.TID 0000.0001)     ;
(PID.TID 0000.0001) rhoFacC = /* normalized Reference density @ cell-Center (-) */
(PID.TID 0000.0001)    30 @  1.000000000000000E+00              /* K =  1: 30 */
(PID.TID 0000.0001)     ;
(PID.TID 0000.0001) rhoFacF = /* normalized Reference density @ W-Interface (-) */
(PID.TID 0000.0001)    31 @  1.000000000000000E+00              /* K =  1: 31 */
(PID.TID 0000.0001)     ;
(PID.TID 0000.0001) rhoConstFresh =   /* Reference density ( kg/m^3 ) */
(PID.TID 0000.0001)                 1.030000000000000E+03
(PID.TID 0000.0001)     ;
(PID.TID 0000.0001) gravity =   /* Gravitational acceleration ( m/s^2 ) */
(PID.TID 0000.0001)                 9.810000000000000E+00
(PID.TID 0000.0001)     ;
(PID.TID 0000.0001) gBaro =   /* Barotropic gravity ( m/s^2 ) */
(PID.TID 0000.0001)                 9.810000000000000E+00
(PID.TID 0000.0001)     ;
(PID.TID 0000.0001) rotationPeriod =   /* Rotation Period ( s ) */
(PID.TID 0000.0001)                 8.616400000000000E+04
(PID.TID 0000.0001)     ;
(PID.TID 0000.0001) omega =   /* Angular velocity ( rad/s ) */
(PID.TID 0000.0001)                 7.292123516990375E-05
(PID.TID 0000.0001)     ;
(PID.TID 0000.0001) f0 =   /* Reference coriolis parameter ( 1/s ) */
(PID.TID 0000.0001)                 1.000000000000000E-04
(PID.TID 0000.0001)     ;
(PID.TID 0000.0001) beta =   /* Beta ( 1/(m.s) ) */
(PID.TID 0000.0001)                 9.999999999999999E-12
(PID.TID 0000.0001)     ;
(PID.TID 0000.0001) freeSurfFac =   /* Implicit free surface factor */
(PID.TID 0000.0001)                 1.000000000000000E+00
(PID.TID 0000.0001)     ;
(PID.TID 0000.0001) implicitFreeSurface =   /* Implicit free surface on/off flag */
(PID.TID 0000.0001)                   T
(PID.TID 0000.0001)     ;
(PID.TID 0000.0001) rigidLid =   /* Rigid lid on/off flag */
(PID.TID 0000.0001)                   F
(PID.TID 0000.0001)     ;
(PID.TID 0000.0001) implicSurfPress =   /* Surface Pressure implicit factor (0-1)*/
(PID.TID 0000.0001)                 1.000000000000000E+00
(PID.TID 0000.0001)     ;
(PID.TID 0000.0001) implicDiv2Dflow =   /* Barot. Flow Div. implicit factor (0-1)*/
(PID.TID 0000.0001)                 1.000000000000000E+00
(PID.TID 0000.0001)     ;
(PID.TID 0000.0001) exactConserv =   /* Exact Volume Conservation on/off flag*/
(PID.TID 0000.0001)                   T
(PID.TID 0000.0001)     ;
(PID.TID 0000.0001) linFSConserveTr =   /* Tracer correction for Lin Free Surface on/off flag*/
(PID.TID 0000.0001)                   F
(PID.TID 0000.0001)     ;
(PID.TID 0000.0001) uniformLin_PhiSurf =   /* use uniform Bo_surf on/off flag*/
(PID.TID 0000.0001)                   T
(PID.TID 0000.0001)     ;
(PID.TID 0000.0001) nonlinFreeSurf =   /* Non-linear Free Surf. options (-1,0,1,2,3)*/
(PID.TID 0000.0001)                       0
(PID.TID 0000.0001)     ;
(PID.TID 0000.0001)      -1,0= Off ; 1,2,3= On, 2=+rescale gU,gV, 3=+update cg2d solv.
(PID.TID 0000.0001) hFacInf =   /* lower threshold for hFac (nonlinFreeSurf only)*/
(PID.TID 0000.0001)                 2.000000000000000E-01
(PID.TID 0000.0001)     ;
(PID.TID 0000.0001) hFacSup =   /* upper threshold for hFac (nonlinFreeSurf only)*/
(PID.TID 0000.0001)                 2.000000000000000E+00
(PID.TID 0000.0001)     ;
(PID.TID 0000.0001) select_rStar =   /* r* Coordinate options (not yet implemented)*/
(PID.TID 0000.0001)                       0
(PID.TID 0000.0001)     ;
(PID.TID 0000.0001) useRealFreshWaterFlux =   /* Real Fresh Water Flux on/off flag*/
(PID.TID 0000.0001)                   F
(PID.TID 0000.0001)     ;
(PID.TID 0000.0001) convertFW2Salt = /* convert F.W. Flux to Salt Flux (-1=use local S)(ppt)*/
(PID.TID 0000.0001)                 3.340000000000000E+01
(PID.TID 0000.0001)     ;
(PID.TID 0000.0001) use3Dsolver = /* use 3-D pressure solver on/off flag */
(PID.TID 0000.0001)                   F
(PID.TID 0000.0001)     ;
(PID.TID 0000.0001) nonHydrostatic =  /* Non-Hydrostatic on/off flag */
(PID.TID 0000.0001)                   F
(PID.TID 0000.0001)     ;
(PID.TID 0000.0001) nh_Am2 = /* Non-Hydrostatic terms scaling factor */
(PID.TID 0000.0001)                 1.000000000000000E+00
(PID.TID 0000.0001)     ;
(PID.TID 0000.0001) quasiHydrostatic = /* Quasi-Hydrostatic on/off flag */
(PID.TID 0000.0001)                   F
(PID.TID 0000.0001)     ;
(PID.TID 0000.0001) momStepping =  /* Momentum equation on/off flag */
(PID.TID 0000.0001)                   T
(PID.TID 0000.0001)     ;
(PID.TID 0000.0001) vectorInvariantMomentum= /* Vector-Invariant Momentum on/off */
(PID.TID 0000.0001)                   F
(PID.TID 0000.0001)     ;
(PID.TID 0000.0001) momAdvection =  /* Momentum advection on/off flag */
(PID.TID 0000.0001)                   T
(PID.TID 0000.0001)     ;
(PID.TID 0000.0001) momViscosity =  /* Momentum viscosity on/off flag */
(PID.TID 0000.0001)                   T
(PID.TID 0000.0001)     ;
(PID.TID 0000.0001) momImplVertAdv =/* Momentum implicit vert. advection on/off*/
(PID.TID 0000.0001)                   F
(PID.TID 0000.0001)     ;
(PID.TID 0000.0001) implicitViscosity = /* Implicit viscosity on/off flag */
(PID.TID 0000.0001)                   F
(PID.TID 0000.0001)     ;
(PID.TID 0000.0001) metricTerms =  /* metric-Terms on/off flag */
(PID.TID 0000.0001)                   T
(PID.TID 0000.0001)     ;
(PID.TID 0000.0001) useNHMTerms = /* Non-Hydrostatic Metric-Terms on/off */
(PID.TID 0000.0001)                   F
(PID.TID 0000.0001)     ;
(PID.TID 0000.0001) useConstantF =  /* use Constant f0 Coriolis flag */
(PID.TID 0000.0001)                   F
(PID.TID 0000.0001)     ;
(PID.TID 0000.0001) useBetaPlaneF = /* use Beta-Plane Coriolis flag */
(PID.TID 0000.0001)                   F
(PID.TID 0000.0001)     ;
(PID.TID 0000.0001) useSphereF  =   /* use Spherical Coriolis flag */
(PID.TID 0000.0001)                   T
(PID.TID 0000.0001)     ;
(PID.TID 0000.0001) use3dCoriolis = /* 3-D Coriolis on/off flag */
(PID.TID 0000.0001)                   F
(PID.TID 0000.0001)     ;
(PID.TID 0000.0001) useCoriolis =  /* Coriolis on/off flag */
(PID.TID 0000.0001)                   T
(PID.TID 0000.0001)     ;
(PID.TID 0000.0001) useCDscheme =  /* CD scheme on/off flag */
(PID.TID 0000.0001)                   T
(PID.TID 0000.0001)     ;
(PID.TID 0000.0001) useJamartWetPoints= /* Coriolis WetPoints method flag */
(PID.TID 0000.0001)                   F
(PID.TID 0000.0001)     ;
(PID.TID 0000.0001) useJamartMomAdv= /* V.I. Non-linear terms Jamart flag */
(PID.TID 0000.0001)                   F
(PID.TID 0000.0001)     ;
(PID.TID 0000.0001) SadournyCoriolis= /* Sadourny Coriolis discr. flag */
(PID.TID 0000.0001)                   F
(PID.TID 0000.0001)     ;
(PID.TID 0000.0001) upwindVorticity= /* Upwind bias vorticity flag */
(PID.TID 0000.0001)                   F
(PID.TID 0000.0001)     ;
(PID.TID 0000.0001) useAbsVorticity= /* Work with f+zeta in Coriolis */
(PID.TID 0000.0001)                   F
(PID.TID 0000.0001)     ;
(PID.TID 0000.0001) highOrderVorticity= /* High order interp. of vort. flag */
(PID.TID 0000.0001)                   F
(PID.TID 0000.0001)     ;
(PID.TID 0000.0001) upwindShear= /* Upwind vertical Shear advection flag */
(PID.TID 0000.0001)                   F
(PID.TID 0000.0001)     ;
(PID.TID 0000.0001) selectKEscheme= /* Kinetic Energy scheme selector */
(PID.TID 0000.0001)                       0
(PID.TID 0000.0001)     ;
(PID.TID 0000.0001) momForcing =  /* Momentum forcing on/off flag */
(PID.TID 0000.0001)                   T
(PID.TID 0000.0001)     ;
(PID.TID 0000.0001) momPressureForcing =  /* Momentum pressure term on/off flag */
(PID.TID 0000.0001)                   T
(PID.TID 0000.0001)     ;
(PID.TID 0000.0001) implicitIntGravWave= /* Implicit Internal Gravity Wave flag */
(PID.TID 0000.0001)                   F
(PID.TID 0000.0001)     ;
(PID.TID 0000.0001) staggerTimeStep =   /* Stagger time stepping on/off flag */
(PID.TID 0000.0001)                   F
(PID.TID 0000.0001)     ;
(PID.TID 0000.0001) multiDimAdvection =   /* enable/disable Multi-Dim Advection */
(PID.TID 0000.0001)                   T
(PID.TID 0000.0001)     ;
(PID.TID 0000.0001) useMultiDimAdvec =   /* Multi-Dim Advection is/is-not used */
(PID.TID 0000.0001)                   F
(PID.TID 0000.0001)     ;
(PID.TID 0000.0001) implicitDiffusion =/* Implicit Diffusion on/off flag */
(PID.TID 0000.0001)                   F
(PID.TID 0000.0001)     ;
(PID.TID 0000.0001) tempStepping =  /* Temperature equation on/off flag */
(PID.TID 0000.0001)                   T
(PID.TID 0000.0001)     ;
(PID.TID 0000.0001) tempAdvection=  /* Temperature advection on/off flag */
(PID.TID 0000.0001)                   T
(PID.TID 0000.0001)     ;
(PID.TID 0000.0001) tempImplVertAdv =/* Temp. implicit vert. advection on/off */
(PID.TID 0000.0001)                   F
(PID.TID 0000.0001)     ;
(PID.TID 0000.0001) tempForcing  =  /* Temperature forcing on/off flag */
(PID.TID 0000.0001)                   T
(PID.TID 0000.0001)     ;
(PID.TID 0000.0001) saltStepping =  /* Salinity equation on/off flag */
(PID.TID 0000.0001)                   T
(PID.TID 0000.0001)     ;
(PID.TID 0000.0001) saltAdvection=  /* Salinity advection on/off flag */
(PID.TID 0000.0001)                   T
(PID.TID 0000.0001)     ;
(PID.TID 0000.0001) saltImplVertAdv =/* Sali. implicit vert. advection on/off */
(PID.TID 0000.0001)                   F
(PID.TID 0000.0001)     ;
(PID.TID 0000.0001) saltForcing  =  /* Salinity forcing on/off flag */
(PID.TID 0000.0001)                   T
(PID.TID 0000.0001)     ;
(PID.TID 0000.0001)  readBinaryPrec = /* Precision used for reading binary files */
(PID.TID 0000.0001)                      64
(PID.TID 0000.0001)     ;
(PID.TID 0000.0001) writeBinaryPrec = /* Precision used for writing binary files */
(PID.TID 0000.0001)                      32
(PID.TID 0000.0001)     ;
(PID.TID 0000.0001)  globalFiles = /* write "global" (=not per tile) files */
(PID.TID 0000.0001)                   F
(PID.TID 0000.0001)     ;
(PID.TID 0000.0001)  useSingleCpuIO = /* only master MPI process does I/O */
(PID.TID 0000.0001)                   F
(PID.TID 0000.0001)     ;
(PID.TID 0000.0001)  debugMode  =  /* Debug Mode on/off flag */
(PID.TID 0000.0001)                   F
(PID.TID 0000.0001)     ;
(PID.TID 0000.0001)    debLevA  =  /* 1rst level of debugging */
(PID.TID 0000.0001)                       1
(PID.TID 0000.0001)     ;
(PID.TID 0000.0001)    debLevB  =  /* 2nd  level of debugging */
(PID.TID 0000.0001)                       2
(PID.TID 0000.0001)     ;
(PID.TID 0000.0001)  debugLevel =  /* select debugging level */
(PID.TID 0000.0001)                       1
(PID.TID 0000.0001)     ;
(PID.TID 0000.0001) //
(PID.TID 0000.0001) // Elliptic solver(s) paramters ( PARM02 in namelist )
(PID.TID 0000.0001) //
(PID.TID 0000.0001) cg2dMaxIters =   /* Upper limit on 2d con. grad iterations  */
(PID.TID 0000.0001)                    1000
(PID.TID 0000.0001)     ;
(PID.TID 0000.0001) cg2dChkResFreq =   /* 2d con. grad convergence test frequency */
(PID.TID 0000.0001)                       1
(PID.TID 0000.0001)     ;
(PID.TID 0000.0001) cg2dTargetResidual =   /* 2d con. grad target residual  */
(PID.TID 0000.0001)                 1.000000000000000E-13
(PID.TID 0000.0001)     ;
(PID.TID 0000.0001) cg2dTargetResWunit =   /* CG2d target residual [W units] */
(PID.TID 0000.0001)                -1.000000000000000E+00
(PID.TID 0000.0001)     ;
(PID.TID 0000.0001) cg2dPreCondFreq =   /* Freq. for updating cg2d preconditioner */
(PID.TID 0000.0001)                       1
(PID.TID 0000.0001)     ;
(PID.TID 0000.0001) //
(PID.TID 0000.0001) // Time stepping paramters ( PARM03 in namelist )
(PID.TID 0000.0001) //
(PID.TID 0000.0001) deltaTmom =   /* Momentum equation timestep ( s ) */
(PID.TID 0000.0001)                 1.800000000000000E+03
(PID.TID 0000.0001)     ;
(PID.TID 0000.0001) deltaTfreesurf =   /* FreeSurface equation timestep ( s ) */
(PID.TID 0000.0001)                 1.800000000000000E+03
(PID.TID 0000.0001)     ;
(PID.TID 0000.0001) dTtracerLev =   /* Tracer equation timestep ( s ) */
(PID.TID 0000.0001)    30 @  1.800000000000000E+03              /* K =  1: 30 */
(PID.TID 0000.0001)     ;
(PID.TID 0000.0001) deltaTClock  =   /* Model clock timestep ( s ) */
(PID.TID 0000.0001)                 1.800000000000000E+03
(PID.TID 0000.0001)     ;
(PID.TID 0000.0001) cAdjFreq =   /* Convective adjustment interval ( s ) */
(PID.TID 0000.0001)                 1.800000000000000E+03
(PID.TID 0000.0001)     ;
(PID.TID 0000.0001) momForcingOutAB = /* =1: take Momentum Forcing out of Adams-Bash. stepping */
(PID.TID 0000.0001)                       0
(PID.TID 0000.0001)     ;
(PID.TID 0000.0001) tracForcingOutAB = /* =1: take T,S,pTr Forcing out of Adams-Bash. stepping */
(PID.TID 0000.0001)                       0
(PID.TID 0000.0001)     ;
(PID.TID 0000.0001) momDissip_In_AB = /* put Dissipation Tendency in Adams-Bash. stepping */
(PID.TID 0000.0001)                   T
(PID.TID 0000.0001)     ;
(PID.TID 0000.0001) doAB_onGtGs = /* apply AB on Tendencies (rather than on T,S)*/
(PID.TID 0000.0001)                   T
(PID.TID 0000.0001)     ;
(PID.TID 0000.0001) abEps =   /* Adams-Bashforth-2 stabilizing weight */
(PID.TID 0000.0001)                 1.000000000000000E-01
(PID.TID 0000.0001)     ;
(PID.TID 0000.0001) tauCD =   /* CD coupling time-scale ( s ) */
(PID.TID 0000.0001)                 4.000000000000000E+05
(PID.TID 0000.0001)     ;
(PID.TID 0000.0001) rCD =   /* Normalised CD coupling parameter */
(PID.TID 0000.0001)                 9.955000000000001E-01
(PID.TID 0000.0001)     ;
(PID.TID 0000.0001) pickupStrictlyMatch= /* stop if pickup do not strictly match */
(PID.TID 0000.0001)                   T
(PID.TID 0000.0001)     ;
(PID.TID 0000.0001) nIter0 =   /* Run starting timestep number  */
(PID.TID 0000.0001)                       0
(PID.TID 0000.0001)     ;
(PID.TID 0000.0001) nTimeSteps =   /* Number of timesteps */
(PID.TID 0000.0001)                      20
(PID.TID 0000.0001)     ;
(PID.TID 0000.0001) baseTime =   /* Model base time ( s ). */
(PID.TID 0000.0001)                 0.000000000000000E+00
(PID.TID 0000.0001)     ;
(PID.TID 0000.0001) startTime =   /* Run start time ( s ). */
(PID.TID 0000.0001)                 0.000000000000000E+00
(PID.TID 0000.0001)     ;
(PID.TID 0000.0001) endTime =   /* Integration ending time ( s ). */
(PID.TID 0000.0001)                 3.600000000000000E+04
(PID.TID 0000.0001)     ;
(PID.TID 0000.0001) pChkPtFreq =   /* Permanent restart/checkpoint file interval ( s ). */
(PID.TID 0000.0001)                 0.000000000000000E+00
(PID.TID 0000.0001)     ;
(PID.TID 0000.0001) chkPtFreq =   /* Rolling restart/checkpoint file interval ( s ). */
(PID.TID 0000.0001)                 0.000000000000000E+00
(PID.TID 0000.0001)     ;
(PID.TID 0000.0001) pickup_write_mdsio =   /* Model IO flag. */
(PID.TID 0000.0001)                   T
(PID.TID 0000.0001)     ;
(PID.TID 0000.0001) pickup_read_mdsio =   /* Model IO flag. */
(PID.TID 0000.0001)                   T
(PID.TID 0000.0001)     ;
(PID.TID 0000.0001) pickup_write_mnc =   /* Model IO flag. */
(PID.TID 0000.0001)                   F
(PID.TID 0000.0001)     ;
(PID.TID 0000.0001) pickup_read_mnc =   /* Model IO flag. */
(PID.TID 0000.0001)                   F
(PID.TID 0000.0001)     ;
(PID.TID 0000.0001) pickup_write_immed =   /* Model IO flag. */
(PID.TID 0000.0001)                   F
(PID.TID 0000.0001)     ;
(PID.TID 0000.0001) writePickupAtEnd =   /* Model IO flag. */
(PID.TID 0000.0001)                   T
(PID.TID 0000.0001)     ;
(PID.TID 0000.0001) dumpFreq =   /* Model state write out interval ( s ). */
(PID.TID 0000.0001)                 0.000000000000000E+00
(PID.TID 0000.0001)     ;
(PID.TID 0000.0001) dumpInitAndLast= /* write out Initial & Last iter. model state */
(PID.TID 0000.0001)                   T
(PID.TID 0000.0001)     ;
(PID.TID 0000.0001) snapshot_mdsio =   /* Model IO flag. */
(PID.TID 0000.0001)                   F
(PID.TID 0000.0001)     ;
(PID.TID 0000.0001) snapshot_mnc =   /* Model IO flag. */
(PID.TID 0000.0001)                   T
(PID.TID 0000.0001)     ;
(PID.TID 0000.0001) monitorFreq =   /* Monitor output interval ( s ). */
(PID.TID 0000.0001)                 1.000000000000000E+00
(PID.TID 0000.0001)     ;
(PID.TID 0000.0001) monitorSelect = /* select group of variables to monitor */
(PID.TID 0000.0001)                       3
(PID.TID 0000.0001)     ;
(PID.TID 0000.0001) monitor_stdio =   /* Model IO flag. */
(PID.TID 0000.0001)                   T
(PID.TID 0000.0001)     ;
(PID.TID 0000.0001) monitor_mnc =   /* Model IO flag. */
(PID.TID 0000.0001)                   F
(PID.TID 0000.0001)     ;
(PID.TID 0000.0001) externForcingPeriod =   /* forcing period (s) */
(PID.TID 0000.0001)                 0.000000000000000E+00
(PID.TID 0000.0001)     ;
(PID.TID 0000.0001) externForcingCycle =   /* period of the cyle (s). */
(PID.TID 0000.0001)                 0.000000000000000E+00
(PID.TID 0000.0001)     ;
(PID.TID 0000.0001) tauThetaClimRelax =   /* relaxation time scale (s) */
(PID.TID 0000.0001)                 0.000000000000000E+00
(PID.TID 0000.0001)     ;
(PID.TID 0000.0001) tauSaltClimRelax =   /* relaxation time scale (s) */
(PID.TID 0000.0001)                 0.000000000000000E+00
(PID.TID 0000.0001)     ;
(PID.TID 0000.0001) latBandClimRelax =   /* max. Lat. where relaxation */
(PID.TID 0000.0001)                 1.800000000000000E+02
(PID.TID 0000.0001)     ;
(PID.TID 0000.0001) //
(PID.TID 0000.0001) // Gridding paramters ( PARM04 in namelist )
(PID.TID 0000.0001) //
(PID.TID 0000.0001) usingCartesianGrid = /* Cartesian coordinates flag ( True/False ) */
(PID.TID 0000.0001)                   F
(PID.TID 0000.0001)     ;
(PID.TID 0000.0001) usingCylindricalGrid = /* Cylindrical coordinates flag ( True/False ) */
(PID.TID 0000.0001)                   F
(PID.TID 0000.0001)     ;
(PID.TID 0000.0001) usingSphericalPolarGrid = /* Spherical coordinates flag ( True/False ) */
(PID.TID 0000.0001)                   T
(PID.TID 0000.0001)     ;
(PID.TID 0000.0001) usingCurvilinearGrid = /* Curvilinear coordinates flag ( True/False ) */
(PID.TID 0000.0001)                   F
(PID.TID 0000.0001)     ;
(PID.TID 0000.0001) Ro_SeaLevel = /* r(1) ( units of r ==  m ) */
(PID.TID 0000.0001)                 0.000000000000000E+00
(PID.TID 0000.0001)     ;
(PID.TID 0000.0001) rkSign =   /* index orientation relative to vertical coordinate */
(PID.TID 0000.0001)                -1.000000000000000E+00
(PID.TID 0000.0001)     ;
(PID.TID 0000.0001) gravitySign = /* gravity orientation relative to vertical coordinate */
(PID.TID 0000.0001)                -1.000000000000000E+00
(PID.TID 0000.0001)     ;
(PID.TID 0000.0001) mass2rUnit = /* convert mass per unit area [kg/m2] to r-units [m] */
(PID.TID 0000.0001)                 9.708737864077669E-04
(PID.TID 0000.0001)     ;
(PID.TID 0000.0001) rUnit2mass = /* convert r-units [m] to mass per unit area [kg/m2] */
(PID.TID 0000.0001)                 1.030000000000000E+03
(PID.TID 0000.0001)     ;
(PID.TID 0000.0001) drC =   /* C spacing ( units of r ) */
(PID.TID 0000.0001)                 1.500000000000000E+01,      /* K =  1 */
(PID.TID 0000.0001)    29 @  3.000000000000000E+01              /* K =  2: 30 */
(PID.TID 0000.0001)     ;
(PID.TID 0000.0001) drF =   /* W spacing ( units of r ) */
(PID.TID 0000.0001)    30 @  3.000000000000000E+01              /* K =  1: 30 */
(PID.TID 0000.0001)     ;
(PID.TID 0000.0001) delX =   /* U spacing ( m - cartesian, degrees - spherical ) */
(PID.TID 0000.0001)    50 @  3.000000000000000E-01              /* I =  1: 50 */
(PID.TID 0000.0001)     ;
(PID.TID 0000.0001) delY =   /* V spacing ( m - cartesian, degrees - spherical ) */
(PID.TID 0000.0001)   100 @  1.000000000000000E-01              /* J =  1:100 */
(PID.TID 0000.0001)     ;
(PID.TID 0000.0001) phiMin =    /* South edge (ignored - cartesian, degrees - spherical ) */
(PID.TID 0000.0001)                -8.000000000000000E+01
(PID.TID 0000.0001)     ;
(PID.TID 0000.0001) thetaMin =    /* West edge ( ignored - cartesian, degrees - spherical ) */
(PID.TID 0000.0001)                 0.000000000000000E+00
(PID.TID 0000.0001)     ;
(PID.TID 0000.0001) rSphere =  /* Radius ( ignored - cartesian, m - spherical ) */
(PID.TID 0000.0001)                 6.370000000000000E+06
(PID.TID 0000.0001)     ;
(PID.TID 0000.0001) deepAtmosphere = /* Deep/Shallow Atmosphere flag (True/False) */
(PID.TID 0000.0001)                   F
(PID.TID 0000.0001)     ;
(PID.TID 0000.0001) xcoord =   /* P-point X coord ( m - cartesian, degrees - spherical ) */
(PID.TID 0000.0001)                 1.500000000000001E-01,      /* I =  1 */
(PID.TID 0000.0001)                 4.500000000000001E-01,      /* I =  2 */
(PID.TID 0000.0001)                 7.500000000000002E-01,      /* I =  3 */
(PID.TID 0000.0001)                 1.050000000000000E+00,      /* I =  4 */
(PID.TID 0000.0001)                 1.350000000000000E+00,      /* I =  5 */
(PID.TID 0000.0001)                 1.650000000000000E+00,      /* I =  6 */
(PID.TID 0000.0001)                 1.950000000000000E+00,      /* I =  7 */
(PID.TID 0000.0001)                 2.250000000000000E+00,      /* I =  8 */
(PID.TID 0000.0001)                 2.550000000000000E+00,      /* I =  9 */
(PID.TID 0000.0001)                 2.850000000000000E+00,      /* I = 10 */
(PID.TID 0000.0001)                 3.149999999999999E+00,      /* I = 11 */
(PID.TID 0000.0001)                 3.449999999999999E+00,      /* I = 12 */
(PID.TID 0000.0001)                 3.749999999999999E+00,      /* I = 13 */
(PID.TID 0000.0001)                 4.049999999999999E+00,      /* I = 14 */
(PID.TID 0000.0001)                 4.350000000000000E+00,      /* I = 15 */
(PID.TID 0000.0001)                 4.649999999999999E+00,      /* I = 16 */
(PID.TID 0000.0001)                 4.949999999999999E+00,      /* I = 17 */
(PID.TID 0000.0001)                 5.249999999999998E+00,      /* I = 18 */
(PID.TID 0000.0001)                 5.549999999999999E+00,      /* I = 19 */
(PID.TID 0000.0001)                 5.849999999999998E+00,      /* I = 20 */
(PID.TID 0000.0001)                 6.149999999999999E+00,      /* I = 21 */
(PID.TID 0000.0001)                 6.449999999999998E+00,      /* I = 22 */
(PID.TID 0000.0001)                 6.749999999999998E+00,      /* I = 23 */
(PID.TID 0000.0001)                 7.049999999999997E+00,      /* I = 24 */
(PID.TID 0000.0001)                 7.349999999999997E+00,      /* I = 25 */
(PID.TID 0000.0001)                 7.649999999999997E+00,      /* I = 26 */
(PID.TID 0000.0001)                 7.949999999999998E+00,      /* I = 27 */
(PID.TID 0000.0001)                 8.249999999999998E+00,      /* I = 28 */
(PID.TID 0000.0001)                 8.549999999999999E+00,      /* I = 29 */
(PID.TID 0000.0001)                 8.850000000000000E+00,      /* I = 30 */
(PID.TID 0000.0001)                 9.150000000000000E+00,      /* I = 31 */
(PID.TID 0000.0001)                 9.450000000000001E+00,      /* I = 32 */
(PID.TID 0000.0001)                 9.750000000000002E+00,      /* I = 33 */
(PID.TID 0000.0001)                 1.005000000000000E+01,      /* I = 34 */
(PID.TID 0000.0001)                 1.035000000000000E+01,      /* I = 35 */
(PID.TID 0000.0001)                 1.065000000000000E+01,      /* I = 36 */
(PID.TID 0000.0001)                 1.095000000000001E+01,      /* I = 37 */
(PID.TID 0000.0001)                 1.125000000000001E+01,      /* I = 38 */
(PID.TID 0000.0001)                 1.155000000000000E+01,      /* I = 39 */
(PID.TID 0000.0001)                 1.185000000000001E+01,      /* I = 40 */
(PID.TID 0000.0001)                 1.215000000000001E+01,      /* I = 41 */
(PID.TID 0000.0001)                 1.245000000000001E+01,      /* I = 42 */
(PID.TID 0000.0001)                 1.275000000000001E+01,      /* I = 43 */
(PID.TID 0000.0001)                 1.305000000000001E+01,      /* I = 44 */
(PID.TID 0000.0001)                 1.335000000000001E+01,      /* I = 45 */
(PID.TID 0000.0001)                 1.365000000000001E+01,      /* I = 46 */
(PID.TID 0000.0001)                 1.395000000000001E+01,      /* I = 47 */
(PID.TID 0000.0001)                 1.425000000000001E+01,      /* I = 48 */
(PID.TID 0000.0001)                 1.455000000000001E+01,      /* I = 49 */
(PID.TID 0000.0001)                 1.485000000000001E+01       /* I = 50 */
(PID.TID 0000.0001)     ;
(PID.TID 0000.0001) ycoord =   /* P-point Y coord ( m - cartesian, degrees - spherical ) */
(PID.TID 0000.0001)                -7.995000000000000E+01,      /* J =  1 */
(PID.TID 0000.0001)                -7.985000000000001E+01,      /* J =  2 */
(PID.TID 0000.0001)                -7.975000000000001E+01,      /* J =  3 */
(PID.TID 0000.0001)                -7.965000000000002E+01,      /* J =  4 */
(PID.TID 0000.0001)                -7.955000000000003E+01,      /* J =  5 */
(PID.TID 0000.0001)                -7.945000000000003E+01,      /* J =  6 */
(PID.TID 0000.0001)                -7.935000000000004E+01,      /* J =  7 */
(PID.TID 0000.0001)                -7.925000000000004E+01,      /* J =  8 */
(PID.TID 0000.0001)                -7.915000000000005E+01,      /* J =  9 */
(PID.TID 0000.0001)                -7.905000000000005E+01,      /* J = 10 */
(PID.TID 0000.0001)                -7.895000000000006E+01,      /* J = 11 */
(PID.TID 0000.0001)                -7.885000000000007E+01,      /* J = 12 */
(PID.TID 0000.0001)                -7.875000000000007E+01,      /* J = 13 */
(PID.TID 0000.0001)                -7.865000000000008E+01,      /* J = 14 */
(PID.TID 0000.0001)                -7.855000000000008E+01,      /* J = 15 */
(PID.TID 0000.0001)                -7.845000000000009E+01,      /* J = 16 */
(PID.TID 0000.0001)                -7.835000000000009E+01,      /* J = 17 */
(PID.TID 0000.0001)                -7.825000000000010E+01,      /* J = 18 */
(PID.TID 0000.0001)                -7.815000000000011E+01,      /* J = 19 */
(PID.TID 0000.0001)                -7.805000000000011E+01,      /* J = 20 */
(PID.TID 0000.0001)                -7.795000000000012E+01,      /* J = 21 */
(PID.TID 0000.0001)                -7.785000000000012E+01,      /* J = 22 */
(PID.TID 0000.0001)                -7.775000000000013E+01,      /* J = 23 */
(PID.TID 0000.0001)                -7.765000000000013E+01,      /* J = 24 */
(PID.TID 0000.0001)                -7.755000000000014E+01,      /* J = 25 */
(PID.TID 0000.0001)                -7.745000000000014E+01,      /* J = 26 */
(PID.TID 0000.0001)                -7.735000000000015E+01,      /* J = 27 */
(PID.TID 0000.0001)                -7.725000000000016E+01,      /* J = 28 */
(PID.TID 0000.0001)                -7.715000000000016E+01,      /* J = 29 */
(PID.TID 0000.0001)                -7.705000000000017E+01,      /* J = 30 */
(PID.TID 0000.0001)                -7.695000000000017E+01,      /* J = 31 */
(PID.TID 0000.0001)                -7.685000000000018E+01,      /* J = 32 */
(PID.TID 0000.0001)                -7.675000000000018E+01,      /* J = 33 */
(PID.TID 0000.0001)                -7.665000000000019E+01,      /* J = 34 */
(PID.TID 0000.0001)                -7.655000000000020E+01,      /* J = 35 */
(PID.TID 0000.0001)                -7.645000000000020E+01,      /* J = 36 */
(PID.TID 0000.0001)                -7.635000000000021E+01,      /* J = 37 */
(PID.TID 0000.0001)                -7.625000000000021E+01,      /* J = 38 */
(PID.TID 0000.0001)                -7.615000000000022E+01,      /* J = 39 */
(PID.TID 0000.0001)                -7.605000000000022E+01,      /* J = 40 */
(PID.TID 0000.0001)                -7.595000000000023E+01,      /* J = 41 */
(PID.TID 0000.0001)                -7.585000000000024E+01,      /* J = 42 */
(PID.TID 0000.0001)                -7.575000000000024E+01,      /* J = 43 */
(PID.TID 0000.0001)                -7.565000000000025E+01,      /* J = 44 */
(PID.TID 0000.0001)                -7.555000000000025E+01,      /* J = 45 */
(PID.TID 0000.0001)                -7.545000000000026E+01,      /* J = 46 */
(PID.TID 0000.0001)                -7.535000000000026E+01,      /* J = 47 */
(PID.TID 0000.0001)                -7.525000000000027E+01,      /* J = 48 */
(PID.TID 0000.0001)                -7.515000000000028E+01,      /* J = 49 */
(PID.TID 0000.0001)                -7.505000000000028E+01,      /* J = 50 */
(PID.TID 0000.0001)                -7.495000000000029E+01,      /* J = 51 */
(PID.TID 0000.0001)                -7.485000000000029E+01,      /* J = 52 */
(PID.TID 0000.0001)                -7.475000000000030E+01,      /* J = 53 */
(PID.TID 0000.0001)                -7.465000000000030E+01,      /* J = 54 */
(PID.TID 0000.0001)                -7.455000000000031E+01,      /* J = 55 */
(PID.TID 0000.0001)                -7.445000000000032E+01,      /* J = 56 */
(PID.TID 0000.0001)                -7.435000000000032E+01,      /* J = 57 */
(PID.TID 0000.0001)                -7.425000000000033E+01,      /* J = 58 */
(PID.TID 0000.0001)                -7.415000000000033E+01,      /* J = 59 */
(PID.TID 0000.0001)                -7.405000000000034E+01,      /* J = 60 */
(PID.TID 0000.0001)                -7.395000000000034E+01,      /* J = 61 */
(PID.TID 0000.0001)                -7.385000000000035E+01,      /* J = 62 */
(PID.TID 0000.0001)                -7.375000000000036E+01,      /* J = 63 */
(PID.TID 0000.0001)                -7.365000000000036E+01,      /* J = 64 */
(PID.TID 0000.0001)                -7.355000000000037E+01,      /* J = 65 */
(PID.TID 0000.0001)                -7.345000000000037E+01,      /* J = 66 */
(PID.TID 0000.0001)                -7.335000000000038E+01,      /* J = 67 */
(PID.TID 0000.0001)                -7.325000000000038E+01,      /* J = 68 */
(PID.TID 0000.0001)                -7.315000000000039E+01,      /* J = 69 */
(PID.TID 0000.0001)                -7.305000000000040E+01,      /* J = 70 */
(PID.TID 0000.0001)                -7.295000000000040E+01,      /* J = 71 */
(PID.TID 0000.0001)                -7.285000000000041E+01,      /* J = 72 */
(PID.TID 0000.0001)                -7.275000000000041E+01,      /* J = 73 */
(PID.TID 0000.0001)                -7.265000000000042E+01,      /* J = 74 */
(PID.TID 0000.0001)                -7.255000000000042E+01,      /* J = 75 */
(PID.TID 0000.0001)                -7.245000000000043E+01,      /* J = 76 */
(PID.TID 0000.0001)                -7.235000000000043E+01,      /* J = 77 */
(PID.TID 0000.0001)                -7.225000000000044E+01,      /* J = 78 */
(PID.TID 0000.0001)                -7.215000000000045E+01,      /* J = 79 */
(PID.TID 0000.0001)                -7.205000000000045E+01,      /* J = 80 */
(PID.TID 0000.0001)                -7.195000000000046E+01,      /* J = 81 */
(PID.TID 0000.0001)                -7.185000000000046E+01,      /* J = 82 */
(PID.TID 0000.0001)                -7.175000000000047E+01,      /* J = 83 */
(PID.TID 0000.0001)                -7.165000000000047E+01,      /* J = 84 */
(PID.TID 0000.0001)                -7.155000000000048E+01,      /* J = 85 */
(PID.TID 0000.0001)                -7.145000000000049E+01,      /* J = 86 */
(PID.TID 0000.0001)                -7.135000000000049E+01,      /* J = 87 */
(PID.TID 0000.0001)                -7.125000000000050E+01,      /* J = 88 */
(PID.TID 0000.0001)                -7.115000000000050E+01,      /* J = 89 */
(PID.TID 0000.0001)                -7.105000000000051E+01,      /* J = 90 */
(PID.TID 0000.0001)                -7.095000000000051E+01,      /* J = 91 */
(PID.TID 0000.0001)                -7.085000000000052E+01,      /* J = 92 */
(PID.TID 0000.0001)                -7.075000000000053E+01,      /* J = 93 */
(PID.TID 0000.0001)                -7.065000000000053E+01,      /* J = 94 */
(PID.TID 0000.0001)                -7.055000000000054E+01,      /* J = 95 */
(PID.TID 0000.0001)                -7.045000000000054E+01,      /* J = 96 */
(PID.TID 0000.0001)                -7.035000000000055E+01,      /* J = 97 */
(PID.TID 0000.0001)                -7.025000000000055E+01,      /* J = 98 */
(PID.TID 0000.0001)                -7.015000000000056E+01,      /* J = 99 */
(PID.TID 0000.0001)                -7.005000000000057E+01       /* J =100 */
(PID.TID 0000.0001)     ;
(PID.TID 0000.0001) rcoord =   /* P-point R coordinate (  units of r ) */
(PID.TID 0000.0001)                -1.500000000000000E+01,      /* K =  1 */
(PID.TID 0000.0001)                -4.500000000000000E+01,      /* K =  2 */
(PID.TID 0000.0001)                -7.500000000000000E+01,      /* K =  3 */
(PID.TID 0000.0001)                -1.050000000000000E+02,      /* K =  4 */
(PID.TID 0000.0001)                -1.350000000000000E+02,      /* K =  5 */
(PID.TID 0000.0001)                -1.650000000000000E+02,      /* K =  6 */
(PID.TID 0000.0001)                -1.950000000000000E+02,      /* K =  7 */
(PID.TID 0000.0001)                -2.250000000000000E+02,      /* K =  8 */
(PID.TID 0000.0001)                -2.550000000000000E+02,      /* K =  9 */
(PID.TID 0000.0001)                -2.850000000000000E+02,      /* K = 10 */
(PID.TID 0000.0001)                -3.150000000000000E+02,      /* K = 11 */
(PID.TID 0000.0001)                -3.450000000000000E+02,      /* K = 12 */
(PID.TID 0000.0001)                -3.750000000000000E+02,      /* K = 13 */
(PID.TID 0000.0001)                -4.050000000000000E+02,      /* K = 14 */
(PID.TID 0000.0001)                -4.350000000000000E+02,      /* K = 15 */
(PID.TID 0000.0001)                -4.650000000000000E+02,      /* K = 16 */
(PID.TID 0000.0001)                -4.950000000000000E+02,      /* K = 17 */
(PID.TID 0000.0001)                -5.250000000000000E+02,      /* K = 18 */
(PID.TID 0000.0001)                -5.550000000000000E+02,      /* K = 19 */
(PID.TID 0000.0001)                -5.850000000000000E+02,      /* K = 20 */
(PID.TID 0000.0001)                -6.150000000000000E+02,      /* K = 21 */
(PID.TID 0000.0001)                -6.450000000000000E+02,      /* K = 22 */
(PID.TID 0000.0001)                -6.750000000000000E+02,      /* K = 23 */
(PID.TID 0000.0001)                -7.050000000000000E+02,      /* K = 24 */
(PID.TID 0000.0001)                -7.350000000000000E+02,      /* K = 25 */
(PID.TID 0000.0001)                -7.650000000000000E+02,      /* K = 26 */
(PID.TID 0000.0001)                -7.950000000000000E+02,      /* K = 27 */
(PID.TID 0000.0001)                -8.250000000000000E+02,      /* K = 28 */
(PID.TID 0000.0001)                -8.550000000000000E+02,      /* K = 29 */
(PID.TID 0000.0001)                -8.850000000000000E+02       /* K = 30 */
(PID.TID 0000.0001)     ;
(PID.TID 0000.0001) rF =   /* W-Interf. R coordinate (  units of r ) */
(PID.TID 0000.0001)                 0.000000000000000E+00,      /* K =  1 */
(PID.TID 0000.0001)                -3.000000000000000E+01,      /* K =  2 */
(PID.TID 0000.0001)                -6.000000000000000E+01,      /* K =  3 */
(PID.TID 0000.0001)                -9.000000000000000E+01,      /* K =  4 */
(PID.TID 0000.0001)                -1.200000000000000E+02,      /* K =  5 */
(PID.TID 0000.0001)                -1.500000000000000E+02,      /* K =  6 */
(PID.TID 0000.0001)                -1.800000000000000E+02,      /* K =  7 */
(PID.TID 0000.0001)                -2.100000000000000E+02,      /* K =  8 */
(PID.TID 0000.0001)                -2.400000000000000E+02,      /* K =  9 */
(PID.TID 0000.0001)                -2.700000000000000E+02,      /* K = 10 */
(PID.TID 0000.0001)                -3.000000000000000E+02,      /* K = 11 */
(PID.TID 0000.0001)                -3.300000000000000E+02,      /* K = 12 */
(PID.TID 0000.0001)                -3.600000000000000E+02,      /* K = 13 */
(PID.TID 0000.0001)                -3.900000000000000E+02,      /* K = 14 */
(PID.TID 0000.0001)                -4.200000000000000E+02,      /* K = 15 */
(PID.TID 0000.0001)                -4.500000000000000E+02,      /* K = 16 */
(PID.TID 0000.0001)                -4.800000000000000E+02,      /* K = 17 */
(PID.TID 0000.0001)                -5.100000000000000E+02,      /* K = 18 */
(PID.TID 0000.0001)                -5.400000000000000E+02,      /* K = 19 */
(PID.TID 0000.0001)                -5.700000000000000E+02,      /* K = 20 */
(PID.TID 0000.0001)                -6.000000000000000E+02,      /* K = 21 */
(PID.TID 0000.0001)                -6.300000000000000E+02,      /* K = 22 */
(PID.TID 0000.0001)                -6.600000000000000E+02,      /* K = 23 */
(PID.TID 0000.0001)                -6.900000000000000E+02,      /* K = 24 */
(PID.TID 0000.0001)                -7.200000000000000E+02,      /* K = 25 */
(PID.TID 0000.0001)                -7.500000000000000E+02,      /* K = 26 */
(PID.TID 0000.0001)                -7.800000000000000E+02,      /* K = 27 */
(PID.TID 0000.0001)                -8.100000000000000E+02,      /* K = 28 */
(PID.TID 0000.0001)                -8.400000000000000E+02,      /* K = 29 */
(PID.TID 0000.0001)                -8.700000000000000E+02,      /* K = 30 */
(PID.TID 0000.0001)                -9.000000000000000E+02       /* K = 31 */
(PID.TID 0000.0001)     ;
(PID.TID 0000.0001) deepFacC = /* deep-model grid factor @ cell-Center (-) */
(PID.TID 0000.0001)    30 @  1.000000000000000E+00              /* K =  1: 30 */
(PID.TID 0000.0001)     ;
(PID.TID 0000.0001) deepFacF = /* deep-model grid factor @ W-Interface (-) */
(PID.TID 0000.0001)    31 @  1.000000000000000E+00              /* K =  1: 31 */
(PID.TID 0000.0001)     ;
(PID.TID 0000.0001) rVel2wUnit = /* convert units: rVel -> wSpeed (=1 if z-coord)*/
(PID.TID 0000.0001)    31 @  1.000000000000000E+00              /* K =  1: 31 */
(PID.TID 0000.0001)     ;
(PID.TID 0000.0001) wUnit2rVel = /* convert units: wSpeed -> rVel (=1 if z-coord)*/
(PID.TID 0000.0001)    31 @  1.000000000000000E+00              /* K =  1: 31 */
(PID.TID 0000.0001)     ;
(PID.TID 0000.0001) dBdrRef = /* Vertical gradient of reference boyancy [(m/s/r)^2)] */
(PID.TID 0000.0001)    30 @  0.000000000000000E+00              /* K =  1: 30 */
(PID.TID 0000.0001)     ;
(PID.TID 0000.0001) rotateGrid = /* use rotated grid ( True/False ) */
(PID.TID 0000.0001)                   F
(PID.TID 0000.0001)     ;
(PID.TID 0000.0001) phiEuler = /* Euler angle, rotation about original z-coordinate [rad] */
(PID.TID 0000.0001)                 9.708737864077669E-04
(PID.TID 0000.0001)     ;
(PID.TID 0000.0001) thetaEuler = /* Euler angle, rotation about new x-coordinate [rad] */
(PID.TID 0000.0001)                 9.708737864077669E-04
(PID.TID 0000.0001)     ;
(PID.TID 0000.0001) psiEuler = /* Euler angle, rotation about new z-coordinate [rad] */
(PID.TID 0000.0001)                 9.708737864077669E-04
(PID.TID 0000.0001)     ;
(PID.TID 0000.0001) dxF =  /* dxF(:,1,:,1) ( units: m ) */
(PID.TID 0000.0001)    50 @  5.820391490558872E+03              /* I =  1: 50 */
(PID.TID 0000.0001)     ;
(PID.TID 0000.0001) dxF =  /* dxF(1,:,1,:) ( units: m ) */
(PID.TID 0000.0001)                 5.820391490558872E+03,      /* J =  1 */
(PID.TID 0000.0001)                 5.877701765291692E+03,      /* J =  2 */
(PID.TID 0000.0001)                 5.934994135525598E+03,      /* J =  3 */
(PID.TID 0000.0001)                 5.992268426738092E+03,      /* J =  4 */
(PID.TID 0000.0001)                 6.049524464461751E+03,      /* J =  5 */
(PID.TID 0000.0001)                 6.106762074284755E+03,      /* J =  6 */
(PID.TID 0000.0001)                 6.163981081851418E+03,      /* J =  7 */
(PID.TID 0000.0001)                 6.221181312862721E+03,      /* J =  8 */
(PID.TID 0000.0001)                 6.278362593076839E+03,      /* J =  9 */
(PID.TID 0000.0001)                 6.335524748309675E+03,      /* J = 10 */
(PID.TID 0000.0001)                 6.392667604435392E+03,      /* J = 11 */
(PID.TID 0000.0001)                 6.449790987386939E+03,      /* J = 12 */
(PID.TID 0000.0001)                 6.506894723156589E+03,      /* J = 13 */
(PID.TID 0000.0001)                 6.563978637796454E+03,      /* J = 14 */
(PID.TID 0000.0001)                 6.621042557419033E+03,      /* J = 15 */
(PID.TID 0000.0001)                 6.678086308197730E+03,      /* J = 16 */
(PID.TID 0000.0001)                 6.735109716367390E+03,      /* J = 17 */
(PID.TID 0000.0001)                 6.792112608224819E+03,      /* J = 18 */
(PID.TID 0000.0001)                 6.849094810129332E+03,      /* J = 19 */
(PID.TID 0000.0001)                 6.906056148503244E+03,      /* J = 20 */
(PID.TID 0000.0001)                 6.962996449832446E+03,      /* J = 21 */
(PID.TID 0000.0001)                 7.019915540666910E+03,      /* J = 22 */
(PID.TID 0000.0001)                 7.076813247621209E+03,      /* J = 23 */
(PID.TID 0000.0001)                 7.133689397375063E+03,      /* J = 24 */
(PID.TID 0000.0001)                 7.190543816673855E+03,      /* J = 25 */
(PID.TID 0000.0001)                 7.247376332329164E+03,      /* J = 26 */
(PID.TID 0000.0001)                 7.304186771219292E+03,      /* J = 27 */
(PID.TID 0000.0001)                 7.360974960289787E+03,      /* J = 28 */
(PID.TID 0000.0001)                 7.417740726553981E+03,      /* J = 29 */
(PID.TID 0000.0001)                 7.474483897093503E+03,      /* J = 30 */
(PID.TID 0000.0001)                 7.531204299058815E+03,      /* J = 31 */
(PID.TID 0000.0001)                 7.587901759669735E+03,      /* J = 32 */
(PID.TID 0000.0001)                 7.644576106215967E+03,      /* J = 33 */
(PID.TID 0000.0001)                 7.701227166057623E+03,      /* J = 34 */
(PID.TID 0000.0001)                 7.757854766625747E+03,      /* J = 35 */
(PID.TID 0000.0001)                 7.814458735422849E+03,      /* J = 36 */
(PID.TID 0000.0001)                 7.871038900023425E+03,      /* J = 37 */
(PID.TID 0000.0001)                 7.927595088074479E+03,      /* J = 38 */
(PID.TID 0000.0001)                 7.984127127296055E+03,      /* J = 39 */
(PID.TID 0000.0001)                 8.040634845481757E+03,      /* J = 40 */
(PID.TID 0000.0001)                 8.097118070499275E+03,      /* J = 41 */
(PID.TID 0000.0001)                 8.153576630290919E+03,      /* J = 42 */
(PID.TID 0000.0001)                 8.210010352874109E+03,      /* J = 43 */
(PID.TID 0000.0001)                 8.266419066341947E+03,      /* J = 44 */
(PID.TID 0000.0001)                 8.322802598863705E+03,      /* J = 45 */
(PID.TID 0000.0001)                 8.379160778685373E+03,      /* J = 46 */
(PID.TID 0000.0001)                 8.435493434130152E+03,      /* J = 47 */
(PID.TID 0000.0001)                 8.491800393599013E+03,      /* J = 48 */
(PID.TID 0000.0001)                 8.548081485571185E+03,      /* J = 49 */
(PID.TID 0000.0001)                 8.604336538604706E+03,      /* J = 50 */
(PID.TID 0000.0001)                 8.660565381336924E+03,      /* J = 51 */
(PID.TID 0000.0001)                 8.716767842485036E+03,      /* J = 52 */
(PID.TID 0000.0001)                 8.772943750846600E+03,      /* J = 53 */
(PID.TID 0000.0001)                 8.829092935300054E+03,      /* J = 54 */
(PID.TID 0000.0001)                 8.885215224805244E+03,      /* J = 55 */
(PID.TID 0000.0001)                 8.941310448403947E+03,      /* J = 56 */
(PID.TID 0000.0001)                 8.997378435220378E+03,      /* J = 57 */
(PID.TID 0000.0001)                 9.053419014461731E+03,      /* J = 58 */
(PID.TID 0000.0001)                 9.109432015418679E+03,      /* J = 59 */
(PID.TID 0000.0001)                 9.165417267465908E+03,      /* J = 60 */
(PID.TID 0000.0001)                 9.221374600062631E+03,      /* J = 61 */
(PID.TID 0000.0001)                 9.277303842753110E+03,      /* J = 62 */
(PID.TID 0000.0001)                 9.333204825167171E+03,      /* J = 63 */
(PID.TID 0000.0001)                 9.389077377020727E+03,      /* J = 64 */
(PID.TID 0000.0001)                 9.444921328116297E+03,      /* J = 65 */
(PID.TID 0000.0001)                 9.500736508343525E+03,      /* J = 66 */
(PID.TID 0000.0001)                 9.556522747679681E+03,      /* J = 67 */
(PID.TID 0000.0001)                 9.612279876190212E+03,      /* J = 68 */
(PID.TID 0000.0001)                 9.668007724029234E+03,      /* J = 69 */
(PID.TID 0000.0001)                 9.723706121440056E+03,      /* J = 70 */
(PID.TID 0000.0001)                 9.779374898755706E+03,      /* J = 71 */
(PID.TID 0000.0001)                 9.835013886399427E+03,      /* J = 72 */
(PID.TID 0000.0001)                 9.890622914885218E+03,      /* J = 73 */
(PID.TID 0000.0001)                 9.946201814818334E+03,      /* J = 74 */
(PID.TID 0000.0001)                 1.000175041689580E+04,      /* J = 75 */
(PID.TID 0000.0001)                 1.005726855190695E+04,      /* J = 76 */
(PID.TID 0000.0001)                 1.011275605073392E+04,      /* J = 77 */
(PID.TID 0000.0001)                 1.016821274435215E+04,      /* J = 78 */
(PID.TID 0000.0001)                 1.022363846383095E+04,      /* J = 79 */
(PID.TID 0000.0001)                 1.027903304033395E+04,      /* J = 80 */
(PID.TID 0000.0001)                 1.033439630511968E+04,      /* J = 81 */
(PID.TID 0000.0001)                 1.038972808954202E+04,      /* J = 82 */
(PID.TID 0000.0001)                 1.044502822505077E+04,      /* J = 83 */
(PID.TID 0000.0001)                 1.050029654319212E+04,      /* J = 84 */
(PID.TID 0000.0001)                 1.055553287560919E+04,      /* J = 85 */
(PID.TID 0000.0001)                 1.061073705404253E+04,      /* J = 86 */
(PID.TID 0000.0001)                 1.066590891033064E+04,      /* J = 87 */
(PID.TID 0000.0001)                 1.072104827641048E+04,      /* J = 88 */
(PID.TID 0000.0001)                 1.077615498431797E+04,      /* J = 89 */
(PID.TID 0000.0001)                 1.083122886618854E+04,      /* J = 90 */
(PID.TID 0000.0001)                 1.088626975425758E+04,      /* J = 91 */
(PID.TID 0000.0001)                 1.094127748086099E+04,      /* J = 92 */
(PID.TID 0000.0001)                 1.099625187843571E+04,      /* J = 93 */
(PID.TID 0000.0001)                 1.105119277952020E+04,      /* J = 94 */
(PID.TID 0000.0001)                 1.110610001675492E+04,      /* J = 95 */
(PID.TID 0000.0001)                 1.116097342288293E+04,      /* J = 96 */
(PID.TID 0000.0001)                 1.121581283075030E+04,      /* J = 97 */
(PID.TID 0000.0001)                 1.127061807330668E+04,      /* J = 98 */
(PID.TID 0000.0001)                 1.132538898360582E+04,      /* J = 99 */
(PID.TID 0000.0001)                 1.138012539480601E+04       /* J =100 */
(PID.TID 0000.0001)     ;
(PID.TID 0000.0001) dyF =  /* dyF(:,1,:,1) ( units: m ) */
(PID.TID 0000.0001)    50 @  1.111774733520388E+04              /* I =  1: 50 */
(PID.TID 0000.0001)     ;
(PID.TID 0000.0001) dyF =  /* dyF(1,:,1,:) ( units: m ) */
(PID.TID 0000.0001)   100 @  1.111774733520388E+04              /* J =  1:100 */
(PID.TID 0000.0001)     ;
(PID.TID 0000.0001) dxG =  /* dxG(:,1,:,1) ( units: m ) */
(PID.TID 0000.0001)    50 @  5.791729693558576E+03              /* I =  1: 50 */
(PID.TID 0000.0001)     ;
(PID.TID 0000.0001) dxG =  /* dxG(1,:,1,:) ( units: m ) */
(PID.TID 0000.0001)                 5.791729693558576E+03,      /* J =  1 */
(PID.TID 0000.0001)                 5.849048855077854E+03,      /* J =  2 */
(PID.TID 0000.0001)                 5.906350199379949E+03,      /* J =  3 */
(PID.TID 0000.0001)                 5.963633551915032E+03,      /* J =  4 */
(PID.TID 0000.0001)                 6.020898738188074E+03,      /* J =  5 */
(PID.TID 0000.0001)                 6.078145583759388E+03,      /* J =  6 */
(PID.TID 0000.0001)                 6.135373914245153E+03,      /* J =  7 */
(PID.TID 0000.0001)                 6.192583555317951E+03,      /* J =  8 */
(PID.TID 0000.0001)                 6.249774332707294E+03,      /* J =  9 */
(PID.TID 0000.0001)                 6.306946072200154E+03,      /* J = 10 */
(PID.TID 0000.0001)                 6.364098599641497E+03,      /* J = 11 */
(PID.TID 0000.0001)                 6.421231740934816E+03,      /* J = 12 */
(PID.TID 0000.0001)                 6.478345322042654E+03,      /* J = 13 */
(PID.TID 0000.0001)                 6.535439168987135E+03,      /* J = 14 */
(PID.TID 0000.0001)                 6.592513107850500E+03,      /* J = 15 */
(PID.TID 0000.0001)                 6.649566964775637E+03,      /* J = 16 */
(PID.TID 0000.0001)                 6.706600565966598E+03,      /* J = 17 */
(PID.TID 0000.0001)                 6.763613737689147E+03,      /* J = 18 */
(PID.TID 0000.0001)                 6.820606306271281E+03,      /* J = 19 */
(PID.TID 0000.0001)                 6.877578098103740E+03,      /* J = 20 */
(PID.TID 0000.0001)                 6.934528939640570E+03,      /* J = 21 */
(PID.TID 0000.0001)                 6.991458657399629E+03,      /* J = 22 */
(PID.TID 0000.0001)                 7.048367077963129E+03,      /* J = 23 */
(PID.TID 0000.0001)                 7.105254027978149E+03,      /* J = 24 */
(PID.TID 0000.0001)                 7.162119334157175E+03,      /* J = 25 */
(PID.TID 0000.0001)                 7.218962823278620E+03,      /* J = 26 */
(PID.TID 0000.0001)                 7.275784322187360E+03,      /* J = 27 */
(PID.TID 0000.0001)                 7.332583657795253E+03,      /* J = 28 */
(PID.TID 0000.0001)                 7.389360657081677E+03,      /* J = 29 */
(PID.TID 0000.0001)                 7.446115147094042E+03,      /* J = 30 */
(PID.TID 0000.0001)                 7.502846954948329E+03,      /* J = 31 */
(PID.TID 0000.0001)                 7.559555907829611E+03,      /* J = 32 */
(PID.TID 0000.0001)                 7.616241832992587E+03,      /* J = 33 */
(PID.TID 0000.0001)                 7.672904557762095E+03,      /* J = 34 */
(PID.TID 0000.0001)                 7.729543909533650E+03,      /* J = 35 */
(PID.TID 0000.0001)                 7.786159715773963E+03,      /* J = 36 */
(PID.TID 0000.0001)                 7.842751804021470E+03,      /* J = 37 */
(PID.TID 0000.0001)                 7.899320001886857E+03,      /* J = 38 */
(PID.TID 0000.0001)                 7.955864137053582E+03,      /* J = 39 */
(PID.TID 0000.0001)                 8.012384037278402E+03,      /* J = 40 */
(PID.TID 0000.0001)                 8.068879530391900E+03,      /* J = 41 */
(PID.TID 0000.0001)                 8.125350444299005E+03,      /* J = 42 */
(PID.TID 0000.0001)                 8.181796606979530E+03,      /* J = 43 */
(PID.TID 0000.0001)                 8.238217846488658E+03,      /* J = 44 */
(PID.TID 0000.0001)                 8.294613990957514E+03,      /* J = 45 */
(PID.TID 0000.0001)                 8.350984868593665E+03,      /* J = 46 */
(PID.TID 0000.0001)                 8.407330307681643E+03,      /* J = 47 */
(PID.TID 0000.0001)                 8.463650136583461E+03,      /* J = 48 */
(PID.TID 0000.0001)                 8.519944183739159E+03,      /* J = 49 */
(PID.TID 0000.0001)                 8.576212277667308E+03,      /* J = 50 */
(PID.TID 0000.0001)                 8.632454246965530E+03,      /* J = 51 */
(PID.TID 0000.0001)                 8.688669920311038E+03,      /* J = 52 */
(PID.TID 0000.0001)                 8.744859126461139E+03,      /* J = 53 */
(PID.TID 0000.0001)                 8.801021694253765E+03,      /* J = 54 */
(PID.TID 0000.0001)                 8.857157452607997E+03,      /* J = 55 */
(PID.TID 0000.0001)                 8.913266230524581E+03,      /* J = 56 */
(PID.TID 0000.0001)                 8.969347857086450E+03,      /* J = 57 */
(PID.TID 0000.0001)                 9.025402161459237E+03,      /* J = 58 */
(PID.TID 0000.0001)                 9.081428972891812E+03,      /* J = 59 */
(PID.TID 0000.0001)                 9.137428120716793E+03,      /* J = 60 */
(PID.TID 0000.0001)                 9.193399434351066E+03,      /* J = 61 */
(PID.TID 0000.0001)                 9.249342743296300E+03,      /* J = 62 */
(PID.TID 0000.0001)                 9.305257877139473E+03,      /* J = 63 */
(PID.TID 0000.0001)                 9.361144665553391E+03,      /* J = 64 */
(PID.TID 0000.0001)                 9.417002938297206E+03,      /* J = 65 */
(PID.TID 0000.0001)                 9.472832525216931E+03,      /* J = 66 */
(PID.TID 0000.0001)                 9.528633256245968E+03,      /* J = 67 */
(PID.TID 0000.0001)                 9.584404961405600E+03,      /* J = 68 */
(PID.TID 0000.0001)                 9.640147470805550E+03,      /* J = 69 */
(PID.TID 0000.0001)                 9.695860614644464E+03,      /* J = 70 */
(PID.TID 0000.0001)                 9.751544223210447E+03,      /* J = 71 */
(PID.TID 0000.0001)                 9.807198126881565E+03,      /* J = 72 */
(PID.TID 0000.0001)                 9.862822156126382E+03,      /* J = 73 */
(PID.TID 0000.0001)                 9.918416141504455E+03,      /* J = 74 */
(PID.TID 0000.0001)                 9.973979913666863E+03,      /* J = 75 */
(PID.TID 0000.0001)                 1.002951330335672E+04,      /* J = 76 */
(PID.TID 0000.0001)                 1.008501614140969E+04,      /* J = 77 */
(PID.TID 0000.0001)                 1.014048825875450E+04,      /* J = 78 */
(PID.TID 0000.0001)                 1.019592948641347E+04,      /* J = 79 */
(PID.TID 0000.0001)                 1.025133965550300E+04,      /* J = 80 */
(PID.TID 0000.0001)                 1.030671859723410E+04,      /* J = 81 */
(PID.TID 0000.0001)                 1.036206614291292E+04,      /* J = 82 */
(PID.TID 0000.0001)                 1.041738212394122E+04,      /* J = 83 */
(PID.TID 0000.0001)                 1.047266637181695E+04,      /* J = 84 */
(PID.TID 0000.0001)                 1.052791871813469E+04,      /* J = 85 */
(PID.TID 0000.0001)                 1.058313899458622E+04,      /* J = 86 */
(PID.TID 0000.0001)                 1.063832703296099E+04,      /* J = 87 */
(PID.TID 0000.0001)                 1.069348266514667E+04,      /* J = 88 */
(PID.TID 0000.0001)                 1.074860572312964E+04,      /* J = 89 */
(PID.TID 0000.0001)                 1.080369603899551E+04,      /* J = 90 */
(PID.TID 0000.0001)                 1.085875344492962E+04,      /* J = 91 */
(PID.TID 0000.0001)                 1.091377777321755E+04,      /* J = 92 */
(PID.TID 0000.0001)                 1.096876885624567E+04,      /* J = 93 */
(PID.TID 0000.0001)                 1.102372652650160E+04,      /* J = 94 */
(PID.TID 0000.0001)                 1.107865061657475E+04,      /* J = 95 */
(PID.TID 0000.0001)                 1.113354095915680E+04,      /* J = 96 */
(PID.TID 0000.0001)                 1.118839738704227E+04,      /* J = 97 */
(PID.TID 0000.0001)                 1.124321973312895E+04,      /* J = 98 */
(PID.TID 0000.0001)                 1.129800783041847E+04,      /* J = 99 */
(PID.TID 0000.0001)                 1.135276151201679E+04       /* J =100 */
(PID.TID 0000.0001)     ;
(PID.TID 0000.0001) dyG =  /* dyG(:,1,:,1) ( units: m ) */
(PID.TID 0000.0001)    50 @  1.111774733520388E+04              /* I =  1: 50 */
(PID.TID 0000.0001)     ;
(PID.TID 0000.0001) dyG =  /* dyG(1,:,1,:) ( units: m ) */
(PID.TID 0000.0001)   100 @  1.111774733520388E+04              /* J =  1:100 */
(PID.TID 0000.0001)     ;
(PID.TID 0000.0001) dxC =  /* dxC(:,1,:,1) ( units: m ) */
(PID.TID 0000.0001)    50 @  5.820391490558872E+03              /* I =  1: 50 */
(PID.TID 0000.0001)     ;
(PID.TID 0000.0001) dxC =  /* dxC(1,:,1,:) ( units: m ) */
(PID.TID 0000.0001)                 5.820391490558872E+03,      /* J =  1 */
(PID.TID 0000.0001)                 5.877701765291692E+03,      /* J =  2 */
(PID.TID 0000.0001)                 5.934994135525598E+03,      /* J =  3 */
(PID.TID 0000.0001)                 5.992268426738092E+03,      /* J =  4 */
(PID.TID 0000.0001)                 6.049524464461751E+03,      /* J =  5 */
(PID.TID 0000.0001)                 6.106762074284755E+03,      /* J =  6 */
(PID.TID 0000.0001)                 6.163981081851418E+03,      /* J =  7 */
(PID.TID 0000.0001)                 6.221181312862721E+03,      /* J =  8 */
(PID.TID 0000.0001)                 6.278362593076839E+03,      /* J =  9 */
(PID.TID 0000.0001)                 6.335524748309675E+03,      /* J = 10 */
(PID.TID 0000.0001)                 6.392667604435392E+03,      /* J = 11 */
(PID.TID 0000.0001)                 6.449790987386939E+03,      /* J = 12 */
(PID.TID 0000.0001)                 6.506894723156589E+03,      /* J = 13 */
(PID.TID 0000.0001)                 6.563978637796454E+03,      /* J = 14 */
(PID.TID 0000.0001)                 6.621042557419033E+03,      /* J = 15 */
(PID.TID 0000.0001)                 6.678086308197730E+03,      /* J = 16 */
(PID.TID 0000.0001)                 6.735109716367390E+03,      /* J = 17 */
(PID.TID 0000.0001)                 6.792112608224819E+03,      /* J = 18 */
(PID.TID 0000.0001)                 6.849094810129332E+03,      /* J = 19 */
(PID.TID 0000.0001)                 6.906056148503244E+03,      /* J = 20 */
(PID.TID 0000.0001)                 6.962996449832446E+03,      /* J = 21 */
(PID.TID 0000.0001)                 7.019915540666910E+03,      /* J = 22 */
(PID.TID 0000.0001)                 7.076813247621209E+03,      /* J = 23 */
(PID.TID 0000.0001)                 7.133689397375063E+03,      /* J = 24 */
(PID.TID 0000.0001)                 7.190543816673855E+03,      /* J = 25 */
(PID.TID 0000.0001)                 7.247376332329164E+03,      /* J = 26 */
(PID.TID 0000.0001)                 7.304186771219292E+03,      /* J = 27 */
(PID.TID 0000.0001)                 7.360974960289787E+03,      /* J = 28 */
(PID.TID 0000.0001)                 7.417740726553981E+03,      /* J = 29 */
(PID.TID 0000.0001)                 7.474483897093503E+03,      /* J = 30 */
(PID.TID 0000.0001)                 7.531204299058815E+03,      /* J = 31 */
(PID.TID 0000.0001)                 7.587901759669735E+03,      /* J = 32 */
(PID.TID 0000.0001)                 7.644576106215967E+03,      /* J = 33 */
(PID.TID 0000.0001)                 7.701227166057623E+03,      /* J = 34 */
(PID.TID 0000.0001)                 7.757854766625747E+03,      /* J = 35 */
(PID.TID 0000.0001)                 7.814458735422849E+03,      /* J = 36 */
(PID.TID 0000.0001)                 7.871038900023425E+03,      /* J = 37 */
(PID.TID 0000.0001)                 7.927595088074479E+03,      /* J = 38 */
(PID.TID 0000.0001)                 7.984127127296055E+03,      /* J = 39 */
(PID.TID 0000.0001)                 8.040634845481757E+03,      /* J = 40 */
(PID.TID 0000.0001)                 8.097118070499275E+03,      /* J = 41 */
(PID.TID 0000.0001)                 8.153576630290919E+03,      /* J = 42 */
(PID.TID 0000.0001)                 8.210010352874109E+03,      /* J = 43 */
(PID.TID 0000.0001)                 8.266419066341947E+03,      /* J = 44 */
(PID.TID 0000.0001)                 8.322802598863705E+03,      /* J = 45 */
(PID.TID 0000.0001)                 8.379160778685373E+03,      /* J = 46 */
(PID.TID 0000.0001)                 8.435493434130152E+03,      /* J = 47 */
(PID.TID 0000.0001)                 8.491800393599013E+03,      /* J = 48 */
(PID.TID 0000.0001)                 8.548081485571185E+03,      /* J = 49 */
(PID.TID 0000.0001)                 8.604336538604706E+03,      /* J = 50 */
(PID.TID 0000.0001)                 8.660565381336924E+03,      /* J = 51 */
(PID.TID 0000.0001)                 8.716767842485036E+03,      /* J = 52 */
(PID.TID 0000.0001)                 8.772943750846600E+03,      /* J = 53 */
(PID.TID 0000.0001)                 8.829092935300054E+03,      /* J = 54 */
(PID.TID 0000.0001)                 8.885215224805244E+03,      /* J = 55 */
(PID.TID 0000.0001)                 8.941310448403947E+03,      /* J = 56 */
(PID.TID 0000.0001)                 8.997378435220378E+03,      /* J = 57 */
(PID.TID 0000.0001)                 9.053419014461731E+03,      /* J = 58 */
(PID.TID 0000.0001)                 9.109432015418679E+03,      /* J = 59 */
(PID.TID 0000.0001)                 9.165417267465908E+03,      /* J = 60 */
(PID.TID 0000.0001)                 9.221374600062631E+03,      /* J = 61 */
(PID.TID 0000.0001)                 9.277303842753110E+03,      /* J = 62 */
(PID.TID 0000.0001)                 9.333204825167171E+03,      /* J = 63 */
(PID.TID 0000.0001)                 9.389077377020727E+03,      /* J = 64 */
(PID.TID 0000.0001)                 9.444921328116297E+03,      /* J = 65 */
(PID.TID 0000.0001)                 9.500736508343525E+03,      /* J = 66 */
(PID.TID 0000.0001)                 9.556522747679681E+03,      /* J = 67 */
(PID.TID 0000.0001)                 9.612279876190212E+03,      /* J = 68 */
(PID.TID 0000.0001)                 9.668007724029234E+03,      /* J = 69 */
(PID.TID 0000.0001)                 9.723706121440056E+03,      /* J = 70 */
(PID.TID 0000.0001)                 9.779374898755706E+03,      /* J = 71 */
(PID.TID 0000.0001)                 9.835013886399427E+03,      /* J = 72 */
(PID.TID 0000.0001)                 9.890622914885218E+03,      /* J = 73 */
(PID.TID 0000.0001)                 9.946201814818334E+03,      /* J = 74 */
(PID.TID 0000.0001)                 1.000175041689580E+04,      /* J = 75 */
(PID.TID 0000.0001)                 1.005726855190695E+04,      /* J = 76 */
(PID.TID 0000.0001)                 1.011275605073392E+04,      /* J = 77 */
(PID.TID 0000.0001)                 1.016821274435215E+04,      /* J = 78 */
(PID.TID 0000.0001)                 1.022363846383095E+04,      /* J = 79 */
(PID.TID 0000.0001)                 1.027903304033395E+04,      /* J = 80 */
(PID.TID 0000.0001)                 1.033439630511968E+04,      /* J = 81 */
(PID.TID 0000.0001)                 1.038972808954202E+04,      /* J = 82 */
(PID.TID 0000.0001)                 1.044502822505077E+04,      /* J = 83 */
(PID.TID 0000.0001)                 1.050029654319212E+04,      /* J = 84 */
(PID.TID 0000.0001)                 1.055553287560919E+04,      /* J = 85 */
(PID.TID 0000.0001)                 1.061073705404253E+04,      /* J = 86 */
(PID.TID 0000.0001)                 1.066590891033064E+04,      /* J = 87 */
(PID.TID 0000.0001)                 1.072104827641048E+04,      /* J = 88 */
(PID.TID 0000.0001)                 1.077615498431797E+04,      /* J = 89 */
(PID.TID 0000.0001)                 1.083122886618854E+04,      /* J = 90 */
(PID.TID 0000.0001)                 1.088626975425758E+04,      /* J = 91 */
(PID.TID 0000.0001)                 1.094127748086099E+04,      /* J = 92 */
(PID.TID 0000.0001)                 1.099625187843571E+04,      /* J = 93 */
(PID.TID 0000.0001)                 1.105119277952020E+04,      /* J = 94 */
(PID.TID 0000.0001)                 1.110610001675492E+04,      /* J = 95 */
(PID.TID 0000.0001)                 1.116097342288293E+04,      /* J = 96 */
(PID.TID 0000.0001)                 1.121581283075030E+04,      /* J = 97 */
(PID.TID 0000.0001)                 1.127061807330668E+04,      /* J = 98 */
(PID.TID 0000.0001)                 1.132538898360582E+04,      /* J = 99 */
(PID.TID 0000.0001)                 1.138012539480601E+04       /* J =100 */
(PID.TID 0000.0001)     ;
(PID.TID 0000.0001) dyC =  /* dyC(:,1,:,1) ( units: m ) */
(PID.TID 0000.0001)    50 @  1.111774733520388E+04              /* I =  1: 50 */
(PID.TID 0000.0001)     ;
(PID.TID 0000.0001) dyC =  /* dyC(1,:,1,:) ( units: m ) */
(PID.TID 0000.0001)   100 @  1.111774733520388E+04              /* J =  1:100 */
(PID.TID 0000.0001)     ;
(PID.TID 0000.0001) dxV =  /* dxV(:,1,:,1) ( units: m ) */
(PID.TID 0000.0001)    50 @  5.791729693558576E+03              /* I =  1: 50 */
(PID.TID 0000.0001)     ;
(PID.TID 0000.0001) dxV =  /* dxV(1,:,1,:) ( units: m ) */
(PID.TID 0000.0001)                 5.791729693558576E+03,      /* J =  1 */
(PID.TID 0000.0001)                 5.849048855077854E+03,      /* J =  2 */
(PID.TID 0000.0001)                 5.906350199379949E+03,      /* J =  3 */
(PID.TID 0000.0001)                 5.963633551915032E+03,      /* J =  4 */
(PID.TID 0000.0001)                 6.020898738188074E+03,      /* J =  5 */
(PID.TID 0000.0001)                 6.078145583759388E+03,      /* J =  6 */
(PID.TID 0000.0001)                 6.135373914245153E+03,      /* J =  7 */
(PID.TID 0000.0001)                 6.192583555317951E+03,      /* J =  8 */
(PID.TID 0000.0001)                 6.249774332707294E+03,      /* J =  9 */
(PID.TID 0000.0001)                 6.306946072200154E+03,      /* J = 10 */
(PID.TID 0000.0001)                 6.364098599641497E+03,      /* J = 11 */
(PID.TID 0000.0001)                 6.421231740934816E+03,      /* J = 12 */
(PID.TID 0000.0001)                 6.478345322042654E+03,      /* J = 13 */
(PID.TID 0000.0001)                 6.535439168987135E+03,      /* J = 14 */
(PID.TID 0000.0001)                 6.592513107850500E+03,      /* J = 15 */
(PID.TID 0000.0001)                 6.649566964775637E+03,      /* J = 16 */
(PID.TID 0000.0001)                 6.706600565966598E+03,      /* J = 17 */
(PID.TID 0000.0001)                 6.763613737689147E+03,      /* J = 18 */
(PID.TID 0000.0001)                 6.820606306271281E+03,      /* J = 19 */
(PID.TID 0000.0001)                 6.877578098103740E+03,      /* J = 20 */
(PID.TID 0000.0001)                 6.934528939640570E+03,      /* J = 21 */
(PID.TID 0000.0001)                 6.991458657399629E+03,      /* J = 22 */
(PID.TID 0000.0001)                 7.048367077963129E+03,      /* J = 23 */
(PID.TID 0000.0001)                 7.105254027978149E+03,      /* J = 24 */
(PID.TID 0000.0001)                 7.162119334157175E+03,      /* J = 25 */
(PID.TID 0000.0001)                 7.218962823278620E+03,      /* J = 26 */
(PID.TID 0000.0001)                 7.275784322187360E+03,      /* J = 27 */
(PID.TID 0000.0001)                 7.332583657795253E+03,      /* J = 28 */
(PID.TID 0000.0001)                 7.389360657081677E+03,      /* J = 29 */
(PID.TID 0000.0001)                 7.446115147094042E+03,      /* J = 30 */
(PID.TID 0000.0001)                 7.502846954948329E+03,      /* J = 31 */
(PID.TID 0000.0001)                 7.559555907829611E+03,      /* J = 32 */
(PID.TID 0000.0001)                 7.616241832992587E+03,      /* J = 33 */
(PID.TID 0000.0001)                 7.672904557762095E+03,      /* J = 34 */
(PID.TID 0000.0001)                 7.729543909533650E+03,      /* J = 35 */
(PID.TID 0000.0001)                 7.786159715773963E+03,      /* J = 36 */
(PID.TID 0000.0001)                 7.842751804021470E+03,      /* J = 37 */
(PID.TID 0000.0001)                 7.899320001886857E+03,      /* J = 38 */
(PID.TID 0000.0001)                 7.955864137053582E+03,      /* J = 39 */
(PID.TID 0000.0001)                 8.012384037278402E+03,      /* J = 40 */
(PID.TID 0000.0001)                 8.068879530391900E+03,      /* J = 41 */
(PID.TID 0000.0001)                 8.125350444299005E+03,      /* J = 42 */
(PID.TID 0000.0001)                 8.181796606979530E+03,      /* J = 43 */
(PID.TID 0000.0001)                 8.238217846488658E+03,      /* J = 44 */
(PID.TID 0000.0001)                 8.294613990957514E+03,      /* J = 45 */
(PID.TID 0000.0001)                 8.350984868593665E+03,      /* J = 46 */
(PID.TID 0000.0001)                 8.407330307681643E+03,      /* J = 47 */
(PID.TID 0000.0001)                 8.463650136583461E+03,      /* J = 48 */
(PID.TID 0000.0001)                 8.519944183739159E+03,      /* J = 49 */
(PID.TID 0000.0001)                 8.576212277667308E+03,      /* J = 50 */
(PID.TID 0000.0001)                 8.632454246965530E+03,      /* J = 51 */
(PID.TID 0000.0001)                 8.688669920311038E+03,      /* J = 52 */
(PID.TID 0000.0001)                 8.744859126461139E+03,      /* J = 53 */
(PID.TID 0000.0001)                 8.801021694253765E+03,      /* J = 54 */
(PID.TID 0000.0001)                 8.857157452607997E+03,      /* J = 55 */
(PID.TID 0000.0001)                 8.913266230524581E+03,      /* J = 56 */
(PID.TID 0000.0001)                 8.969347857086450E+03,      /* J = 57 */
(PID.TID 0000.0001)                 9.025402161459237E+03,      /* J = 58 */
(PID.TID 0000.0001)                 9.081428972891812E+03,      /* J = 59 */
(PID.TID 0000.0001)                 9.137428120716793E+03,      /* J = 60 */
(PID.TID 0000.0001)                 9.193399434351066E+03,      /* J = 61 */
(PID.TID 0000.0001)                 9.249342743296300E+03,      /* J = 62 */
(PID.TID 0000.0001)                 9.305257877139473E+03,      /* J = 63 */
(PID.TID 0000.0001)                 9.361144665553391E+03,      /* J = 64 */
(PID.TID 0000.0001)                 9.417002938297206E+03,      /* J = 65 */
(PID.TID 0000.0001)                 9.472832525216931E+03,      /* J = 66 */
(PID.TID 0000.0001)                 9.528633256245968E+03,      /* J = 67 */
(PID.TID 0000.0001)                 9.584404961405600E+03,      /* J = 68 */
(PID.TID 0000.0001)                 9.640147470805550E+03,      /* J = 69 */
(PID.TID 0000.0001)                 9.695860614644464E+03,      /* J = 70 */
(PID.TID 0000.0001)                 9.751544223210447E+03,      /* J = 71 */
(PID.TID 0000.0001)                 9.807198126881565E+03,      /* J = 72 */
(PID.TID 0000.0001)                 9.862822156126382E+03,      /* J = 73 */
(PID.TID 0000.0001)                 9.918416141504455E+03,      /* J = 74 */
(PID.TID 0000.0001)                 9.973979913666863E+03,      /* J = 75 */
(PID.TID 0000.0001)                 1.002951330335672E+04,      /* J = 76 */
(PID.TID 0000.0001)                 1.008501614140969E+04,      /* J = 77 */
(PID.TID 0000.0001)                 1.014048825875450E+04,      /* J = 78 */
(PID.TID 0000.0001)                 1.019592948641347E+04,      /* J = 79 */
(PID.TID 0000.0001)                 1.025133965550300E+04,      /* J = 80 */
(PID.TID 0000.0001)                 1.030671859723410E+04,      /* J = 81 */
(PID.TID 0000.0001)                 1.036206614291292E+04,      /* J = 82 */
(PID.TID 0000.0001)                 1.041738212394122E+04,      /* J = 83 */
(PID.TID 0000.0001)                 1.047266637181695E+04,      /* J = 84 */
(PID.TID 0000.0001)                 1.052791871813469E+04,      /* J = 85 */
(PID.TID 0000.0001)                 1.058313899458622E+04,      /* J = 86 */
(PID.TID 0000.0001)                 1.063832703296099E+04,      /* J = 87 */
(PID.TID 0000.0001)                 1.069348266514667E+04,      /* J = 88 */
(PID.TID 0000.0001)                 1.074860572312964E+04,      /* J = 89 */
(PID.TID 0000.0001)                 1.080369603899551E+04,      /* J = 90 */
(PID.TID 0000.0001)                 1.085875344492962E+04,      /* J = 91 */
(PID.TID 0000.0001)                 1.091377777321755E+04,      /* J = 92 */
(PID.TID 0000.0001)                 1.096876885624567E+04,      /* J = 93 */
(PID.TID 0000.0001)                 1.102372652650160E+04,      /* J = 94 */
(PID.TID 0000.0001)                 1.107865061657475E+04,      /* J = 95 */
(PID.TID 0000.0001)                 1.113354095915680E+04,      /* J = 96 */
(PID.TID 0000.0001)                 1.118839738704227E+04,      /* J = 97 */
(PID.TID 0000.0001)                 1.124321973312895E+04,      /* J = 98 */
(PID.TID 0000.0001)                 1.129800783041847E+04,      /* J = 99 */
(PID.TID 0000.0001)                 1.135276151201679E+04       /* J =100 */
(PID.TID 0000.0001)     ;
(PID.TID 0000.0001) dyU =  /* dyU(:,1,:,1) ( units: m ) */
(PID.TID 0000.0001)    50 @  1.111774733520388E+04              /* I =  1: 50 */
(PID.TID 0000.0001)     ;
(PID.TID 0000.0001) dyU =  /* dyU(1,:,1,:) ( units: m ) */
(PID.TID 0000.0001)   100 @  1.111774733520388E+04              /* J =  1:100 */
(PID.TID 0000.0001)     ;
(PID.TID 0000.0001) rA  =  /* rA (:,1,:,1) ( units: m^2 ) */
(PID.TID 0000.0001)    50 @  6.470963377080289E+07              /* I =  1: 50 */
(PID.TID 0000.0001)     ;
(PID.TID 0000.0001) rA  =  /* rA (1,:,1,:) ( units: m^2 ) */
(PID.TID 0000.0001)                 6.470963377080289E+07,      /* J =  1 */
(PID.TID 0000.0001)                 6.534679484410104E+07,      /* J =  2 */
(PID.TID 0000.0001)                 6.598375685977945E+07,      /* J =  3 */
(PID.TID 0000.0001)                 6.662051787745729E+07,      /* J =  4 */
(PID.TID 0000.0001)                 6.725707595748492E+07,      /* J =  5 */
(PID.TID 0000.0001)                 6.789342916077879E+07,      /* J =  6 */
(PID.TID 0000.0001)                 6.852957554896304E+07,      /* J =  7 */
(PID.TID 0000.0001)                 6.916551318413351E+07,      /* J =  8 */
(PID.TID 0000.0001)                 6.980124012916450E+07,      /* J =  9 */
(PID.TID 0000.0001)                 7.043675444751994E+07,      /* J = 10 */
(PID.TID 0000.0001)                 7.107205420332426E+07,      /* J = 11 */
(PID.TID 0000.0001)                 7.170713746129155E+07,      /* J = 12 */
(PID.TID 0000.0001)                 7.234200228686719E+07,      /* J = 13 */
(PID.TID 0000.0001)                 7.297664674622770E+07,      /* J = 14 */
(PID.TID 0000.0001)                 7.361106890599781E+07,      /* J = 15 */
(PID.TID 0000.0001)                 7.424526683372219E+07,      /* J = 16 */
(PID.TID 0000.0001)                 7.487923859746441E+07,      /* J = 17 */
(PID.TID 0000.0001)                 7.551298226611364E+07,      /* J = 18 */
(PID.TID 0000.0001)                 7.614649590905435E+07,      /* J = 19 */
(PID.TID 0000.0001)                 7.677977759659100E+07,      /* J = 20 */
(PID.TID 0000.0001)                 7.741282539961770E+07,      /* J = 21 */
(PID.TID 0000.0001)                 7.804563738973619E+07,      /* J = 22 */
(PID.TID 0000.0001)                 7.867821163932665E+07,      /* J = 23 */
(PID.TID 0000.0001)                 7.931054622142966E+07,      /* J = 24 */
(PID.TID 0000.0001)                 7.994263920984067E+07,      /* J = 25 */
(PID.TID 0000.0001)                 8.057448867913349E+07,      /* J = 26 */
(PID.TID 0000.0001)                 8.120609270456599E+07,      /* J = 27 */
(PID.TID 0000.0001)                 8.183744936212724E+07,      /* J = 28 */
(PID.TID 0000.0001)                 8.246855672863193E+07,      /* J = 29 */
(PID.TID 0000.0001)                 8.309941288162594E+07,      /* J = 30 */
(PID.TID 0000.0001)                 8.373001589938636E+07,      /* J = 31 */
(PID.TID 0000.0001)                 8.436036386101587E+07,      /* J = 32 */
(PID.TID 0000.0001)                 8.499045484630123E+07,      /* J = 33 */
(PID.TID 0000.0001)                 8.562028693597265E+07,      /* J = 34 */
(PID.TID 0000.0001)                 8.624985821137366E+07,      /* J = 35 */
(PID.TID 0000.0001)                 8.687916675476770E+07,      /* J = 36 */
(PID.TID 0000.0001)                 8.750821064912586E+07,      /* J = 37 */
(PID.TID 0000.0001)                 8.813698797831558E+07,      /* J = 38 */
(PID.TID 0000.0001)                 8.876549682695904E+07,      /* J = 39 */
(PID.TID 0000.0001)                 8.939373528048050E+07,      /* J = 40 */
(PID.TID 0000.0001)                 9.002170142522410E+07,      /* J = 41 */
(PID.TID 0000.0001)                 9.064939334821798E+07,      /* J = 42 */
(PID.TID 0000.0001)                 9.127680913743389E+07,      /* J = 43 */
(PID.TID 0000.0001)                 9.190394688169266E+07,      /* J = 44 */
(PID.TID 0000.0001)                 9.253080467056999E+07,      /* J = 45 */
(PID.TID 0000.0001)                 9.315738059456144E+07,      /* J = 46 */
(PID.TID 0000.0001)                 9.378367274503537E+07,      /* J = 47 */
(PID.TID 0000.0001)                 9.440967921416211E+07,      /* J = 48 */
(PID.TID 0000.0001)                 9.503539809503193E+07,      /* J = 49 */
(PID.TID 0000.0001)                 9.566082748163140E+07,      /* J = 50 */
(PID.TID 0000.0001)                 9.628596546870193E+07,      /* J = 51 */
(PID.TID 0000.0001)                 9.691081015209354E+07,      /* J = 52 */
(PID.TID 0000.0001)                 9.753535962826957E+07,      /* J = 53 */
(PID.TID 0000.0001)                 9.815961199489628E+07,      /* J = 54 */
(PID.TID 0000.0001)                 9.878356535030043E+07,      /* J = 55 */
(PID.TID 0000.0001)                 9.940721779379947E+07,      /* J = 56 */
(PID.TID 0000.0001)                 1.000305674257251E+08,      /* J = 57 */
(PID.TID 0000.0001)                 1.006536123471403E+08,      /* J = 58 */
(PID.TID 0000.0001)                 1.012763506602401E+08,      /* J = 59 */
(PID.TID 0000.0001)                 1.018987804679982E+08,      /* J = 60 */
(PID.TID 0000.0001)                 1.025208998744024E+08,      /* J = 61 */
(PID.TID 0000.0001)                 1.031427069843603E+08,      /* J = 62 */
(PID.TID 0000.0001)                 1.037641999037469E+08,      /* J = 63 */
(PID.TID 0000.0001)                 1.043853767394042E+08,      /* J = 64 */
(PID.TID 0000.0001)                 1.050062355990467E+08,      /* J = 65 */
(PID.TID 0000.0001)                 1.056267745915686E+08,      /* J = 66 */
(PID.TID 0000.0001)                 1.062469918265245E+08,      /* J = 67 */
(PID.TID 0000.0001)                 1.068668854147899E+08,      /* J = 68 */
(PID.TID 0000.0001)                 1.074864534679241E+08,      /* J = 69 */
(PID.TID 0000.0001)                 1.081056940987605E+08,      /* J = 70 */
(PID.TID 0000.0001)                 1.087246054208165E+08,      /* J = 71 */
(PID.TID 0000.0001)                 1.093431855489537E+08,      /* J = 72 */
(PID.TID 0000.0001)                 1.099614325987181E+08,      /* J = 73 */
(PID.TID 0000.0001)                 1.105793446869293E+08,      /* J = 74 */
(PID.TID 0000.0001)                 1.111969199312560E+08,      /* J = 75 */
(PID.TID 0000.0001)                 1.118141564504991E+08,      /* J = 76 */
(PID.TID 0000.0001)                 1.124310523644033E+08,      /* J = 77 */
(PID.TID 0000.0001)                 1.130476057938687E+08,      /* J = 78 */
(PID.TID 0000.0001)                 1.136638148606683E+08,      /* J = 79 */
(PID.TID 0000.0001)                 1.142796776878255E+08,      /* J = 80 */
(PID.TID 0000.0001)                 1.148951923992126E+08,      /* J = 81 */
(PID.TID 0000.0001)                 1.155103571199756E+08,      /* J = 82 */
(PID.TID 0000.0001)                 1.161251699761098E+08,      /* J = 83 */
(PID.TID 0000.0001)                 1.167396290948606E+08,      /* J = 84 */
(PID.TID 0000.0001)                 1.173537326044641E+08,      /* J = 85 */
(PID.TID 0000.0001)                 1.179674786342178E+08,      /* J = 86 */
(PID.TID 0000.0001)                 1.185808653145988E+08,      /* J = 87 */
(PID.TID 0000.0001)                 1.191938907770982E+08,      /* J = 88 */
(PID.TID 0000.0001)                 1.198065531543159E+08,      /* J = 89 */
(PID.TID 0000.0001)                 1.204188505800075E+08,      /* J = 90 */
(PID.TID 0000.0001)                 1.210307811890137E+08,      /* J = 91 */
(PID.TID 0000.0001)                 1.216423431172366E+08,      /* J = 92 */
(PID.TID 0000.0001)                 1.222535345018050E+08,      /* J = 93 */
(PID.TID 0000.0001)                 1.228643534808854E+08,      /* J = 94 */
(PID.TID 0000.0001)                 1.234747981938710E+08,      /* J = 95 */
(PID.TID 0000.0001)                 1.240848667811927E+08,      /* J = 96 */
(PID.TID 0000.0001)                 1.246945573844846E+08,      /* J = 97 */
(PID.TID 0000.0001)                 1.253038681465364E+08,      /* J = 98 */
(PID.TID 0000.0001)                 1.259127972112936E+08,      /* J = 99 */
(PID.TID 0000.0001)                 1.265213427237870E+08       /* J =100 */
(PID.TID 0000.0001)     ;
(PID.TID 0000.0001) rAw =  /* rAw(:,1,:,1) ( units: m^2 ) */
(PID.TID 0000.0001)    50 @  6.470963377080289E+07              /* I =  1: 50 */
(PID.TID 0000.0001)     ;
(PID.TID 0000.0001) rAw =  /* rAw(1,:,1,:) ( units: m^2 ) */
(PID.TID 0000.0001)                 6.470963377080289E+07,      /* J =  1 */
(PID.TID 0000.0001)                 6.534679484410104E+07,      /* J =  2 */
(PID.TID 0000.0001)                 6.598375685977945E+07,      /* J =  3 */
(PID.TID 0000.0001)                 6.662051787745729E+07,      /* J =  4 */
(PID.TID 0000.0001)                 6.725707595748492E+07,      /* J =  5 */
(PID.TID 0000.0001)                 6.789342916077879E+07,      /* J =  6 */
(PID.TID 0000.0001)                 6.852957554896304E+07,      /* J =  7 */
(PID.TID 0000.0001)                 6.916551318413351E+07,      /* J =  8 */
(PID.TID 0000.0001)                 6.980124012916450E+07,      /* J =  9 */
(PID.TID 0000.0001)                 7.043675444751994E+07,      /* J = 10 */
(PID.TID 0000.0001)                 7.107205420332426E+07,      /* J = 11 */
(PID.TID 0000.0001)                 7.170713746129155E+07,      /* J = 12 */
(PID.TID 0000.0001)                 7.234200228686719E+07,      /* J = 13 */
(PID.TID 0000.0001)                 7.297664674622770E+07,      /* J = 14 */
(PID.TID 0000.0001)                 7.361106890599781E+07,      /* J = 15 */
(PID.TID 0000.0001)                 7.424526683372219E+07,      /* J = 16 */
(PID.TID 0000.0001)                 7.487923859746441E+07,      /* J = 17 */
(PID.TID 0000.0001)                 7.551298226611364E+07,      /* J = 18 */
(PID.TID 0000.0001)                 7.614649590905435E+07,      /* J = 19 */
(PID.TID 0000.0001)                 7.677977759659100E+07,      /* J = 20 */
(PID.TID 0000.0001)                 7.741282539961770E+07,      /* J = 21 */
(PID.TID 0000.0001)                 7.804563738973619E+07,      /* J = 22 */
(PID.TID 0000.0001)                 7.867821163932665E+07,      /* J = 23 */
(PID.TID 0000.0001)                 7.931054622142966E+07,      /* J = 24 */
(PID.TID 0000.0001)                 7.994263920984067E+07,      /* J = 25 */
(PID.TID 0000.0001)                 8.057448867913349E+07,      /* J = 26 */
(PID.TID 0000.0001)                 8.120609270456599E+07,      /* J = 27 */
(PID.TID 0000.0001)                 8.183744936212724E+07,      /* J = 28 */
(PID.TID 0000.0001)                 8.246855672863193E+07,      /* J = 29 */
(PID.TID 0000.0001)                 8.309941288162594E+07,      /* J = 30 */
(PID.TID 0000.0001)                 8.373001589938636E+07,      /* J = 31 */
(PID.TID 0000.0001)                 8.436036386101587E+07,      /* J = 32 */
(PID.TID 0000.0001)                 8.499045484630123E+07,      /* J = 33 */
(PID.TID 0000.0001)                 8.562028693597265E+07,      /* J = 34 */
(PID.TID 0000.0001)                 8.624985821137366E+07,      /* J = 35 */
(PID.TID 0000.0001)                 8.687916675476770E+07,      /* J = 36 */
(PID.TID 0000.0001)                 8.750821064912586E+07,      /* J = 37 */
(PID.TID 0000.0001)                 8.813698797831558E+07,      /* J = 38 */
(PID.TID 0000.0001)                 8.876549682695904E+07,      /* J = 39 */
(PID.TID 0000.0001)                 8.939373528048050E+07,      /* J = 40 */
(PID.TID 0000.0001)                 9.002170142522410E+07,      /* J = 41 */
(PID.TID 0000.0001)                 9.064939334821798E+07,      /* J = 42 */
(PID.TID 0000.0001)                 9.127680913743389E+07,      /* J = 43 */
(PID.TID 0000.0001)                 9.190394688169266E+07,      /* J = 44 */
(PID.TID 0000.0001)                 9.253080467056999E+07,      /* J = 45 */
(PID.TID 0000.0001)                 9.315738059456144E+07,      /* J = 46 */
(PID.TID 0000.0001)                 9.378367274503537E+07,      /* J = 47 */
(PID.TID 0000.0001)                 9.440967921416211E+07,      /* J = 48 */
(PID.TID 0000.0001)                 9.503539809503193E+07,      /* J = 49 */
(PID.TID 0000.0001)                 9.566082748163140E+07,      /* J = 50 */
(PID.TID 0000.0001)                 9.628596546870193E+07,      /* J = 51 */
(PID.TID 0000.0001)                 9.691081015209354E+07,      /* J = 52 */
(PID.TID 0000.0001)                 9.753535962826957E+07,      /* J = 53 */
(PID.TID 0000.0001)                 9.815961199489628E+07,      /* J = 54 */
(PID.TID 0000.0001)                 9.878356535030043E+07,      /* J = 55 */
(PID.TID 0000.0001)                 9.940721779379947E+07,      /* J = 56 */
(PID.TID 0000.0001)                 1.000305674257251E+08,      /* J = 57 */
(PID.TID 0000.0001)                 1.006536123471403E+08,      /* J = 58 */
(PID.TID 0000.0001)                 1.012763506602401E+08,      /* J = 59 */
(PID.TID 0000.0001)                 1.018987804679982E+08,      /* J = 60 */
(PID.TID 0000.0001)                 1.025208998744024E+08,      /* J = 61 */
(PID.TID 0000.0001)                 1.031427069843603E+08,      /* J = 62 */
(PID.TID 0000.0001)                 1.037641999037469E+08,      /* J = 63 */
(PID.TID 0000.0001)                 1.043853767394042E+08,      /* J = 64 */
(PID.TID 0000.0001)                 1.050062355990467E+08,      /* J = 65 */
(PID.TID 0000.0001)                 1.056267745915686E+08,      /* J = 66 */
(PID.TID 0000.0001)                 1.062469918265245E+08,      /* J = 67 */
(PID.TID 0000.0001)                 1.068668854147899E+08,      /* J = 68 */
(PID.TID 0000.0001)                 1.074864534679241E+08,      /* J = 69 */
(PID.TID 0000.0001)                 1.081056940987605E+08,      /* J = 70 */
(PID.TID 0000.0001)                 1.087246054208165E+08,      /* J = 71 */
(PID.TID 0000.0001)                 1.093431855489537E+08,      /* J = 72 */
(PID.TID 0000.0001)                 1.099614325987181E+08,      /* J = 73 */
(PID.TID 0000.0001)                 1.105793446869293E+08,      /* J = 74 */
(PID.TID 0000.0001)                 1.111969199312560E+08,      /* J = 75 */
(PID.TID 0000.0001)                 1.118141564504991E+08,      /* J = 76 */
(PID.TID 0000.0001)                 1.124310523644033E+08,      /* J = 77 */
(PID.TID 0000.0001)                 1.130476057938687E+08,      /* J = 78 */
(PID.TID 0000.0001)                 1.136638148606683E+08,      /* J = 79 */
(PID.TID 0000.0001)                 1.142796776878255E+08,      /* J = 80 */
(PID.TID 0000.0001)                 1.148951923992126E+08,      /* J = 81 */
(PID.TID 0000.0001)                 1.155103571199756E+08,      /* J = 82 */
(PID.TID 0000.0001)                 1.161251699761098E+08,      /* J = 83 */
(PID.TID 0000.0001)                 1.167396290948606E+08,      /* J = 84 */
(PID.TID 0000.0001)                 1.173537326044641E+08,      /* J = 85 */
(PID.TID 0000.0001)                 1.179674786342178E+08,      /* J = 86 */
(PID.TID 0000.0001)                 1.185808653145988E+08,      /* J = 87 */
(PID.TID 0000.0001)                 1.191938907770982E+08,      /* J = 88 */
(PID.TID 0000.0001)                 1.198065531543159E+08,      /* J = 89 */
(PID.TID 0000.0001)                 1.204188505800075E+08,      /* J = 90 */
(PID.TID 0000.0001)                 1.210307811890137E+08,      /* J = 91 */
(PID.TID 0000.0001)                 1.216423431172366E+08,      /* J = 92 */
(PID.TID 0000.0001)                 1.222535345018050E+08,      /* J = 93 */
(PID.TID 0000.0001)                 1.228643534808854E+08,      /* J = 94 */
(PID.TID 0000.0001)                 1.234747981938710E+08,      /* J = 95 */
(PID.TID 0000.0001)                 1.240848667811927E+08,      /* J = 96 */
(PID.TID 0000.0001)                 1.246945573844846E+08,      /* J = 97 */
(PID.TID 0000.0001)                 1.253038681465364E+08,      /* J = 98 */
(PID.TID 0000.0001)                 1.259127972112936E+08,      /* J = 99 */
(PID.TID 0000.0001)                 1.265213427237870E+08       /* J =100 */
(PID.TID 0000.0001)     ;
(PID.TID 0000.0001) rAs =  /* rAs(:,1,:,1) ( units: m^2 ) */
(PID.TID 0000.0001)    50 @  6.439097919401864E+07              /* I =  1: 50 */
(PID.TID 0000.0001)     ;
(PID.TID 0000.0001) rAs =  /* rAs(1,:,1,:) ( units: m^2 ) */
(PID.TID 0000.0001)                 6.439097919401864E+07,      /* J =  1 */
(PID.TID 0000.0001)                 6.502823906837179E+07,      /* J =  2 */
(PID.TID 0000.0001)                 6.566530085543716E+07,      /* J =  3 */
(PID.TID 0000.0001)                 6.630216261459803E+07,      /* J =  4 */
(PID.TID 0000.0001)                 6.693882240587452E+07,      /* J =  5 */
(PID.TID 0000.0001)                 6.757527828990008E+07,      /* J =  6 */
(PID.TID 0000.0001)                 6.821152832789779E+07,      /* J =  7 */
(PID.TID 0000.0001)                 6.884757058175126E+07,      /* J =  8 */
(PID.TID 0000.0001)                 6.948340311398090E+07,      /* J =  9 */
(PID.TID 0000.0001)                 7.011902398769690E+07,      /* J = 10 */
(PID.TID 0000.0001)                 7.075443126669341E+07,      /* J = 11 */
(PID.TID 0000.0001)                 7.138962301544867E+07,      /* J = 12 */
(PID.TID 0000.0001)                 7.202459729903063E+07,      /* J = 13 */
(PID.TID 0000.0001)                 7.265935218316765E+07,      /* J = 14 */
(PID.TID 0000.0001)                 7.329388573434296E+07,      /* J = 15 */
(PID.TID 0000.0001)                 7.392819601962943E+07,      /* J = 16 */
(PID.TID 0000.0001)                 7.456228110680762E+07,      /* J = 17 */
(PID.TID 0000.0001)                 7.519613906436566E+07,      /* J = 18 */
(PID.TID 0000.0001)                 7.582976796140501E+07,      /* J = 19 */
(PID.TID 0000.0001)                 7.646316586782910E+07,      /* J = 20 */
(PID.TID 0000.0001)                 7.709633085422541E+07,      /* J = 21 */
(PID.TID 0000.0001)                 7.772926099177113E+07,      /* J = 22 */
(PID.TID 0000.0001)                 7.836195435256335E+07,      /* J = 23 */
(PID.TID 0000.0001)                 7.899440900921808E+07,      /* J = 24 */
(PID.TID 0000.0001)                 7.962662303520055E+07,      /* J = 25 */
(PID.TID 0000.0001)                 8.025859450470714E+07,      /* J = 26 */
(PID.TID 0000.0001)                 8.089032149259475E+07,      /* J = 27 */
(PID.TID 0000.0001)                 8.152180207452223E+07,      /* J = 28 */
(PID.TID 0000.0001)                 8.215303432695043E+07,      /* J = 29 */
(PID.TID 0000.0001)                 8.278401632695346E+07,      /* J = 30 */
(PID.TID 0000.0001)                 8.341474615247822E+07,      /* J = 31 */
(PID.TID 0000.0001)                 8.404522188224998E+07,      /* J = 32 */
(PID.TID 0000.0001)                 8.467544159567805E+07,      /* J = 33 */
(PID.TID 0000.0001)                 8.530540337302092E+07,      /* J = 34 */
(PID.TID 0000.0001)                 8.593510529533908E+07,      /* J = 35 */
(PID.TID 0000.0001)                 8.656454544440059E+07,      /* J = 36 */
(PID.TID 0000.0001)                 8.719372190284635E+07,      /* J = 37 */
(PID.TID 0000.0001)                 8.782263275409557E+07,      /* J = 38 */
(PID.TID 0000.0001)                 8.845127608236952E+07,      /* J = 39 */
(PID.TID 0000.0001)                 8.907964997273858E+07,      /* J = 40 */
(PID.TID 0000.0001)                 8.970775251102796E+07,      /* J = 41 */
(PID.TID 0000.0001)                 9.033558178395921E+07,      /* J = 42 */
(PID.TID 0000.0001)                 9.096313587903227E+07,      /* J = 43 */
(PID.TID 0000.0001)                 9.159041288459623E+07,      /* J = 44 */
(PID.TID 0000.0001)                 9.221741088992015E+07,      /* J = 45 */
(PID.TID 0000.0001)                 9.284412798498066E+07,      /* J = 46 */
(PID.TID 0000.0001)                 9.347056226076873E+07,      /* J = 47 */
(PID.TID 0000.0001)                 9.409671180895932E+07,      /* J = 48 */
(PID.TID 0000.0001)                 9.472257472228888E+07,      /* J = 49 */
(PID.TID 0000.0001)                 9.534814909420149E+07,      /* J = 50 */
(PID.TID 0000.0001)                 9.597343301913190E+07,      /* J = 51 */
(PID.TID 0000.0001)                 9.659842459236403E+07,      /* J = 52 */
(PID.TID 0000.0001)                 9.722312190998378E+07,      /* J = 53 */
(PID.TID 0000.0001)                 9.784752306916212E+07,      /* J = 54 */
(PID.TID 0000.0001)                 9.847162616780120E+07,      /* J = 55 */
(PID.TID 0000.0001)                 9.909542930479389E+07,      /* J = 56 */
(PID.TID 0000.0001)                 9.971893057990581E+07,      /* J = 57 */
(PID.TID 0000.0001)                 1.003421280938932E+08,      /* J = 58 */
(PID.TID 0000.0001)                 1.009650199483144E+08,      /* J = 59 */
(PID.TID 0000.0001)                 1.015876042458127E+08,      /* J = 60 */
(PID.TID 0000.0001)                 1.022098790898334E+08,      /* J = 61 */
(PID.TID 0000.0001)                 1.028318425848597E+08,      /* J = 62 */
(PID.TID 0000.0001)                 1.034534928362239E+08,      /* J = 63 */
(PID.TID 0000.0001)                 1.040748279503199E+08,      /* J = 64 */
(PID.TID 0000.0001)                 1.046958460344376E+08,      /* J = 65 */
(PID.TID 0000.0001)                 1.053165451968815E+08,      /* J = 66 */
(PID.TID 0000.0001)                 1.059369235468288E+08,      /* J = 67 */
(PID.TID 0000.0001)                 1.065569791945417E+08,      /* J = 68 */
(PID.TID 0000.0001)                 1.071767102512258E+08,      /* J = 69 */
(PID.TID 0000.0001)                 1.077961148290539E+08,      /* J = 70 */
(PID.TID 0000.0001)                 1.084151910412367E+08,      /* J = 71 */
(PID.TID 0000.0001)                 1.090339370019284E+08,      /* J = 72 */
(PID.TID 0000.0001)                 1.096523508263446E+08,      /* J = 73 */
(PID.TID 0000.0001)                 1.102704306306916E+08,      /* J = 74 */
(PID.TID 0000.0001)                 1.108881745321664E+08,      /* J = 75 */
(PID.TID 0000.0001)                 1.115055806490511E+08,      /* J = 76 */
(PID.TID 0000.0001)                 1.121226471005947E+08,      /* J = 77 */
(PID.TID 0000.0001)                 1.127393720071080E+08,      /* J = 78 */
(PID.TID 0000.0001)                 1.133557534899393E+08,      /* J = 79 */
(PID.TID 0000.0001)                 1.139717896714750E+08,      /* J = 80 */
(PID.TID 0000.0001)                 1.145874786751864E+08,      /* J = 81 */
(PID.TID 0000.0001)                 1.152028186255828E+08,      /* J = 82 */
(PID.TID 0000.0001)                 1.158178076481876E+08,      /* J = 83 */
(PID.TID 0000.0001)                 1.164324438696802E+08,      /* J = 84 */
(PID.TID 0000.0001)                 1.170467254177541E+08,      /* J = 85 */
(PID.TID 0000.0001)                 1.176606504211880E+08,      /* J = 86 */
(PID.TID 0000.0001)                 1.182742170098927E+08,      /* J = 87 */
(PID.TID 0000.0001)                 1.188874233148169E+08,      /* J = 88 */
(PID.TID 0000.0001)                 1.195002674680178E+08,      /* J = 89 */
(PID.TID 0000.0001)                 1.201127476027324E+08,      /* J = 90 */
(PID.TID 0000.0001)                 1.207248618531171E+08,      /* J = 91 */
(PID.TID 0000.0001)                 1.213366083546731E+08,      /* J = 92 */
(PID.TID 0000.0001)                 1.219479852438687E+08,      /* J = 93 */
(PID.TID 0000.0001)                 1.225589906583516E+08,      /* J = 94 */
(PID.TID 0000.0001)                 1.231696227369014E+08,      /* J = 95 */
(PID.TID 0000.0001)                 1.237798796194069E+08,      /* J = 96 */
(PID.TID 0000.0001)                 1.243897594469357E+08,      /* J = 97 */
(PID.TID 0000.0001)                 1.249992603617116E+08,      /* J = 98 */
(PID.TID 0000.0001)                 1.256083805070198E+08,      /* J = 99 */
(PID.TID 0000.0001)                 1.262171180274426E+08       /* J =100 */
(PID.TID 0000.0001)     ;
(PID.TID 0000.0001) globalArea = /* Integrated horizontal Area (m^2) */
(PID.TID 0000.0001)                 4.665024516720103E+11
(PID.TID 0000.0001)     ;
(PID.TID 0000.0001) // =======================================================
(PID.TID 0000.0001) // End of Model config. summary
(PID.TID 0000.0001) // =======================================================
(PID.TID 0000.0001) 
(PID.TID 0000.0001) // =======================================================
(PID.TID 0000.0001) // Field Initial Temperature at iteration          1
(PID.TID 0000.0001) // CMIN =          1.000000000000000E+32
(PID.TID 0000.0001) // CMAX =         -1.000000000000000E+32
(PID.TID 0000.0001) // CINT =          0.000000000000000E+00
(PID.TID 0000.0001) // SYMBOLS (CMIN->CMAX): -abcdefghijklmnopqrstuvwxyz+
(PID.TID 0000.0001) //                  0.0: .
(PID.TID 0000.0001) // RANGE I (Lo:Hi:Step):(   1:  50:   1)
(PID.TID 0000.0001) // RANGE J (Lo:Hi:Step):( 100:   1:  -1)
(PID.TID 0000.0001) // RANGE K (Lo:Hi:Step):(   1:   1:   1)
(PID.TID 0000.0001) // =======================================================
(PID.TID 0000.0001) // =======================================================
(PID.TID 0000.0001) // END OF FIELD                                          =
(PID.TID 0000.0001) // =======================================================
(PID.TID 0000.0001) 
(PID.TID 0000.0001) // =======================================================
(PID.TID 0000.0001) // Field Initial Salinity at iteration          1
(PID.TID 0000.0001) // CMIN =          1.000000000000000E+32
(PID.TID 0000.0001) // CMAX =         -1.000000000000000E+32
(PID.TID 0000.0001) // CINT =          0.000000000000000E+00
(PID.TID 0000.0001) // SYMBOLS (CMIN->CMAX): -abcdefghijklmnopqrstuvwxyz+
(PID.TID 0000.0001) //                  0.0: .
(PID.TID 0000.0001) // RANGE I (Lo:Hi:Step):(   1:  50:   1)
(PID.TID 0000.0001) // RANGE J (Lo:Hi:Step):( 100:   1:  -1)
(PID.TID 0000.0001) // RANGE K (Lo:Hi:Step):(   1:   1:   1)
(PID.TID 0000.0001) // =======================================================
(PID.TID 0000.0001) // =======================================================
(PID.TID 0000.0001) // END OF FIELD                                          =
(PID.TID 0000.0001) // =======================================================
(PID.TID 0000.0001) 
(PID.TID 0000.0001) Start initial hydrostatic pressure computation
(PID.TID 0000.0001) Pressure is predetermined for buoyancyRelation OCEANIC
(PID.TID 0000.0001) 
(PID.TID 0000.0001) // =======================================================
(PID.TID 0000.0001) // Model current state
(PID.TID 0000.0001) // =======================================================
(PID.TID 0000.0001) 
(PID.TID 0000.0001) // =======================================================
(PID.TID 0000.0001) // Begin MONITOR dynamic field statistics
(PID.TID 0000.0001) // =======================================================
(PID.TID 0000.0001) %MON time_tsnumber                =                     0
(PID.TID 0000.0001) %MON time_secondsf                =   0.0000000000000E+00
(PID.TID 0000.0001) %MON dynstat_eta_max              =   0.0000000000000E+00
(PID.TID 0000.0001) %MON dynstat_eta_min              =   0.0000000000000E+00
(PID.TID 0000.0001) %MON dynstat_eta_mean             =   0.0000000000000E+00
(PID.TID 0000.0001) %MON dynstat_eta_sd               =   0.0000000000000E+00
(PID.TID 0000.0001) %MON dynstat_eta_del2             =   0.0000000000000E+00
(PID.TID 0000.0001) %MON dynstat_uvel_max             =   0.0000000000000E+00
(PID.TID 0000.0001) %MON dynstat_uvel_min             =   0.0000000000000E+00
(PID.TID 0000.0001) %MON dynstat_uvel_mean            =   0.0000000000000E+00
(PID.TID 0000.0001) %MON dynstat_uvel_sd              =   0.0000000000000E+00
(PID.TID 0000.0001) %MON dynstat_uvel_del2            =   0.0000000000000E+00
(PID.TID 0000.0001) %MON dynstat_vvel_max             =   0.0000000000000E+00
(PID.TID 0000.0001) %MON dynstat_vvel_min             =   0.0000000000000E+00
(PID.TID 0000.0001) %MON dynstat_vvel_mean            =   0.0000000000000E+00
(PID.TID 0000.0001) %MON dynstat_vvel_sd              =   0.0000000000000E+00
(PID.TID 0000.0001) %MON dynstat_vvel_del2            =   0.0000000000000E+00
(PID.TID 0000.0001) %MON dynstat_wvel_max             =   0.0000000000000E+00
(PID.TID 0000.0001) %MON dynstat_wvel_min             =   0.0000000000000E+00
(PID.TID 0000.0001) %MON dynstat_wvel_mean            =   0.0000000000000E+00
(PID.TID 0000.0001) %MON dynstat_wvel_sd              =   0.0000000000000E+00
(PID.TID 0000.0001) %MON dynstat_wvel_del2            =   0.0000000000000E+00
(PID.TID 0000.0001) %MON dynstat_theta_max            =  -1.9000000000000E+00
(PID.TID 0000.0001) %MON dynstat_theta_min            =  -1.9000000000000E+00
(PID.TID 0000.0001) %MON dynstat_theta_mean           =  -1.9000000000000E+00
(PID.TID 0000.0001) %MON dynstat_theta_sd             =   0.0000000000000E+00
(PID.TID 0000.0001) %MON dynstat_theta_del2           =   0.0000000000000E+00
(PID.TID 0000.0001) %MON dynstat_salt_max             =   3.4400000000000E+01
(PID.TID 0000.0001) %MON dynstat_salt_min             =   3.4400000000000E+01
(PID.TID 0000.0001) %MON dynstat_salt_mean            =   3.4400000000002E+01
(PID.TID 0000.0001) %MON dynstat_salt_sd              =   2.0961010704923E-12
(PID.TID 0000.0001) %MON dynstat_salt_del2            =   0.0000000000000E+00
(PID.TID 0000.0001) %MON extforcing_qnet_max          =   0.0000000000000E+00
(PID.TID 0000.0001) %MON extforcing_qnet_min          =   0.0000000000000E+00
(PID.TID 0000.0001) %MON extforcing_qnet_mean         =   0.0000000000000E+00
(PID.TID 0000.0001) %MON extforcing_qnet_sd           =   0.0000000000000E+00
(PID.TID 0000.0001) %MON extforcing_qnet_del2         =   0.0000000000000E+00
(PID.TID 0000.0001) %MON extforcing_qsw_max           =   0.0000000000000E+00
(PID.TID 0000.0001) %MON extforcing_qsw_min           =   0.0000000000000E+00
(PID.TID 0000.0001) %MON extforcing_qsw_mean          =   0.0000000000000E+00
(PID.TID 0000.0001) %MON extforcing_qsw_sd            =   0.0000000000000E+00
(PID.TID 0000.0001) %MON extforcing_qsw_del2          =   0.0000000000000E+00
(PID.TID 0000.0001) %MON extforcing_empmr_max         =   0.0000000000000E+00
(PID.TID 0000.0001) %MON extforcing_empmr_min         =   0.0000000000000E+00
(PID.TID 0000.0001) %MON extforcing_empmr_mean        =   0.0000000000000E+00
(PID.TID 0000.0001) %MON extforcing_empmr_sd          =   0.0000000000000E+00
(PID.TID 0000.0001) %MON extforcing_empmr_del2        =   0.0000000000000E+00
(PID.TID 0000.0001) %MON advcfl_uvel_max              =   0.0000000000000E+00
(PID.TID 0000.0001) %MON advcfl_vvel_max              =   0.0000000000000E+00
(PID.TID 0000.0001) %MON advcfl_wvel_max              =   0.0000000000000E+00
(PID.TID 0000.0001) %MON advcfl_W_hf_max              =   0.0000000000000E+00
(PID.TID 0000.0001) %MON pe_b_mean                    =   0.0000000000000E+00
(PID.TID 0000.0001) %MON ke_max                       =   0.0000000000000E+00
(PID.TID 0000.0001) %MON ke_mean                      =   0.0000000000000E+00
(PID.TID 0000.0001) %MON ke_vol                       =   2.9241705273104E+14
(PID.TID 0000.0001) %MON vort_r_min                   =   0.0000000000000E+00
(PID.TID 0000.0001) %MON vort_r_max                   =   0.0000000000000E+00
(PID.TID 0000.0001) %MON vort_a_mean                  =  -1.4007437277915E-04
(PID.TID 0000.0001) %MON vort_a_sd                    =   1.7682771465337E-06
(PID.TID 0000.0001) %MON vort_p_mean                  =  -1.5039772194955E-04
(PID.TID 0000.0001) %MON vort_p_sd                    =   8.7081213929711E-05
(PID.TID 0000.0001) %MON surfExpan_theta_mean         =   0.0000000000000E+00
(PID.TID 0000.0001) %MON surfExpan_salt_mean          =   0.0000000000000E+00
(PID.TID 0000.0001) // =======================================================
(PID.TID 0000.0001) // End MONITOR dynamic field statistics
(PID.TID 0000.0001) // =======================================================
 cg2d: Sum(rhs),rhsMax =  -1.83186799063151E-14  3.88700162323895E-14
(PID.TID 0000.0001)                    cg2d_init_res =    2.18953287600515E+01
(PID.TID 0000.0001)                       cg2d_iters =   216
(PID.TID 0000.0001)                         cg2d_res =    9.20750847985007E-14
(PID.TID 0000.0001) // =======================================================
(PID.TID 0000.0001) // Begin MONITOR dynamic field statistics
(PID.TID 0000.0001) // =======================================================
(PID.TID 0000.0001) %MON time_tsnumber                =                     1
(PID.TID 0000.0001) %MON time_secondsf                =   1.8000000000000E+03
(PID.TID 0000.0001) %MON dynstat_eta_max              =   2.9172428893540E-14
(PID.TID 0000.0001) %MON dynstat_eta_min              =  -1.8475101007472E-14
(PID.TID 0000.0001) %MON dynstat_eta_mean             =   2.9748584938996E-30
(PID.TID 0000.0001) %MON dynstat_eta_sd               =   7.3556156094534E-15
(PID.TID 0000.0001) %MON dynstat_eta_del2             =   5.3829126889289E-16
(PID.TID 0000.0001) %MON dynstat_uvel_max             =   1.0788672123772E-15
(PID.TID 0000.0001) %MON dynstat_uvel_min             =  -1.2238471730638E-15
(PID.TID 0000.0001) %MON dynstat_uvel_mean            =   9.9170813469251E-17
(PID.TID 0000.0001) %MON dynstat_uvel_sd              =   3.5676722034974E-16
(PID.TID 0000.0001) %MON dynstat_uvel_del2            =   7.1220547327556E-17
(PID.TID 0000.0001) %MON dynstat_vvel_max             =   9.6860214043329E-17
(PID.TID 0000.0001) %MON dynstat_vvel_min             =  -4.1124222343785E-15
(PID.TID 0000.0001) %MON dynstat_vvel_mean            =  -9.0699308283666E-16
(PID.TID 0000.0001) %MON dynstat_vvel_sd              =   1.1550308930280E-15
(PID.TID 0000.0001) %MON dynstat_vvel_del2            =   7.8928935467701E-18
(PID.TID 0000.0001) %MON dynstat_wvel_max             =   1.6206904940856E-17
(PID.TID 0000.0001) %MON dynstat_wvel_min             =  -1.3159813703832E-17
(PID.TID 0000.0001) %MON dynstat_wvel_mean            =  -7.2632899150968E-19
(PID.TID 0000.0001) %MON dynstat_wvel_sd              =   2.0036033020317E-18
(PID.TID 0000.0001) %MON dynstat_wvel_del2            =   1.3952463819852E-19
(PID.TID 0000.0001) %MON dynstat_theta_max            =  -1.9000000000000E+00
(PID.TID 0000.0001) %MON dynstat_theta_min            =  -1.9031618178858E+00
(PID.TID 0000.0001) %MON dynstat_theta_mean           =  -1.9000578104861E+00
(PID.TID 0000.0001) %MON dynstat_theta_sd             =   2.6340590637834E-04
(PID.TID 0000.0001) %MON dynstat_theta_del2           =   3.5254849668021E-06
(PID.TID 0000.0001) %MON dynstat_salt_max             =   3.4400000000000E+01
(PID.TID 0000.0001) %MON dynstat_salt_min             =   3.4398743493572E+01
(PID.TID 0000.0001) %MON dynstat_salt_mean            =   3.4399977026115E+01
(PID.TID 0000.0001) %MON dynstat_salt_sd              =   1.0467750719494E-04
(PID.TID 0000.0001) %MON dynstat_salt_del2            =   1.4010277258137E-06
(PID.TID 0000.0001) %MON extforcing_qnet_max          =   0.0000000000000E+00
(PID.TID 0000.0001) %MON extforcing_qnet_min          =   0.0000000000000E+00
(PID.TID 0000.0001) %MON extforcing_qnet_mean         =   0.0000000000000E+00
(PID.TID 0000.0001) %MON extforcing_qnet_sd           =   0.0000000000000E+00
(PID.TID 0000.0001) %MON extforcing_qnet_del2         =   0.0000000000000E+00
(PID.TID 0000.0001) %MON extforcing_qsw_max           =   0.0000000000000E+00
(PID.TID 0000.0001) %MON extforcing_qsw_min           =   0.0000000000000E+00
(PID.TID 0000.0001) %MON extforcing_qsw_mean          =   0.0000000000000E+00
(PID.TID 0000.0001) %MON extforcing_qsw_sd            =   0.0000000000000E+00
(PID.TID 0000.0001) %MON extforcing_qsw_del2          =   0.0000000000000E+00
(PID.TID 0000.0001) %MON extforcing_empmr_max         =   0.0000000000000E+00
(PID.TID 0000.0001) %MON extforcing_empmr_min         =   0.0000000000000E+00
(PID.TID 0000.0001) %MON extforcing_empmr_mean        =   0.0000000000000E+00
(PID.TID 0000.0001) %MON extforcing_empmr_sd          =   0.0000000000000E+00
(PID.TID 0000.0001) %MON extforcing_empmr_del2        =   0.0000000000000E+00
(PID.TID 0000.0001) %MON advcfl_uvel_max              =   3.4650666880849E-16
(PID.TID 0000.0001) %MON advcfl_vvel_max              =   6.6581473734719E-16
(PID.TID 0000.0001) %MON advcfl_wvel_max              =   9.7241429645133E-16
(PID.TID 0000.0001) %MON advcfl_W_hf_max              =   1.0607925590322E-14
(PID.TID 0000.0001) %MON pe_b_mean                    =  -5.9508927605322E-18
(PID.TID 0000.0001) %MON ke_max                       =   7.9251101869563E-30
(PID.TID 0000.0001) %MON ke_mean                      =   1.1328472119094E-30
(PID.TID 0000.0001) %MON ke_vol                       =   2.9241705273104E+14
(PID.TID 0000.0001) %MON vort_r_min                   =  -5.7096094687164E-19
(PID.TID 0000.0001) %MON vort_r_max                   =   6.0802152751963E-19
(PID.TID 0000.0001) %MON vort_a_mean                  =  -1.4007437277915E-04
(PID.TID 0000.0001) %MON vort_a_sd                    =   1.7682771465365E-06
(PID.TID 0000.0001) %MON vort_p_mean                  =  -1.5039772194955E-04
(PID.TID 0000.0001) %MON vort_p_sd                    =   8.7081213929711E-05
(PID.TID 0000.0001) %MON surfExpan_theta_mean         =  -2.1959982212670E-21
(PID.TID 0000.0001) %MON surfExpan_salt_mean          =  -8.7268969308587E-22
(PID.TID 0000.0001) // =======================================================
(PID.TID 0000.0001) // End MONITOR dynamic field statistics
(PID.TID 0000.0001) // =======================================================
 cg2d: Sum(rhs),rhsMax =  -3.46929846434826E-14  7.93849158253800E-05
(PID.TID 0000.0001)                    cg2d_init_res =    3.44632123306548E+01
(PID.TID 0000.0001)                       cg2d_iters =   212
(PID.TID 0000.0001)                         cg2d_res =    8.85977040424061E-14
(PID.TID 0000.0001) // =======================================================
(PID.TID 0000.0001) // Begin MONITOR dynamic field statistics
(PID.TID 0000.0001) // =======================================================
(PID.TID 0000.0001) %MON time_tsnumber                =                     2
(PID.TID 0000.0001) %MON time_secondsf                =   3.6000000000000E+03
(PID.TID 0000.0001) %MON dynstat_eta_max              =   1.8377406856492E-05
(PID.TID 0000.0001) %MON dynstat_eta_min              =  -1.5501129985532E-05
(PID.TID 0000.0001) %MON dynstat_eta_mean             =  -8.6510395437419E-22
(PID.TID 0000.0001) %MON dynstat_eta_sd               =   4.5164620115850E-06
(PID.TID 0000.0001) %MON dynstat_eta_del2             =   2.1401962113863E-06
(PID.TID 0000.0001) %MON dynstat_uvel_max             =   4.2939515873467E-06
(PID.TID 0000.0001) %MON dynstat_uvel_min             =  -4.7602679683831E-06
(PID.TID 0000.0001) %MON dynstat_uvel_mean            =   1.0623487050350E-08
(PID.TID 0000.0001) %MON dynstat_uvel_sd              =   6.0172032914484E-07
(PID.TID 0000.0001) %MON dynstat_uvel_del2            =   1.6161471935725E-07
(PID.TID 0000.0001) %MON dynstat_vvel_max             =   2.6033943654290E-05
(PID.TID 0000.0001) %MON dynstat_vvel_min             =  -5.6616433911888E-06
(PID.TID 0000.0001) %MON dynstat_vvel_mean            =  -1.6955289928523E-07
(PID.TID 0000.0001) %MON dynstat_vvel_sd              =   1.5865270980922E-06
(PID.TID 0000.0001) %MON dynstat_vvel_del2            =   8.5716745301204E-08
(PID.TID 0000.0001) %MON dynstat_wvel_max             =   5.9140103239641E-08
(PID.TID 0000.0001) %MON dynstat_wvel_min             =  -5.2442416978995E-08
(PID.TID 0000.0001) %MON dynstat_wvel_mean            =  -1.1148919363251E-10
(PID.TID 0000.0001) %MON dynstat_wvel_sd              =   4.3088018035260E-09
(PID.TID 0000.0001) %MON dynstat_wvel_del2            =   1.5467361507152E-09
(PID.TID 0000.0001) %MON dynstat_theta_max            =  -1.9000000000000E+00
(PID.TID 0000.0001) %MON dynstat_theta_min            =  -1.9062982113462E+00
(PID.TID 0000.0001) %MON dynstat_theta_mean           =  -1.9001151625410E+00
(PID.TID 0000.0001) %MON dynstat_theta_sd             =   5.2455526009694E-04
(PID.TID 0000.0001) %MON dynstat_theta_del2           =   7.0108058206835E-06
(PID.TID 0000.0001) %MON dynstat_salt_max             =   3.4400000000000E+01
(PID.TID 0000.0001) %MON dynstat_salt_min             =   3.4397497090811E+01
(PID.TID 0000.0001) %MON dynstat_salt_mean            =   3.4399954234409E+01
(PID.TID 0000.0001) %MON dynstat_salt_sd              =   2.0845826036265E-04
(PID.TID 0000.0001) %MON dynstat_salt_del2            =   2.7860942331416E-06
(PID.TID 0000.0001) %MON extforcing_qnet_max          =   0.0000000000000E+00
(PID.TID 0000.0001) %MON extforcing_qnet_min          =   0.0000000000000E+00
(PID.TID 0000.0001) %MON extforcing_qnet_mean         =   0.0000000000000E+00
(PID.TID 0000.0001) %MON extforcing_qnet_sd           =   0.0000000000000E+00
(PID.TID 0000.0001) %MON extforcing_qnet_del2         =   0.0000000000000E+00
(PID.TID 0000.0001) %MON extforcing_qsw_max           =   0.0000000000000E+00
(PID.TID 0000.0001) %MON extforcing_qsw_min           =   0.0000000000000E+00
(PID.TID 0000.0001) %MON extforcing_qsw_mean          =   0.0000000000000E+00
(PID.TID 0000.0001) %MON extforcing_qsw_sd            =   0.0000000000000E+00
(PID.TID 0000.0001) %MON extforcing_qsw_del2          =   0.0000000000000E+00
(PID.TID 0000.0001) %MON extforcing_empmr_max         =   0.0000000000000E+00
(PID.TID 0000.0001) %MON extforcing_empmr_min         =   0.0000000000000E+00
(PID.TID 0000.0001) %MON extforcing_empmr_mean        =   0.0000000000000E+00
(PID.TID 0000.0001) %MON extforcing_empmr_sd          =   0.0000000000000E+00
(PID.TID 0000.0001) %MON extforcing_empmr_del2        =   0.0000000000000E+00
(PID.TID 0000.0001) %MON advcfl_uvel_max              =   1.4437221246438E-06
(PID.TID 0000.0001) %MON advcfl_vvel_max              =   4.2149814314756E-06
(PID.TID 0000.0001) %MON advcfl_wvel_max              =   3.5484061943785E-06
(PID.TID 0000.0001) %MON advcfl_W_hf_max              =   1.5885562085476E-05
(PID.TID 0000.0001) %MON pe_b_mean                    =  -1.3792625666816E-09
(PID.TID 0000.0001) %MON ke_max                       =   1.8362563290031E-10
(PID.TID 0000.0001) %MON ke_mean                      =   1.4353364020238E-12
(PID.TID 0000.0001) %MON ke_vol                       =   2.9241705273104E+14
(PID.TID 0000.0001) %MON vort_r_min                   =  -4.3994435033815E-09
(PID.TID 0000.0001) %MON vort_r_max                   =   4.3239303782842E-09
(PID.TID 0000.0001) %MON vort_a_mean                  =  -1.4007437277910E-04
(PID.TID 0000.0001) %MON vort_a_sd                    =   1.7682771677405E-06
(PID.TID 0000.0001) %MON vort_p_mean                  =  -1.5039772194949E-04
(PID.TID 0000.0001) %MON vort_p_sd                    =   8.7081211623598E-05
(PID.TID 0000.0001) %MON surfExpan_theta_mean         =  -7.7373845914417E-13
(PID.TID 0000.0001) %MON surfExpan_salt_mean          =  -3.0748366364345E-13
(PID.TID 0000.0001) // =======================================================
(PID.TID 0000.0001) // End MONITOR dynamic field statistics
(PID.TID 0000.0001) // =======================================================
 cg2d: Sum(rhs),rhsMax =  -1.13242748511766E-14  1.28219799213630E-04
(PID.TID 0000.0001)                    cg2d_init_res =    1.32589930133440E+01
(PID.TID 0000.0001)                       cg2d_iters =   211
(PID.TID 0000.0001)                         cg2d_res =    9.15196855316597E-14
(PID.TID 0000.0001) // =======================================================
(PID.TID 0000.0001) // Begin MONITOR dynamic field statistics
(PID.TID 0000.0001) // =======================================================
(PID.TID 0000.0001) %MON time_tsnumber                =                     3
(PID.TID 0000.0001) %MON time_secondsf                =   5.4000000000000E+03
(PID.TID 0000.0001) %MON dynstat_eta_max              =   3.4212974625125E-05
(PID.TID 0000.0001) %MON dynstat_eta_min              =  -2.2223755500587E-05
(PID.TID 0000.0001) %MON dynstat_eta_mean             =   3.4604158174967E-21
(PID.TID 0000.0001) %MON dynstat_eta_sd               =   8.0379032533109E-06
(PID.TID 0000.0001) %MON dynstat_eta_del2             =   3.4688987260604E-06
(PID.TID 0000.0001) %MON dynstat_uvel_max             =   6.8568201717459E-06
(PID.TID 0000.0001) %MON dynstat_uvel_min             =  -1.5413563077332E-05
(PID.TID 0000.0001) %MON dynstat_uvel_mean            =   2.2179242738704E-08
(PID.TID 0000.0001) %MON dynstat_uvel_sd              =   1.2666022935826E-06
(PID.TID 0000.0001) %MON dynstat_uvel_del2            =   2.2951215482361E-07
(PID.TID 0000.0001) %MON dynstat_vvel_max             =   6.4039814330930E-05
(PID.TID 0000.0001) %MON dynstat_vvel_min             =  -1.1257910612161E-05
(PID.TID 0000.0001) %MON dynstat_vvel_mean            =  -4.0351607119302E-07
(PID.TID 0000.0001) %MON dynstat_vvel_sd              =   4.0114617189348E-06
(PID.TID 0000.0001) %MON dynstat_vvel_del2            =   2.1062156599878E-07
(PID.TID 0000.0001) %MON dynstat_wvel_max             =   1.5244085486000E-07
(PID.TID 0000.0001) %MON dynstat_wvel_min             =  -1.3701968612180E-07
(PID.TID 0000.0001) %MON dynstat_wvel_mean            =  -2.5510060369657E-10
(PID.TID 0000.0001) %MON dynstat_wvel_sd              =   1.0556374403573E-08
(PID.TID 0000.0001) %MON dynstat_wvel_del2            =   3.7776214816779E-09
(PID.TID 0000.0001) %MON dynstat_theta_max            =  -1.9000000000000E+00
(PID.TID 0000.0001) %MON dynstat_theta_min            =  -1.9094189300731E+00
(PID.TID 0000.0001) %MON dynstat_theta_mean           =  -1.9001722318842E+00
(PID.TID 0000.0001) %MON dynstat_theta_sd             =   7.8431410730826E-04
(PID.TID 0000.0001) %MON dynstat_theta_del2           =   1.0471638352942E-05
(PID.TID 0000.0001) %MON dynstat_salt_max             =   3.4400000000000E+01
(PID.TID 0000.0001) %MON dynstat_salt_min             =   3.4396256917189E+01
(PID.TID 0000.0001) %MON dynstat_salt_mean            =   3.4399931555052E+01
(PID.TID 0000.0001) %MON dynstat_salt_sd              =   3.1168642624441E-04
(PID.TID 0000.0001) %MON dynstat_salt_del2            =   4.1614290814718E-06
(PID.TID 0000.0001) %MON extforcing_qnet_max          =   0.0000000000000E+00
(PID.TID 0000.0001) %MON extforcing_qnet_min          =   0.0000000000000E+00
(PID.TID 0000.0001) %MON extforcing_qnet_mean         =   0.0000000000000E+00
(PID.TID 0000.0001) %MON extforcing_qnet_sd           =   0.0000000000000E+00
(PID.TID 0000.0001) %MON extforcing_qnet_del2         =   0.0000000000000E+00
(PID.TID 0000.0001) %MON extforcing_qsw_max           =   0.0000000000000E+00
(PID.TID 0000.0001) %MON extforcing_qsw_min           =   0.0000000000000E+00
(PID.TID 0000.0001) %MON extforcing_qsw_mean          =   0.0000000000000E+00
(PID.TID 0000.0001) %MON extforcing_qsw_sd            =   0.0000000000000E+00
(PID.TID 0000.0001) %MON extforcing_qsw_del2          =   0.0000000000000E+00
(PID.TID 0000.0001) %MON extforcing_empmr_max         =   0.0000000000000E+00
(PID.TID 0000.0001) %MON extforcing_empmr_min         =   0.0000000000000E+00
(PID.TID 0000.0001) %MON extforcing_empmr_mean        =   0.0000000000000E+00
(PID.TID 0000.0001) %MON extforcing_empmr_sd          =   0.0000000000000E+00
(PID.TID 0000.0001) %MON extforcing_empmr_del2        =   0.0000000000000E+00
(PID.TID 0000.0001) %MON advcfl_uvel_max              =   4.6747162517190E-06
(PID.TID 0000.0001) %MON advcfl_vvel_max              =   1.0368257374466E-05
(PID.TID 0000.0001) %MON advcfl_wvel_max              =   9.1464512915998E-06
(PID.TID 0000.0001) %MON advcfl_W_hf_max              =   2.0265235462416E-05
(PID.TID 0000.0001) %MON pe_b_mean                    =  -4.0711448744446E-09
(PID.TID 0000.0001) %MON ke_max                       =   1.1546874114431E-09
(PID.TID 0000.0001) %MON ke_mean                      =   8.8177796419409E-12
(PID.TID 0000.0001) %MON ke_vol                       =   2.9241705273104E+14
(PID.TID 0000.0001) %MON vort_r_min                   =  -1.0842537319551E-08
(PID.TID 0000.0001) %MON vort_r_max                   =   1.0602945005484E-08
(PID.TID 0000.0001) %MON vort_a_mean                  =  -1.4007437277803E-04
(PID.TID 0000.0001) %MON vort_a_sd                    =   1.7682771282609E-06
(PID.TID 0000.0001) %MON vort_p_mean                  =  -1.5039772194834E-04
(PID.TID 0000.0001) %MON vort_p_sd                    =   8.7081108148438E-05
(PID.TID 0000.0001) %MON surfExpan_theta_mean         =  -2.3956038148051E-12
(PID.TID 0000.0001) %MON surfExpan_salt_mean          =  -9.5201295595315E-13
(PID.TID 0000.0001) // =======================================================
(PID.TID 0000.0001) // End MONITOR dynamic field statistics
(PID.TID 0000.0001) // =======================================================
 cg2d: Sum(rhs),rhsMax =   7.99360577730113E-15  1.76700252025134E-04
(PID.TID 0000.0001)                    cg2d_init_res =    9.52049980717407E+00
(PID.TID 0000.0001)                       cg2d_iters =   210
(PID.TID 0000.0001)                         cg2d_res =    9.34554050511651E-14
(PID.TID 0000.0001) // =======================================================
(PID.TID 0000.0001) // Begin MONITOR dynamic field statistics
(PID.TID 0000.0001) // =======================================================
(PID.TID 0000.0001) %MON time_tsnumber                =                     4
(PID.TID 0000.0001) %MON time_secondsf                =   7.2000000000000E+03
(PID.TID 0000.0001) %MON dynstat_eta_max              =   5.1768852075293E-05
(PID.TID 0000.0001) %MON dynstat_eta_min              =  -2.5522711425660E-05
(PID.TID 0000.0001) %MON dynstat_eta_mean             =  -6.9208316349935E-21
(PID.TID 0000.0001) %MON dynstat_eta_sd               =   1.2117446857700E-05
(PID.TID 0000.0001) %MON dynstat_eta_del2             =   4.7822247769151E-06
(PID.TID 0000.0001) %MON dynstat_uvel_max             =   9.5289343263378E-06
(PID.TID 0000.0001) %MON dynstat_uvel_min             =  -3.4975984550792E-05
(PID.TID 0000.0001) %MON dynstat_uvel_mean            =   3.1258675787524E-08
(PID.TID 0000.0001) %MON dynstat_uvel_sd              =   2.6515864398849E-06
(PID.TID 0000.0001) %MON dynstat_uvel_del2            =   2.7990653445881E-07
(PID.TID 0000.0001) %MON dynstat_vvel_max             =   1.1188797379487E-04
(PID.TID 0000.0001) %MON dynstat_vvel_min             =  -1.7368486053133E-05
(PID.TID 0000.0001) %MON dynstat_vvel_mean            =  -6.5990112083624E-07
(PID.TID 0000.0001) %MON dynstat_vvel_sd              =   7.1160886714013E-06
(PID.TID 0000.0001) %MON dynstat_vvel_del2            =   3.6880650752066E-07
(PID.TID 0000.0001) %MON dynstat_wvel_max             =   2.8661542290061E-07
(PID.TID 0000.0001) %MON dynstat_wvel_min             =  -2.7547765164603E-07
(PID.TID 0000.0001) %MON dynstat_wvel_mean            =  -3.7367920297910E-10
(PID.TID 0000.0001) %MON dynstat_wvel_sd              =   1.8916640780217E-08
(PID.TID 0000.0001) %MON dynstat_wvel_del2            =   6.6499335659608E-09
(PID.TID 0000.0001) %MON dynstat_theta_max            =  -1.9000000000000E+00
(PID.TID 0000.0001) %MON dynstat_theta_min            =  -1.9125240227382E+00
(PID.TID 0000.0001) %MON dynstat_theta_mean           =  -1.9002290194337E+00
(PID.TID 0000.0001) %MON dynstat_theta_sd             =   1.0426872732628E-03
(PID.TID 0000.0001) %MON dynstat_theta_del2           =   1.3908018068634E-05
(PID.TID 0000.0001) %MON dynstat_salt_max             =   3.4400000000000E+01
(PID.TID 0000.0001) %MON dynstat_salt_min             =   3.4395022953364E+01
(PID.TID 0000.0001) %MON dynstat_salt_mean            =   3.4399908987679E+01
(PID.TID 0000.0001) %MON dynstat_salt_sd              =   4.1436392239482E-04
(PID.TID 0000.0001) %MON dynstat_salt_del2            =   5.5270463804834E-06
(PID.TID 0000.0001) %MON extforcing_qnet_max          =   0.0000000000000E+00
(PID.TID 0000.0001) %MON extforcing_qnet_min          =   0.0000000000000E+00
(PID.TID 0000.0001) %MON extforcing_qnet_mean         =   0.0000000000000E+00
(PID.TID 0000.0001) %MON extforcing_qnet_sd           =   0.0000000000000E+00
(PID.TID 0000.0001) %MON extforcing_qnet_del2         =   0.0000000000000E+00
(PID.TID 0000.0001) %MON extforcing_qsw_max           =   0.0000000000000E+00
(PID.TID 0000.0001) %MON extforcing_qsw_min           =   0.0000000000000E+00
(PID.TID 0000.0001) %MON extforcing_qsw_mean          =   0.0000000000000E+00
(PID.TID 0000.0001) %MON extforcing_qsw_sd            =   0.0000000000000E+00
(PID.TID 0000.0001) %MON extforcing_qsw_del2          =   0.0000000000000E+00
(PID.TID 0000.0001) %MON extforcing_empmr_max         =   0.0000000000000E+00
(PID.TID 0000.0001) %MON extforcing_empmr_min         =   0.0000000000000E+00
(PID.TID 0000.0001) %MON extforcing_empmr_mean        =   0.0000000000000E+00
(PID.TID 0000.0001) %MON extforcing_empmr_sd          =   0.0000000000000E+00
(PID.TID 0000.0001) %MON extforcing_empmr_del2        =   0.0000000000000E+00
(PID.TID 0000.0001) %MON advcfl_uvel_max              =   1.0607722729595E-05
(PID.TID 0000.0001) %MON advcfl_vvel_max              =   1.8115032367487E-05
(PID.TID 0000.0001) %MON advcfl_wvel_max              =   1.7196925374037E-05
(PID.TID 0000.0001) %MON advcfl_W_hf_max              =   3.0766941001927E-05
(PID.TID 0000.0001) %MON pe_b_mean                    =  -7.8461686472219E-09
(PID.TID 0000.0001) %MON ke_max                       =   3.8428297985627E-09
(PID.TID 0000.0001) %MON ke_mean                      =   2.8681031680133E-11
(PID.TID 0000.0001) %MON ke_vol                       =   2.9241705273104E+14
(PID.TID 0000.0001) %MON vort_r_min                   =  -1.8943676588611E-08
(PID.TID 0000.0001) %MON vort_r_max                   =   1.8495238151850E-08
(PID.TID 0000.0001) %MON vort_a_mean                  =  -1.4007437277252E-04
(PID.TID 0000.0001) %MON vort_a_sd                    =   1.7682770263774E-06
(PID.TID 0000.0001) %MON vort_p_mean                  =  -1.5039772194242E-04
(PID.TID 0000.0001) %MON vort_p_sd                    =   8.7080887531798E-05
(PID.TID 0000.0001) %MON surfExpan_theta_mean         =  -4.6035142537684E-12
(PID.TID 0000.0001) %MON surfExpan_salt_mean          =  -1.8294365644449E-12
(PID.TID 0000.0001) // =======================================================
(PID.TID 0000.0001) // End MONITOR dynamic field statistics
(PID.TID 0000.0001) // =======================================================
 cg2d: Sum(rhs),rhsMax =  -3.55271367880050E-15  2.24695664242368E-04
(PID.TID 0000.0001)                    cg2d_init_res =    7.45649505078663E+00
(PID.TID 0000.0001)                       cg2d_iters =   209
(PID.TID 0000.0001)                         cg2d_res =    8.69738497777172E-14
(PID.TID 0000.0001) // =======================================================
(PID.TID 0000.0001) // Begin MONITOR dynamic field statistics
(PID.TID 0000.0001) // =======================================================
(PID.TID 0000.0001) %MON time_tsnumber                =                     5
(PID.TID 0000.0001) %MON time_secondsf                =   9.0000000000000E+03
(PID.TID 0000.0001) %MON dynstat_eta_max              =   7.0295978216453E-05
(PID.TID 0000.0001) %MON dynstat_eta_min              =  -2.7387233812977E-05
(PID.TID 0000.0001) %MON dynstat_eta_mean             =   0.0000000000000E+00
(PID.TID 0000.0001) %MON dynstat_eta_sd               =   1.6701276339154E-05
(PID.TID 0000.0001) %MON dynstat_eta_del2             =   6.0897521138113E-06
(PID.TID 0000.0001) %MON dynstat_uvel_max             =   1.2698170431555E-05
(PID.TID 0000.0001) %MON dynstat_uvel_min             =  -6.5682044631389E-05
(PID.TID 0000.0001) %MON dynstat_uvel_mean            =   3.3335905374031E-08
(PID.TID 0000.0001) %MON dynstat_uvel_sd              =   4.9746053566183E-06
(PID.TID 0000.0001) %MON dynstat_uvel_del2            =   3.2062088782672E-07
(PID.TID 0000.0001) %MON dynstat_vvel_max             =   1.6632266757827E-04
(PID.TID 0000.0001) %MON dynstat_vvel_min             =  -2.3570736220432E-05
(PID.TID 0000.0001) %MON dynstat_vvel_mean            =  -8.9486368343434E-07
(PID.TID 0000.0001) %MON dynstat_vvel_sd              =   1.0690386089390E-05
(PID.TID 0000.0001) %MON dynstat_vvel_del2            =   5.4952644607925E-07
(PID.TID 0000.0001) %MON dynstat_wvel_max             =   4.5637301835563E-07
(PID.TID 0000.0001) %MON dynstat_wvel_min             =  -4.7105815682200E-07
(PID.TID 0000.0001) %MON dynstat_wvel_mean            =  -4.5687481139796E-10
(PID.TID 0000.0001) %MON dynstat_wvel_sd              =   2.8972626086351E-08
(PID.TID 0000.0001) %MON dynstat_wvel_del2            =   9.9420009218156E-09
(PID.TID 0000.0001) %MON dynstat_theta_max            =  -1.9000000000000E+00
(PID.TID 0000.0001) %MON dynstat_theta_min            =  -1.9156135702186E+00
(PID.TID 0000.0001) %MON dynstat_theta_mean           =  -1.9002855266491E+00
(PID.TID 0000.0001) %MON dynstat_theta_sd             =   1.2996823860037E-03
(PID.TID 0000.0001) %MON dynstat_theta_del2           =   1.7320111108243E-05
(PID.TID 0000.0001) %MON dynstat_salt_max             =   3.4400000000000E+01
(PID.TID 0000.0001) %MON dynstat_salt_min             =   3.4393795167195E+01
(PID.TID 0000.0001) %MON dynstat_salt_mean            =   3.4399886531712E+01
(PID.TID 0000.0001) %MON dynstat_salt_sd              =   5.1649378019810E-04
(PID.TID 0000.0001) %MON dynstat_salt_del2            =   6.8830121544349E-06
(PID.TID 0000.0001) %MON extforcing_qnet_max          =   0.0000000000000E+00
(PID.TID 0000.0001) %MON extforcing_qnet_min          =   0.0000000000000E+00
(PID.TID 0000.0001) %MON extforcing_qnet_mean         =   0.0000000000000E+00
(PID.TID 0000.0001) %MON extforcing_qnet_sd           =   0.0000000000000E+00
(PID.TID 0000.0001) %MON extforcing_qnet_del2         =   0.0000000000000E+00
(PID.TID 0000.0001) %MON extforcing_qsw_max           =   0.0000000000000E+00
(PID.TID 0000.0001) %MON extforcing_qsw_min           =   0.0000000000000E+00
(PID.TID 0000.0001) %MON extforcing_qsw_mean          =   0.0000000000000E+00
(PID.TID 0000.0001) %MON extforcing_qsw_sd            =   0.0000000000000E+00
(PID.TID 0000.0001) %MON extforcing_qsw_del2          =   0.0000000000000E+00
(PID.TID 0000.0001) %MON extforcing_empmr_max         =   0.0000000000000E+00
(PID.TID 0000.0001) %MON extforcing_empmr_min         =   0.0000000000000E+00
(PID.TID 0000.0001) %MON extforcing_empmr_mean        =   0.0000000000000E+00
(PID.TID 0000.0001) %MON extforcing_empmr_sd          =   0.0000000000000E+00
(PID.TID 0000.0001) %MON extforcing_empmr_del2        =   0.0000000000000E+00
(PID.TID 0000.0001) %MON advcfl_uvel_max              =   1.9920437600572E-05
(PID.TID 0000.0001) %MON advcfl_vvel_max              =   2.6928189012976E-05
(PID.TID 0000.0001) %MON advcfl_wvel_max              =   2.8263489409320E-05
(PID.TID 0000.0001) %MON advcfl_W_hf_max              =   4.3457403539655E-05
(PID.TID 0000.0001) %MON pe_b_mean                    =  -1.2442115528291E-08
(PID.TID 0000.0001) %MON ke_max                       =   9.5492506235174E-09
(PID.TID 0000.0001) %MON ke_mean                      =   6.8987388799275E-11
(PID.TID 0000.0001) %MON ke_vol                       =   2.9241705273104E+14
(PID.TID 0000.0001) %MON vort_r_min                   =  -2.8159977494403E-08
(PID.TID 0000.0001) %MON vort_r_max                   =   2.7458132742603E-08
(PID.TID 0000.0001) %MON vort_a_mean                  =  -1.4007437275656E-04
(PID.TID 0000.0001) %MON vort_a_sd                    =   1.7682768761750E-06
(PID.TID 0000.0001) %MON vort_p_mean                  =  -1.5039772192529E-04
(PID.TID 0000.0001) %MON vort_p_sd                    =   8.7080527702439E-05
(PID.TID 0000.0001) %MON surfExpan_theta_mean         =  -6.9769620873073E-12
(PID.TID 0000.0001) %MON surfExpan_salt_mean          =  -2.7726447335488E-12
(PID.TID 0000.0001) // =======================================================
(PID.TID 0000.0001) // End MONITOR dynamic field statistics
(PID.TID 0000.0001) // =======================================================
 cg2d: Sum(rhs),rhsMax =   8.88178419700125E-15  2.72671283722901E-04
(PID.TID 0000.0001)                    cg2d_init_res =    6.11119753070458E+00
(PID.TID 0000.0001)                       cg2d_iters =   206
(PID.TID 0000.0001)                         cg2d_res =    9.31647149538448E-14
(PID.TID 0000.0001) // =======================================================
(PID.TID 0000.0001) // Begin MONITOR dynamic field statistics
(PID.TID 0000.0001) // =======================================================
(PID.TID 0000.0001) %MON time_tsnumber                =                     6
(PID.TID 0000.0001) %MON time_secondsf                =   1.0800000000000E+04
(PID.TID 0000.0001) %MON dynstat_eta_max              =   9.0066258305272E-05
(PID.TID 0000.0001) %MON dynstat_eta_min              =  -3.1212949500668E-05
(PID.TID 0000.0001) %MON dynstat_eta_mean             =   1.3309291605757E-20
(PID.TID 0000.0001) %MON dynstat_eta_sd               =   2.1610918201101E-05
(PID.TID 0000.0001) %MON dynstat_eta_del2             =   7.3893859762393E-06
(PID.TID 0000.0001) %MON dynstat_uvel_max             =   1.6747601790375E-05
(PID.TID 0000.0001) %MON dynstat_uvel_min             =  -1.1309826944505E-04
(PID.TID 0000.0001) %MON dynstat_uvel_mean            =   2.6491971018139E-08
(PID.TID 0000.0001) %MON dynstat_uvel_sd              =   8.3181246168045E-06
(PID.TID 0000.0001) %MON dynstat_uvel_del2            =   3.6836654095855E-07
(PID.TID 0000.0001) %MON dynstat_vvel_max             =   2.2373829582280E-04
(PID.TID 0000.0001) %MON dynstat_vvel_min             =  -3.1773301500016E-05
(PID.TID 0000.0001) %MON dynstat_vvel_mean            =  -1.0702724360944E-06
(PID.TID 0000.0001) %MON dynstat_vvel_sd              =   1.4495407883586E-05
(PID.TID 0000.0001) %MON dynstat_vvel_del2            =   7.4077828252400E-07
(PID.TID 0000.0001) %MON dynstat_wvel_max             =   7.1551171977489E-07
(PID.TID 0000.0001) %MON dynstat_wvel_min             =  -7.2441546797192E-07
(PID.TID 0000.0001) %MON dynstat_wvel_mean            =  -4.9920648827753E-10
(PID.TID 0000.0001) %MON dynstat_wvel_sd              =   4.0388179214299E-08
(PID.TID 0000.0001) %MON dynstat_wvel_del2            =   1.3443941905658E-08
(PID.TID 0000.0001) %MON dynstat_theta_max            =  -1.9000000000000E+00
(PID.TID 0000.0001) %MON dynstat_theta_min            =  -1.9186876559959E+00
(PID.TID 0000.0001) %MON dynstat_theta_mean           =  -1.9003417549821E+00
(PID.TID 0000.0001) %MON dynstat_theta_sd             =   1.5553070314926E-03
(PID.TID 0000.0001) %MON dynstat_theta_del2           =   2.0708087259707E-05
(PID.TID 0000.0001) %MON dynstat_salt_max             =   3.4400000000000E+01
(PID.TID 0000.0001) %MON dynstat_salt_min             =   3.4392573525507E+01
(PID.TID 0000.0001) %MON dynstat_salt_mean            =   3.4399864186572E+01
(PID.TID 0000.0001) %MON dynstat_salt_sd              =   6.1807901431539E-04
(PID.TID 0000.0001) %MON dynstat_salt_del2            =   8.2293938770364E-06
(PID.TID 0000.0001) %MON extforcing_qnet_max          =   0.0000000000000E+00
(PID.TID 0000.0001) %MON extforcing_qnet_min          =   0.0000000000000E+00
(PID.TID 0000.0001) %MON extforcing_qnet_mean         =   0.0000000000000E+00
(PID.TID 0000.0001) %MON extforcing_qnet_sd           =   0.0000000000000E+00
(PID.TID 0000.0001) %MON extforcing_qnet_del2         =   0.0000000000000E+00
(PID.TID 0000.0001) %MON extforcing_qsw_max           =   0.0000000000000E+00
(PID.TID 0000.0001) %MON extforcing_qsw_min           =   0.0000000000000E+00
(PID.TID 0000.0001) %MON extforcing_qsw_mean          =   0.0000000000000E+00
(PID.TID 0000.0001) %MON extforcing_qsw_sd            =   0.0000000000000E+00
(PID.TID 0000.0001) %MON extforcing_qsw_del2          =   0.0000000000000E+00
(PID.TID 0000.0001) %MON extforcing_empmr_max         =   0.0000000000000E+00
(PID.TID 0000.0001) %MON extforcing_empmr_min         =   0.0000000000000E+00
(PID.TID 0000.0001) %MON extforcing_empmr_mean        =   0.0000000000000E+00
(PID.TID 0000.0001) %MON extforcing_empmr_sd          =   0.0000000000000E+00
(PID.TID 0000.0001) %MON extforcing_empmr_del2        =   0.0000000000000E+00
(PID.TID 0000.0001) %MON advcfl_uvel_max              =   3.3651716956765E-05
(PID.TID 0000.0001) %MON advcfl_vvel_max              =   3.6223968789596E-05
(PID.TID 0000.0001) %MON advcfl_wvel_max              =   4.3464928078315E-05
(PID.TID 0000.0001) %MON advcfl_W_hf_max              =   5.8470249620166E-05
(PID.TID 0000.0001) %MON pe_b_mean                    =  -1.7545582515713E-08
(PID.TID 0000.0001) %MON ke_max                       =   2.0040157242867E-08
(PID.TID 0000.0001) %MON ke_mean                      =   1.3827912182882E-10
(PID.TID 0000.0001) %MON ke_vol                       =   2.9241705273104E+14
(PID.TID 0000.0001) %MON vort_r_min                   =  -3.7880978382223E-08
(PID.TID 0000.0001) %MON vort_r_max                   =   3.7186560261358E-08
(PID.TID 0000.0001) %MON vort_a_mean                  =  -1.4007437272445E-04
(PID.TID 0000.0001) %MON vort_a_sd                    =   1.7682767062226E-06
(PID.TID 0000.0001) %MON vort_p_mean                  =  -1.5039772189081E-04
(PID.TID 0000.0001) %MON vort_p_sd                    =   8.7080016320011E-05
(PID.TID 0000.0001) %MON surfExpan_theta_mean         =  -9.0972340562036E-12
(PID.TID 0000.0001) %MON surfExpan_salt_mean          =  -3.6152408140128E-12
(PID.TID 0000.0001) // =======================================================
(PID.TID 0000.0001) // End MONITOR dynamic field statistics
(PID.TID 0000.0001) // =======================================================
 cg2d: Sum(rhs),rhsMax =  -3.99680288865056E-14  3.20843429611936E-04
(PID.TID 0000.0001)                    cg2d_init_res =    5.16492241382658E+00
(PID.TID 0000.0001)                       cg2d_iters =   208
(PID.TID 0000.0001)                         cg2d_res =    8.80186275273733E-14
(PID.TID 0000.0001) // =======================================================
(PID.TID 0000.0001) // Begin MONITOR dynamic field statistics
(PID.TID 0000.0001) // =======================================================
(PID.TID 0000.0001) %MON time_tsnumber                =                     7
(PID.TID 0000.0001) %MON time_secondsf                =   1.2600000000000E+04
(PID.TID 0000.0001) %MON dynstat_eta_max              =   1.1095481654897E-04
(PID.TID 0000.0001) %MON dynstat_eta_min              =  -3.3945477831794E-05
(PID.TID 0000.0001) %MON dynstat_eta_mean             =  -1.3841663269987E-20
(PID.TID 0000.0001) %MON dynstat_eta_sd               =   2.6636436590790E-05
(PID.TID 0000.0001) %MON dynstat_eta_del2             =   8.6809297305443E-06
(PID.TID 0000.0001) %MON dynstat_uvel_max             =   2.6369093741947E-05
(PID.TID 0000.0001) %MON dynstat_uvel_min             =  -1.7611563947790E-04
(PID.TID 0000.0001) %MON dynstat_uvel_mean            =   1.1784221211602E-08
(PID.TID 0000.0001) %MON dynstat_uvel_sd              =   1.2696894298811E-05
(PID.TID 0000.0001) %MON dynstat_uvel_del2            =   4.9331218383398E-07
(PID.TID 0000.0001) %MON dynstat_vvel_max             =   2.8040549418231E-04
(PID.TID 0000.0001) %MON dynstat_vvel_min             =  -4.0189829632871E-05
(PID.TID 0000.0001) %MON dynstat_vvel_mean            =  -1.1596003410615E-06
(PID.TID 0000.0001) %MON dynstat_vvel_sd              =   1.8278468980313E-05
(PID.TID 0000.0001) %MON dynstat_vvel_del2            =   9.2964449554849E-07
(PID.TID 0000.0001) %MON dynstat_wvel_max             =   1.0348394264426E-06
(PID.TID 0000.0001) %MON dynstat_wvel_min             =  -1.0326092625804E-06
(PID.TID 0000.0001) %MON dynstat_wvel_mean            =  -5.0235647478783E-10
(PID.TID 0000.0001) %MON dynstat_wvel_sd              =   5.2828498709024E-08
(PID.TID 0000.0001) %MON dynstat_wvel_del2            =   1.6948589993795E-08
(PID.TID 0000.0001) %MON dynstat_theta_max            =  -1.9000000000000E+00
(PID.TID 0000.0001) %MON dynstat_theta_min            =  -1.9217463670999E+00
(PID.TID 0000.0001) %MON dynstat_theta_mean           =  -1.9003977058778E+00
(PID.TID 0000.0001) %MON dynstat_theta_sd             =   1.8095687598892E-03
(PID.TID 0000.0001) %MON dynstat_theta_del2           =   2.4072114549694E-05
(PID.TID 0000.0001) %MON dynstat_salt_max             =   3.4400000000000E+01
(PID.TID 0000.0001) %MON dynstat_salt_min             =   3.4391357993714E+01
(PID.TID 0000.0001) %MON dynstat_salt_mean            =   3.4399841951687E+01
(PID.TID 0000.0001) %MON dynstat_salt_sd              =   7.1912262518007E-04
(PID.TID 0000.0001) %MON dynstat_salt_del2            =   9.5662583220902E-06
(PID.TID 0000.0001) %MON extforcing_qnet_max          =   0.0000000000000E+00
(PID.TID 0000.0001) %MON extforcing_qnet_min          =   0.0000000000000E+00
(PID.TID 0000.0001) %MON extforcing_qnet_mean         =   0.0000000000000E+00
(PID.TID 0000.0001) %MON extforcing_qnet_sd           =   0.0000000000000E+00
(PID.TID 0000.0001) %MON extforcing_qnet_del2         =   0.0000000000000E+00
(PID.TID 0000.0001) %MON extforcing_qsw_max           =   0.0000000000000E+00
(PID.TID 0000.0001) %MON extforcing_qsw_min           =   0.0000000000000E+00
(PID.TID 0000.0001) %MON extforcing_qsw_mean          =   0.0000000000000E+00
(PID.TID 0000.0001) %MON extforcing_qsw_sd            =   0.0000000000000E+00
(PID.TID 0000.0001) %MON extforcing_qsw_del2          =   0.0000000000000E+00
(PID.TID 0000.0001) %MON extforcing_empmr_max         =   0.0000000000000E+00
(PID.TID 0000.0001) %MON extforcing_empmr_min         =   0.0000000000000E+00
(PID.TID 0000.0001) %MON extforcing_empmr_mean        =   0.0000000000000E+00
(PID.TID 0000.0001) %MON extforcing_empmr_sd          =   0.0000000000000E+00
(PID.TID 0000.0001) %MON extforcing_empmr_del2        =   0.0000000000000E+00
(PID.TID 0000.0001) %MON advcfl_uvel_max              =   5.2402160355330E-05
(PID.TID 0000.0001) %MON advcfl_vvel_max              =   4.5398575296810E-05
(PID.TID 0000.0001) %MON advcfl_wvel_max              =   6.2090365586554E-05
(PID.TID 0000.0001) %MON advcfl_W_hf_max              =   8.1990185489477E-05
(PID.TID 0000.0001) %MON pe_b_mean                    =  -2.2807954833952E-08
(PID.TID 0000.0001) %MON ke_max                       =   3.7189002996822E-08
(PID.TID 0000.0001) %MON ke_mean                      =   2.4471216973285E-10
(PID.TID 0000.0001) %MON ke_vol                       =   2.9241705273104E+14
(PID.TID 0000.0001) %MON vort_r_min                   =  -4.7475263116285E-08
(PID.TID 0000.0001) %MON vort_r_max                   =   4.6930022608139E-08
(PID.TID 0000.0001) %MON vort_a_mean                  =  -1.4007437267494E-04
(PID.TID 0000.0001) %MON vort_a_sd                    =   1.7682765412371E-06
(PID.TID 0000.0001) %MON vort_p_mean                  =  -1.5039772183765E-04
(PID.TID 0000.0001) %MON vort_p_sd                    =   8.7079351335378E-05
(PID.TID 0000.0001) %MON surfExpan_theta_mean         =  -1.0639054727376E-11
(PID.TID 0000.0001) %MON surfExpan_salt_mean          =  -4.2279603486386E-12
(PID.TID 0000.0001) // =======================================================
(PID.TID 0000.0001) // End MONITOR dynamic field statistics
(PID.TID 0000.0001) // =======================================================
 cg2d: Sum(rhs),rhsMax =   2.44249065417534E-14  3.68821139894024E-04
(PID.TID 0000.0001)                    cg2d_init_res =    4.46803913544774E+00
(PID.TID 0000.0001)                       cg2d_iters =   206
(PID.TID 0000.0001)                         cg2d_res =    9.97981005462479E-14
(PID.TID 0000.0001) // =======================================================
(PID.TID 0000.0001) // Begin MONITOR dynamic field statistics
(PID.TID 0000.0001) // =======================================================
(PID.TID 0000.0001) %MON time_tsnumber                =                     8
(PID.TID 0000.0001) %MON time_secondsf                =   1.4400000000000E+04
(PID.TID 0000.0001) %MON dynstat_eta_max              =   1.3146927229492E-04
(PID.TID 0000.0001) %MON dynstat_eta_min              =  -3.5742706356782E-05
(PID.TID 0000.0001) %MON dynstat_eta_mean             =   3.0877556525356E-20
(PID.TID 0000.0001) %MON dynstat_eta_sd               =   3.1560862782183E-05
(PID.TID 0000.0001) %MON dynstat_eta_del2             =   9.9643582970434E-06
(PID.TID 0000.0001) %MON dynstat_uvel_max             =   3.8399976939684E-05
(PID.TID 0000.0001) %MON dynstat_uvel_min             =  -2.5278261458290E-04
(PID.TID 0000.0001) %MON dynstat_uvel_mean            =  -7.3954050839298E-09
(PID.TID 0000.0001) %MON dynstat_uvel_sd              =   1.8062009288019E-05
(PID.TID 0000.0001) %MON dynstat_uvel_del2            =   7.8296708874822E-07
(PID.TID 0000.0001) %MON dynstat_vvel_max             =   3.3275673551492E-04
(PID.TID 0000.0001) %MON dynstat_vvel_min             =  -4.9348897428292E-05
(PID.TID 0000.0001) %MON dynstat_vvel_mean            =  -1.1517934521248E-06
(PID.TID 0000.0001) %MON dynstat_vvel_sd              =   2.1789942292240E-05
(PID.TID 0000.0001) %MON dynstat_vvel_del2            =   1.1049359514627E-06
(PID.TID 0000.0001) %MON dynstat_wvel_max             =   1.4075682674396E-06
(PID.TID 0000.0001) %MON dynstat_wvel_min             =  -1.3891695665807E-06
(PID.TID 0000.0001) %MON dynstat_wvel_mean            =  -4.7223718760754E-10
(PID.TID 0000.0001) %MON dynstat_wvel_sd              =   6.5967743571257E-08
(PID.TID 0000.0001) %MON dynstat_wvel_del2            =   2.0257380134386E-08
(PID.TID 0000.0001) %MON dynstat_theta_max            =  -1.9000000000000E+00
(PID.TID 0000.0001) %MON dynstat_theta_min            =  -1.9247897946096E+00
(PID.TID 0000.0001) %MON dynstat_theta_mean           =  -1.9004533807747E+00
(PID.TID 0000.0001) %MON dynstat_theta_sd             =   2.0624750820836E-03
(PID.TID 0000.0001) %MON dynstat_theta_del2           =   2.7412360244586E-05
(PID.TID 0000.0001) %MON dynstat_salt_max             =   3.4400000000000E+01
(PID.TID 0000.0001) %MON dynstat_salt_min             =   3.4390148535622E+01
(PID.TID 0000.0001) %MON dynstat_salt_mean            =   3.4399819826482E+01
(PID.TID 0000.0001) %MON dynstat_salt_sd              =   8.1962759762025E-04
(PID.TID 0000.0001) %MON dynstat_salt_del2            =   1.0893671961265E-05
(PID.TID 0000.0001) %MON extforcing_qnet_max          =   0.0000000000000E+00
(PID.TID 0000.0001) %MON extforcing_qnet_min          =   0.0000000000000E+00
(PID.TID 0000.0001) %MON extforcing_qnet_mean         =   0.0000000000000E+00
(PID.TID 0000.0001) %MON extforcing_qnet_sd           =   0.0000000000000E+00
(PID.TID 0000.0001) %MON extforcing_qnet_del2         =   0.0000000000000E+00
(PID.TID 0000.0001) %MON extforcing_qsw_max           =   0.0000000000000E+00
(PID.TID 0000.0001) %MON extforcing_qsw_min           =   0.0000000000000E+00
(PID.TID 0000.0001) %MON extforcing_qsw_mean          =   0.0000000000000E+00
(PID.TID 0000.0001) %MON extforcing_qsw_sd            =   0.0000000000000E+00
(PID.TID 0000.0001) %MON extforcing_qsw_del2          =   0.0000000000000E+00
(PID.TID 0000.0001) %MON extforcing_empmr_max         =   0.0000000000000E+00
(PID.TID 0000.0001) %MON extforcing_empmr_min         =   0.0000000000000E+00
(PID.TID 0000.0001) %MON extforcing_empmr_mean        =   0.0000000000000E+00
(PID.TID 0000.0001) %MON extforcing_empmr_sd          =   0.0000000000000E+00
(PID.TID 0000.0001) %MON extforcing_empmr_del2        =   0.0000000000000E+00
(PID.TID 0000.0001) %MON advcfl_uvel_max              =   7.5213962506012E-05
(PID.TID 0000.0001) %MON advcfl_vvel_max              =   5.3874414111775E-05
(PID.TID 0000.0001) %MON advcfl_wvel_max              =   8.4454096046378E-05
(PID.TID 0000.0001) %MON advcfl_W_hf_max              =   1.0854527366597E-04
(PID.TID 0000.0001) %MON pe_b_mean                    =  -2.7885858757956E-08
(PID.TID 0000.0001) %MON ke_max                       =   6.2715975896310E-08
(PID.TID 0000.0001) %MON ke_mean                      =   3.9505426382200E-10
(PID.TID 0000.0001) %MON ke_vol                       =   2.9241705273104E+14
(PID.TID 0000.0001) %MON vort_r_min                   =  -5.6334426557746E-08
(PID.TID 0000.0001) %MON vort_r_max                   =   5.5960997003914E-08
(PID.TID 0000.0001) %MON vort_a_mean                  =  -1.4007437261363E-04
(PID.TID 0000.0001) %MON vort_a_sd                    =   1.7682763875347E-06
(PID.TID 0000.0001) %MON vort_p_mean                  =  -1.5039772177182E-04
(PID.TID 0000.0001) %MON vort_p_sd                    =   8.7078540776214E-05
(PID.TID 0000.0001) %MON surfExpan_theta_mean         =  -1.1402515712440E-11
(PID.TID 0000.0001) %MON surfExpan_salt_mean          =  -4.5313597440826E-12
(PID.TID 0000.0001) // =======================================================
(PID.TID 0000.0001) // End MONITOR dynamic field statistics
(PID.TID 0000.0001) // =======================================================
 cg2d: Sum(rhs),rhsMax =  -2.22044604925031E-14  4.16629389446708E-04
(PID.TID 0000.0001)                    cg2d_init_res =    3.93320560422216E+00
(PID.TID 0000.0001)                       cg2d_iters =   206
(PID.TID 0000.0001)                         cg2d_res =    8.47053293643215E-14
(PID.TID 0000.0001) // =======================================================
(PID.TID 0000.0001) // Begin MONITOR dynamic field statistics
(PID.TID 0000.0001) // =======================================================
(PID.TID 0000.0001) %MON time_tsnumber                =                     9
(PID.TID 0000.0001) %MON time_secondsf                =   1.6200000000000E+04
(PID.TID 0000.0001) %MON dynstat_eta_max              =   1.5088775112298E-04
(PID.TID 0000.0001) %MON dynstat_eta_min              =  -4.0645195250189E-05
(PID.TID 0000.0001) %MON dynstat_eta_mean             =   1.7035893255369E-20
(PID.TID 0000.0001) %MON dynstat_eta_sd               =   3.6182668499561E-05
(PID.TID 0000.0001) %MON dynstat_eta_del2             =   1.1239689947892E-05
(PID.TID 0000.0001) %MON dynstat_uvel_max             =   5.2342422054124E-05
(PID.TID 0000.0001) %MON dynstat_uvel_min             =  -3.4134818371839E-04
(PID.TID 0000.0001) %MON dynstat_uvel_mean            =  -2.6364995346566E-08
(PID.TID 0000.0001) %MON dynstat_uvel_sd              =   2.4302727605711E-05
(PID.TID 0000.0001) %MON dynstat_uvel_del2            =   1.1182465791501E-06
(PID.TID 0000.0001) %MON dynstat_vvel_max             =   3.7807210482553E-04
(PID.TID 0000.0001) %MON dynstat_vvel_min             =  -5.8680135470088E-05
(PID.TID 0000.0001) %MON dynstat_vvel_mean            =  -1.0520489852078E-06
(PID.TID 0000.0001) %MON dynstat_vvel_sd              =   2.4800006101093E-05
(PID.TID 0000.0001) %MON dynstat_vvel_del2            =   1.2559494084332E-06
(PID.TID 0000.0001) %MON dynstat_wvel_max             =   1.8240468582064E-06
(PID.TID 0000.0001) %MON dynstat_wvel_min             =  -1.7846126925440E-06
(PID.TID 0000.0001) %MON dynstat_wvel_mean            =  -4.1672848373164E-10
(PID.TID 0000.0001) %MON dynstat_wvel_sd              =   7.9497242076332E-08
(PID.TID 0000.0001) %MON dynstat_wvel_del2            =   2.3214509280118E-08
(PID.TID 0000.0001) %MON dynstat_theta_max            =  -1.9000000000000E+00
(PID.TID 0000.0001) %MON dynstat_theta_min            =  -1.9278180337778E+00
(PID.TID 0000.0001) %MON dynstat_theta_mean           =  -1.9005087811039E+00
(PID.TID 0000.0001) %MON dynstat_theta_sd             =   2.3140334671554E-03
(PID.TID 0000.0001) %MON dynstat_theta_del2           =   3.0728990776702E-05
(PID.TID 0000.0001) %MON dynstat_salt_max             =   3.4400000000000E+01
(PID.TID 0000.0001) %MON dynstat_salt_min             =   3.4388945113377E+01
(PID.TID 0000.0001) %MON dynstat_salt_mean            =   3.4399797810392E+01
(PID.TID 0000.0001) %MON dynstat_salt_sd              =   9.1959689984788E-04
(PID.TID 0000.0001) %MON dynstat_salt_del2            =   1.2211700934767E-05
(PID.TID 0000.0001) %MON extforcing_qnet_max          =   0.0000000000000E+00
(PID.TID 0000.0001) %MON extforcing_qnet_min          =   0.0000000000000E+00
(PID.TID 0000.0001) %MON extforcing_qnet_mean         =   0.0000000000000E+00
(PID.TID 0000.0001) %MON extforcing_qnet_sd           =   0.0000000000000E+00
(PID.TID 0000.0001) %MON extforcing_qnet_del2         =   0.0000000000000E+00
(PID.TID 0000.0001) %MON extforcing_qsw_max           =   0.0000000000000E+00
(PID.TID 0000.0001) %MON extforcing_qsw_min           =   0.0000000000000E+00
(PID.TID 0000.0001) %MON extforcing_qsw_mean          =   0.0000000000000E+00
(PID.TID 0000.0001) %MON extforcing_qsw_sd            =   0.0000000000000E+00
(PID.TID 0000.0001) %MON extforcing_qsw_del2          =   0.0000000000000E+00
(PID.TID 0000.0001) %MON extforcing_empmr_max         =   0.0000000000000E+00
(PID.TID 0000.0001) %MON extforcing_empmr_min         =   0.0000000000000E+00
(PID.TID 0000.0001) %MON extforcing_empmr_mean        =   0.0000000000000E+00
(PID.TID 0000.0001) %MON extforcing_empmr_sd          =   0.0000000000000E+00
(PID.TID 0000.0001) %MON extforcing_empmr_del2        =   0.0000000000000E+00
(PID.TID 0000.0001) %MON advcfl_uvel_max              =   1.0156612049469E-04
(PID.TID 0000.0001) %MON advcfl_vvel_max              =   6.1211122016696E-05
(PID.TID 0000.0001) %MON advcfl_wvel_max              =   1.0944281149239E-04
(PID.TID 0000.0001) %MON advcfl_W_hf_max              =   1.3731270280353E-04
(PID.TID 0000.0001) %MON pe_b_mean                    =  -3.2484090732782E-08
(PID.TID 0000.0001) %MON ke_max                       =   9.8037998436530E-08
(PID.TID 0000.0001) %MON ke_mean                      =   5.9373628044974E-10
(PID.TID 0000.0001) %MON ke_vol                       =   2.9241705273104E+14
(PID.TID 0000.0001) %MON vort_r_min                   =  -6.3914811385683E-08
(PID.TID 0000.0001) %MON vort_r_max                   =   6.3713332205458E-08
(PID.TID 0000.0001) %MON vort_a_mean                  =  -1.4007437255186E-04
(PID.TID 0000.0001) %MON vort_a_sd                    =   1.7682762303650E-06
(PID.TID 0000.0001) %MON vort_p_mean                  =  -1.5039772170550E-04
(PID.TID 0000.0001) %MON vort_p_sd                    =   8.7077602027183E-05
(PID.TID 0000.0001) %MON surfExpan_theta_mean         =  -1.1312022183516E-11
(PID.TID 0000.0001) %MON surfExpan_salt_mean          =  -4.4953976157420E-12
(PID.TID 0000.0001) // =======================================================
(PID.TID 0000.0001) // End MONITOR dynamic field statistics
(PID.TID 0000.0001) // =======================================================
 cg2d: Sum(rhs),rhsMax =  -9.76996261670138E-15  4.64281993995172E-04
(PID.TID 0000.0001)                    cg2d_init_res =    3.50971647145081E+00
(PID.TID 0000.0001)                       cg2d_iters =   205
(PID.TID 0000.0001)                         cg2d_res =    9.70895080275801E-14
(PID.TID 0000.0001) // =======================================================
(PID.TID 0000.0001) // Begin MONITOR dynamic field statistics
(PID.TID 0000.0001) // =======================================================
(PID.TID 0000.0001) %MON time_tsnumber                =                    10
(PID.TID 0000.0001) %MON time_secondsf                =   1.8000000000000E+04
(PID.TID 0000.0001) %MON dynstat_eta_max              =   1.6869926328684E-04
(PID.TID 0000.0001) %MON dynstat_eta_min              =  -4.6953949816909E-05
(PID.TID 0000.0001) %MON dynstat_eta_mean             =  -6.8143573021474E-20
(PID.TID 0000.0001) %MON dynstat_eta_sd               =   4.0344276030604E-05
(PID.TID 0000.0001) %MON dynstat_eta_del2             =   1.2506990733364E-05
(PID.TID 0000.0001) %MON dynstat_uvel_max             =   6.7789527452630E-05
(PID.TID 0000.0001) %MON dynstat_uvel_min             =  -4.3930615450187E-04
(PID.TID 0000.0001) %MON dynstat_uvel_mean            =  -4.0380065498825E-08
(PID.TID 0000.0001) %MON dynstat_uvel_sd              =   3.1252883509296E-05
(PID.TID 0000.0001) %MON dynstat_uvel_del2            =   1.4820071236462E-06
(PID.TID 0000.0001) %MON dynstat_vvel_max             =   4.1322750910768E-04
(PID.TID 0000.0001) %MON dynstat_vvel_min             =  -6.6887736821269E-05
(PID.TID 0000.0001) %MON dynstat_vvel_mean            =  -8.7956894004623E-07
(PID.TID 0000.0001) %MON dynstat_vvel_sd              =   2.7113867213558E-05
(PID.TID 0000.0001) %MON dynstat_vvel_del2            =   1.3738361065925E-06
(PID.TID 0000.0001) %MON dynstat_wvel_max             =   2.2719116137394E-06
(PID.TID 0000.0001) %MON dynstat_wvel_min             =  -2.2071471560835E-06
(PID.TID 0000.0001) %MON dynstat_wvel_mean            =  -3.4449628151673E-10
(PID.TID 0000.0001) %MON dynstat_wvel_sd              =   9.3131347644422E-08
(PID.TID 0000.0001) %MON dynstat_wvel_del2            =   2.5676460108452E-08
(PID.TID 0000.0001) %MON dynstat_theta_max            =  -1.9000000000000E+00
(PID.TID 0000.0001) %MON dynstat_theta_min            =  -1.9308311836853E+00
(PID.TID 0000.0001) %MON dynstat_theta_mean           =  -1.9005639082891E+00
(PID.TID 0000.0001) %MON dynstat_theta_sd             =   2.5642513407136E-03
(PID.TID 0000.0001) %MON dynstat_theta_del2           =   3.4022170011223E-05
(PID.TID 0000.0001) %MON dynstat_salt_max             =   3.4400000000000E+01
(PID.TID 0000.0001) %MON dynstat_salt_min             =   3.4387747687603E+01
(PID.TID 0000.0001) %MON dynstat_salt_mean            =   3.4399775902848E+01
(PID.TID 0000.0001) %MON dynstat_salt_sd              =   1.0190334827997E-03
(PID.TID 0000.0001) %MON dynstat_salt_del2            =   1.3520410362580E-05
(PID.TID 0000.0001) %MON extforcing_qnet_max          =   0.0000000000000E+00
(PID.TID 0000.0001) %MON extforcing_qnet_min          =   0.0000000000000E+00
(PID.TID 0000.0001) %MON extforcing_qnet_mean         =   0.0000000000000E+00
(PID.TID 0000.0001) %MON extforcing_qnet_sd           =   0.0000000000000E+00
(PID.TID 0000.0001) %MON extforcing_qnet_del2         =   0.0000000000000E+00
(PID.TID 0000.0001) %MON extforcing_qsw_max           =   0.0000000000000E+00
(PID.TID 0000.0001) %MON extforcing_qsw_min           =   0.0000000000000E+00
(PID.TID 0000.0001) %MON extforcing_qsw_mean          =   0.0000000000000E+00
(PID.TID 0000.0001) %MON extforcing_qsw_sd            =   0.0000000000000E+00
(PID.TID 0000.0001) %MON extforcing_qsw_del2          =   0.0000000000000E+00
(PID.TID 0000.0001) %MON extforcing_empmr_max         =   0.0000000000000E+00
(PID.TID 0000.0001) %MON extforcing_empmr_min         =   0.0000000000000E+00
(PID.TID 0000.0001) %MON extforcing_empmr_mean        =   0.0000000000000E+00
(PID.TID 0000.0001) %MON extforcing_empmr_sd          =   0.0000000000000E+00
(PID.TID 0000.0001) %MON extforcing_empmr_del2        =   0.0000000000000E+00
(PID.TID 0000.0001) %MON advcfl_uvel_max              =   1.3071293169383E-04
(PID.TID 0000.0001) %MON advcfl_vvel_max              =   6.6902898039299E-05
(PID.TID 0000.0001) %MON advcfl_wvel_max              =   1.3631469682436E-04
(PID.TID 0000.0001) %MON advcfl_W_hf_max              =   1.6733608791442E-04
(PID.TID 0000.0001) %MON pe_b_mean                    =  -3.6387593277354E-08
(PID.TID 0000.0001) %MON ke_max                       =   1.4394322455233E-07
(PID.TID 0000.0001) %MON ke_mean                      =   8.4204679814749E-10
(PID.TID 0000.0001) %MON ke_vol                       =   2.9241705273104E+14
(PID.TID 0000.0001) %MON vort_r_min                   =  -6.9772568564569E-08
(PID.TID 0000.0001) %MON vort_r_max                   =   6.9723718209023E-08
(PID.TID 0000.0001) %MON vort_a_mean                  =  -1.4007437250285E-04
(PID.TID 0000.0001) %MON vort_a_sd                    =   1.7682760476717E-06
(PID.TID 0000.0001) %MON vort_p_mean                  =  -1.5039772165288E-04
(PID.TID 0000.0001) %MON vort_p_sd                    =   8.7076560625646E-05
(PID.TID 0000.0001) %MON surfExpan_theta_mean         =  -1.0407572817592E-11
(PID.TID 0000.0001) %MON surfExpan_salt_mean          =  -4.1359694377084E-12
(PID.TID 0000.0001) // =======================================================
(PID.TID 0000.0001) // End MONITOR dynamic field statistics
(PID.TID 0000.0001) // =======================================================
 cg2d: Sum(rhs),rhsMax =  -4.52970994047064E-14  5.11783757516785E-04
(PID.TID 0000.0001)                    cg2d_init_res =    3.16609894069360E+00
(PID.TID 0000.0001)                       cg2d_iters =   203
(PID.TID 0000.0001)                         cg2d_res =    9.87102667798126E-14
(PID.TID 0000.0001) // =======================================================
(PID.TID 0000.0001) // Begin MONITOR dynamic field statistics
(PID.TID 0000.0001) // =======================================================
(PID.TID 0000.0001) %MON time_tsnumber                =                    11
(PID.TID 0000.0001) %MON time_secondsf                =   1.9800000000000E+04
(PID.TID 0000.0001) %MON dynstat_eta_max              =   1.8462974992893E-04
(PID.TID 0000.0001) %MON dynstat_eta_min              =  -5.4325037227727E-05
(PID.TID 0000.0001) %MON dynstat_eta_mean             =  -2.3424353226132E-20
(PID.TID 0000.0001) %MON dynstat_eta_sd               =   4.3959184144630E-05
(PID.TID 0000.0001) %MON dynstat_eta_del2             =   1.3766448198941E-05
(PID.TID 0000.0001) %MON dynstat_uvel_max             =   8.4237490100723E-05
(PID.TID 0000.0001) %MON dynstat_uvel_min             =  -5.4356511997949E-04
(PID.TID 0000.0001) %MON dynstat_uvel_mean            =  -4.5780462966090E-08
(PID.TID 0000.0001) %MON dynstat_uvel_sd              =   3.8701511987683E-05
(PID.TID 0000.0001) %MON dynstat_uvel_del2            =   1.8581438631669E-06
(PID.TID 0000.0001) %MON dynstat_vvel_max             =   4.3637670143684E-04
(PID.TID 0000.0001) %MON dynstat_vvel_min             =  -7.3504630434379E-05
(PID.TID 0000.0001) %MON dynstat_vvel_mean            =  -6.6321926282371E-07
(PID.TID 0000.0001) %MON dynstat_vvel_sd              =   2.8584409768374E-05
(PID.TID 0000.0001) %MON dynstat_vvel_del2            =   1.4531145142856E-06
(PID.TID 0000.0001) %MON dynstat_wvel_max             =   2.7370520148434E-06
(PID.TID 0000.0001) %MON dynstat_wvel_min             =  -2.6435078177081E-06
(PID.TID 0000.0001) %MON dynstat_wvel_mean            =  -2.6454055534693E-10
(PID.TID 0000.0001) %MON dynstat_wvel_sd              =   1.0661064251237E-07
(PID.TID 0000.0001) %MON dynstat_wvel_del2            =   2.7562559085046E-08
(PID.TID 0000.0001) %MON dynstat_theta_max            =  -1.9000000000000E+00
(PID.TID 0000.0001) %MON dynstat_theta_min            =  -1.9338293464332E+00
(PID.TID 0000.0001) %MON dynstat_theta_mean           =  -1.9006187637460E+00
(PID.TID 0000.0001) %MON dynstat_theta_sd             =   2.8131360836164E-03
(PID.TID 0000.0001) %MON dynstat_theta_del2           =   3.7292058640498E-05
(PID.TID 0000.0001) %MON dynstat_salt_max             =   3.4400000000000E+01
(PID.TID 0000.0001) %MON dynstat_salt_min             =   3.4386556217727E+01
(PID.TID 0000.0001) %MON dynstat_salt_mean            =   3.4399754103290E+01
(PID.TID 0000.0001) %MON dynstat_salt_sd              =   1.1179402796294E-03
(PID.TID 0000.0001) %MON dynstat_salt_del2            =   1.4819864103833E-05
(PID.TID 0000.0001) %MON extforcing_qnet_max          =   0.0000000000000E+00
(PID.TID 0000.0001) %MON extforcing_qnet_min          =   0.0000000000000E+00
(PID.TID 0000.0001) %MON extforcing_qnet_mean         =   0.0000000000000E+00
(PID.TID 0000.0001) %MON extforcing_qnet_sd           =   0.0000000000000E+00
(PID.TID 0000.0001) %MON extforcing_qnet_del2         =   0.0000000000000E+00
(PID.TID 0000.0001) %MON extforcing_qsw_max           =   0.0000000000000E+00
(PID.TID 0000.0001) %MON extforcing_qsw_min           =   0.0000000000000E+00
(PID.TID 0000.0001) %MON extforcing_qsw_mean          =   0.0000000000000E+00
(PID.TID 0000.0001) %MON extforcing_qsw_sd            =   0.0000000000000E+00
(PID.TID 0000.0001) %MON extforcing_qsw_del2          =   0.0000000000000E+00
(PID.TID 0000.0001) %MON extforcing_empmr_max         =   0.0000000000000E+00
(PID.TID 0000.0001) %MON extforcing_empmr_min         =   0.0000000000000E+00
(PID.TID 0000.0001) %MON extforcing_empmr_mean        =   0.0000000000000E+00
(PID.TID 0000.0001) %MON extforcing_empmr_sd          =   0.0000000000000E+00
(PID.TID 0000.0001) %MON extforcing_empmr_del2        =   0.0000000000000E+00
(PID.TID 0000.0001) %MON advcfl_uvel_max              =   1.6173456636316E-04
(PID.TID 0000.0001) %MON advcfl_vvel_max              =   7.0650828706921E-05
(PID.TID 0000.0001) %MON advcfl_wvel_max              =   1.6422312089060E-04
(PID.TID 0000.0001) %MON advcfl_W_hf_max              =   1.9760316830447E-04
(PID.TID 0000.0001) %MON pe_b_mean                    =  -3.9480215696547E-08
(PID.TID 0000.0001) %MON ke_max                       =   2.0035681811508E-07
(PID.TID 0000.0001) %MON ke_mean                      =   1.1375691326447E-09
(PID.TID 0000.0001) %MON ke_vol                       =   2.9241705273104E+14
(PID.TID 0000.0001) %MON vort_r_min                   =  -7.3590332409680E-08
(PID.TID 0000.0001) %MON vort_r_max                   =   7.3658973686890E-08
(PID.TID 0000.0001) %MON vort_a_mean                  =  -1.4007437247741E-04
(PID.TID 0000.0001) %MON vort_a_sd                    =   1.7682758229766E-06
(PID.TID 0000.0001) %MON vort_p_mean                  =  -1.5039772162557E-04
(PID.TID 0000.0001) %MON vort_p_sd                    =   8.7075448597118E-05
(PID.TID 0000.0001) %MON surfExpan_theta_mean         =  -8.8396921261774E-12
(PID.TID 0000.0001) %MON surfExpan_salt_mean          =  -3.5128936509555E-12
(PID.TID 0000.0001) // =======================================================
(PID.TID 0000.0001) // End MONITOR dynamic field statistics
(PID.TID 0000.0001) // =======================================================
 cg2d: Sum(rhs),rhsMax =   3.86357612569554E-14  5.59135636028284E-04
(PID.TID 0000.0001)                    cg2d_init_res =    2.88175382813076E+00
(PID.TID 0000.0001)                       cg2d_iters =   202
(PID.TID 0000.0001)                         cg2d_res =    8.90038943316716E-14
(PID.TID 0000.0001) // =======================================================
(PID.TID 0000.0001) // Begin MONITOR dynamic field statistics
(PID.TID 0000.0001) // =======================================================
(PID.TID 0000.0001) %MON time_tsnumber                =                    12
(PID.TID 0000.0001) %MON time_secondsf                =   2.1600000000000E+04
(PID.TID 0000.0001) %MON dynstat_eta_max              =   1.9862691673503E-04
(PID.TID 0000.0001) %MON dynstat_eta_min              =  -6.2623348129855E-05
(PID.TID 0000.0001) %MON dynstat_eta_mean             =   1.2776919941526E-20
(PID.TID 0000.0001) %MON dynstat_eta_sd               =   4.7026351863961E-05
(PID.TID 0000.0001) %MON dynstat_eta_del2             =   1.5018114637450E-05
(PID.TID 0000.0001) %MON dynstat_uvel_max             =   1.0115258356531E-04
(PID.TID 0000.0001) %MON dynstat_uvel_min             =  -6.5065618615963E-04
(PID.TID 0000.0001) %MON dynstat_uvel_mean            =  -4.0763169242898E-08
(PID.TID 0000.0001) %MON dynstat_uvel_sd              =   4.6406675136229E-05
(PID.TID 0000.0001) %MON dynstat_uvel_del2            =   2.2302716766866E-06
(PID.TID 0000.0001) %MON dynstat_vvel_max             =   4.4659766167268E-04
(PID.TID 0000.0001) %MON dynstat_vvel_min             =  -7.8170547491724E-05
(PID.TID 0000.0001) %MON dynstat_vvel_mean            =  -4.3624667888036E-07
(PID.TID 0000.0001) %MON dynstat_vvel_sd              =   2.9121546467174E-05
(PID.TID 0000.0001) %MON dynstat_vvel_del2            =   1.4899811331434E-06
(PID.TID 0000.0001) %MON dynstat_wvel_max             =   3.2046402379610E-06
(PID.TID 0000.0001) %MON dynstat_wvel_min             =  -3.0798574770276E-06
(PID.TID 0000.0001) %MON dynstat_wvel_mean            =  -1.8595528639370E-10
(PID.TID 0000.0001) %MON dynstat_wvel_sd              =   1.1970263722662E-07
(PID.TID 0000.0001) %MON dynstat_wvel_del2            =   2.8809729264225E-08
(PID.TID 0000.0001) %MON dynstat_theta_max            =  -1.9000000000000E+00
(PID.TID 0000.0001) %MON dynstat_theta_min            =  -1.9368126259645E+00
(PID.TID 0000.0001) %MON dynstat_theta_mean           =  -1.9006733488825E+00
(PID.TID 0000.0001) %MON dynstat_theta_sd             =   3.0606950306856E-03
(PID.TID 0000.0001) %MON dynstat_theta_del2           =   4.0538815181017E-05
(PID.TID 0000.0001) %MON dynstat_salt_max             =   3.4400000000000E+01
(PID.TID 0000.0001) %MON dynstat_salt_min             =   3.4385370662442E+01
(PID.TID 0000.0001) %MON dynstat_salt_mean            =   3.4399732411156E+01
(PID.TID 0000.0001) %MON dynstat_salt_sd              =   1.2163202051948E-03
(PID.TID 0000.0001) %MON dynstat_salt_del2            =   1.6110125153040E-05
(PID.TID 0000.0001) %MON extforcing_qnet_max          =   0.0000000000000E+00
(PID.TID 0000.0001) %MON extforcing_qnet_min          =   0.0000000000000E+00
(PID.TID 0000.0001) %MON extforcing_qnet_mean         =   0.0000000000000E+00
(PID.TID 0000.0001) %MON extforcing_qnet_sd           =   0.0000000000000E+00
(PID.TID 0000.0001) %MON extforcing_qnet_del2         =   0.0000000000000E+00
(PID.TID 0000.0001) %MON extforcing_qsw_max           =   0.0000000000000E+00
(PID.TID 0000.0001) %MON extforcing_qsw_min           =   0.0000000000000E+00
(PID.TID 0000.0001) %MON extforcing_qsw_mean          =   0.0000000000000E+00
(PID.TID 0000.0001) %MON extforcing_qsw_sd            =   0.0000000000000E+00
(PID.TID 0000.0001) %MON extforcing_qsw_del2          =   0.0000000000000E+00
(PID.TID 0000.0001) %MON extforcing_empmr_max         =   0.0000000000000E+00
(PID.TID 0000.0001) %MON extforcing_empmr_min         =   0.0000000000000E+00
(PID.TID 0000.0001) %MON extforcing_empmr_mean        =   0.0000000000000E+00
(PID.TID 0000.0001) %MON extforcing_empmr_sd          =   0.0000000000000E+00
(PID.TID 0000.0001) %MON extforcing_empmr_del2        =   0.0000000000000E+00
(PID.TID 0000.0001) %MON advcfl_uvel_max              =   1.9359887574098E-04
(PID.TID 0000.0001) %MON advcfl_vvel_max              =   7.2305635914696E-05
(PID.TID 0000.0001) %MON advcfl_wvel_max              =   1.9227841427766E-04
(PID.TID 0000.0001) %MON advcfl_W_hf_max              =   2.2712224601014E-04
(PID.TID 0000.0001) %MON pe_b_mean                    =  -4.1751848586430E-08
(PID.TID 0000.0001) %MON ke_max                       =   2.6619684484980E-07
(PID.TID 0000.0001) %MON ke_mean                      =   1.4739561069436E-09
(PID.TID 0000.0001) %MON ke_vol                       =   2.9241705273104E+14
(PID.TID 0000.0001) %MON vort_r_min                   =  -7.5194492194572E-08
(PID.TID 0000.0001) %MON vort_r_max                   =   7.5333918620449E-08
(PID.TID 0000.0001) %MON vort_a_mean                  =  -1.4007437248095E-04
(PID.TID 0000.0001) %MON vort_a_sd                    =   1.7682755542213E-06
(PID.TID 0000.0001) %MON vort_p_mean                  =  -1.5039772162937E-04
(PID.TID 0000.0001) %MON vort_p_sd                    =   8.7074302387273E-05
(PID.TID 0000.0001) %MON surfExpan_theta_mean         =  -6.8645604554689E-12
(PID.TID 0000.0001) %MON surfExpan_salt_mean          =  -2.7279763249726E-12
(PID.TID 0000.0001) // =======================================================
(PID.TID 0000.0001) // End MONITOR dynamic field statistics
(PID.TID 0000.0001) // =======================================================
 cg2d: Sum(rhs),rhsMax =  -1.19904086659517E-14  6.06338241680002E-04
(PID.TID 0000.0001)                    cg2d_init_res =    2.64261518057939E+00
(PID.TID 0000.0001)                       cg2d_iters =   203
(PID.TID 0000.0001)                         cg2d_res =    7.45495740260473E-14
(PID.TID 0000.0001) // =======================================================
(PID.TID 0000.0001) // Begin MONITOR dynamic field statistics
(PID.TID 0000.0001) // =======================================================
(PID.TID 0000.0001) %MON time_tsnumber                =                    13
(PID.TID 0000.0001) %MON time_secondsf                =   2.3400000000000E+04
(PID.TID 0000.0001) %MON dynstat_eta_max              =   2.1082793497645E-04
(PID.TID 0000.0001) %MON dynstat_eta_min              =  -7.1678465755036E-05
(PID.TID 0000.0001) %MON dynstat_eta_mean             =   4.4719219795343E-20
(PID.TID 0000.0001) %MON dynstat_eta_sd               =   4.9626614555970E-05
(PID.TID 0000.0001) %MON dynstat_eta_del2             =   1.6262098011981E-05
(PID.TID 0000.0001) %MON dynstat_uvel_max             =   1.1803175335432E-04
(PID.TID 0000.0001) %MON dynstat_uvel_min             =  -7.5696235144531E-04
(PID.TID 0000.0001) %MON dynstat_uvel_mean            =  -2.5611425763288E-08
(PID.TID 0000.0001) %MON dynstat_uvel_sd              =   5.4111381109161E-05
(PID.TID 0000.0001) %MON dynstat_uvel_del2            =   2.5834491410247E-06
(PID.TID 0000.0001) %MON dynstat_vvel_max             =   4.4442707666723E-04
(PID.TID 0000.0001) %MON dynstat_vvel_min             =  -8.0651089750227E-05
(PID.TID 0000.0001) %MON dynstat_vvel_mean            =  -2.3105679103810E-07
(PID.TID 0000.0001) %MON dynstat_vvel_sd              =   2.8697771079785E-05
(PID.TID 0000.0001) %MON dynstat_vvel_del2            =   1.4833025525694E-06
(PID.TID 0000.0001) %MON dynstat_wvel_max             =   3.6601406111547E-06
(PID.TID 0000.0001) %MON dynstat_wvel_min             =  -3.5026922652273E-06
(PID.TID 0000.0001) %MON dynstat_wvel_mean            =  -1.1752320633883E-10
(PID.TID 0000.0001) %MON dynstat_wvel_sd              =   1.3220048869865E-07
(PID.TID 0000.0001) %MON dynstat_wvel_del2            =   2.9351187347573E-08
(PID.TID 0000.0001) %MON dynstat_theta_max            =  -1.9000000000000E+00
(PID.TID 0000.0001) %MON dynstat_theta_min            =  -1.9397811266238E+00
(PID.TID 0000.0001) %MON dynstat_theta_mean           =  -1.9007276650981E+00
(PID.TID 0000.0001) %MON dynstat_theta_sd             =   3.3069354693858E-03
(PID.TID 0000.0001) %MON dynstat_theta_del2           =   4.3762596228876E-05
(PID.TID 0000.0001) %MON dynstat_salt_max             =   3.4400000000000E+01
(PID.TID 0000.0001) %MON dynstat_salt_min             =   3.4384190980280E+01
(PID.TID 0000.0001) %MON dynstat_salt_mean            =   3.4399710825892E+01
(PID.TID 0000.0001) %MON dynstat_salt_sd              =   1.3141761555340E-03
(PID.TID 0000.0001) %MON dynstat_salt_del2            =   1.7391255741487E-05
(PID.TID 0000.0001) %MON extforcing_qnet_max          =   0.0000000000000E+00
(PID.TID 0000.0001) %MON extforcing_qnet_min          =   0.0000000000000E+00
(PID.TID 0000.0001) %MON extforcing_qnet_mean         =   0.0000000000000E+00
(PID.TID 0000.0001) %MON extforcing_qnet_sd           =   0.0000000000000E+00
(PID.TID 0000.0001) %MON extforcing_qnet_del2         =   0.0000000000000E+00
(PID.TID 0000.0001) %MON extforcing_qsw_max           =   0.0000000000000E+00
(PID.TID 0000.0001) %MON extforcing_qsw_min           =   0.0000000000000E+00
(PID.TID 0000.0001) %MON extforcing_qsw_mean          =   0.0000000000000E+00
(PID.TID 0000.0001) %MON extforcing_qsw_sd            =   0.0000000000000E+00
(PID.TID 0000.0001) %MON extforcing_qsw_del2          =   0.0000000000000E+00
(PID.TID 0000.0001) %MON extforcing_empmr_max         =   0.0000000000000E+00
(PID.TID 0000.0001) %MON extforcing_empmr_min         =   0.0000000000000E+00
(PID.TID 0000.0001) %MON extforcing_empmr_mean        =   0.0000000000000E+00
(PID.TID 0000.0001) %MON extforcing_empmr_sd          =   0.0000000000000E+00
(PID.TID 0000.0001) %MON extforcing_empmr_del2        =   0.0000000000000E+00
(PID.TID 0000.0001) %MON advcfl_uvel_max              =   2.2522964252907E-04
(PID.TID 0000.0001) %MON advcfl_vvel_max              =   7.1954211035894E-05
(PID.TID 0000.0001) %MON advcfl_wvel_max              =   2.1960843666928E-04
(PID.TID 0000.0001) %MON advcfl_W_hf_max              =   2.5499031939643E-04
(PID.TID 0000.0001) %MON pe_b_mean                    =  -4.3294871355093E-08
(PID.TID 0000.0001) %MON ke_max                       =   3.3936558679551E-07
(PID.TID 0000.0001) %MON ke_mean                      =   1.8411092071645E-09
(PID.TID 0000.0001) %MON ke_vol                       =   2.9241705273104E+14
(PID.TID 0000.0001) %MON vort_r_min                   =  -7.4562523870608E-08
(PID.TID 0000.0001) %MON vort_r_max                   =   7.4718966146715E-08
(PID.TID 0000.0001) %MON vort_a_mean                  =  -1.4007437251261E-04
(PID.TID 0000.0001) %MON vort_a_sd                    =   1.7682752569533E-06
(PID.TID 0000.0001) %MON vort_p_mean                  =  -1.5039772166336E-04
(PID.TID 0000.0001) %MON vort_p_sd                    =   8.7073160503069E-05
(PID.TID 0000.0001) %MON surfExpan_theta_mean         =  -4.8290662793587E-12
(PID.TID 0000.0001) %MON surfExpan_salt_mean          =  -1.9190709393974E-12
(PID.TID 0000.0001) // =======================================================
(PID.TID 0000.0001) // End MONITOR dynamic field statistics
(PID.TID 0000.0001) // =======================================================
 cg2d: Sum(rhs),rhsMax =  -3.46389583683049E-14  6.53391204318437E-04
(PID.TID 0000.0001)                    cg2d_init_res =    2.43875068669056E+00
(PID.TID 0000.0001)                       cg2d_iters =   202
(PID.TID 0000.0001)                         cg2d_res =    8.68658348027045E-14
(PID.TID 0000.0001) // =======================================================
(PID.TID 0000.0001) // Begin MONITOR dynamic field statistics
(PID.TID 0000.0001) // =======================================================
(PID.TID 0000.0001) %MON time_tsnumber                =                    14
(PID.TID 0000.0001) %MON time_secondsf                =   2.5200000000000E+04
(PID.TID 0000.0001) %MON dynstat_eta_max              =   2.2152572799738E-04
(PID.TID 0000.0001) %MON dynstat_eta_min              =  -8.1175474806908E-05
(PID.TID 0000.0001) %MON dynstat_eta_mean             =  -1.4906406598448E-20
(PID.TID 0000.0001) %MON dynstat_eta_sd               =   5.1902929692730E-05
(PID.TID 0000.0001) %MON dynstat_eta_del2             =   1.7498493494678E-05
(PID.TID 0000.0001) %MON dynstat_uvel_max             =   1.3418539526050E-04
(PID.TID 0000.0001) %MON dynstat_uvel_min             =  -8.5896454761014E-04
(PID.TID 0000.0001) %MON dynstat_uvel_mean            =  -2.4094930495232E-09
(PID.TID 0000.0001) %MON dynstat_uvel_sd              =   6.1560440508711E-05
(PID.TID 0000.0001) %MON dynstat_uvel_del2            =   2.9049555192167E-06
(PID.TID 0000.0001) %MON dynstat_vvel_max             =   4.3297539183364E-04
(PID.TID 0000.0001) %MON dynstat_vvel_min             =  -8.0877426250479E-05
(PID.TID 0000.0001) %MON dynstat_vvel_mean            =  -7.4793286100051E-08
(PID.TID 0000.0001) %MON dynstat_vvel_sd              =   2.7349637379274E-05
(PID.TID 0000.0001) %MON dynstat_vvel_del2            =   1.4350654266812E-06
(PID.TID 0000.0001) %MON dynstat_wvel_max             =   4.0902434392156E-06
(PID.TID 0000.0001) %MON dynstat_wvel_min             =  -3.8996943055069E-06
(PID.TID 0000.0001) %MON dynstat_wvel_mean            =  -6.7025825410000E-11
(PID.TID 0000.0001) %MON dynstat_wvel_sd              =   1.4392085925890E-07
(PID.TID 0000.0001) %MON dynstat_wvel_del2            =   2.9207230059993E-08
(PID.TID 0000.0001) %MON dynstat_theta_max            =  -1.9000000000000E+00
(PID.TID 0000.0001) %MON dynstat_theta_min            =  -1.9427349515711E+00
(PID.TID 0000.0001) %MON dynstat_theta_mean           =  -1.9007817137837E+00
(PID.TID 0000.0001) %MON dynstat_theta_sd             =   3.5518646387414E-03
(PID.TID 0000.0001) %MON dynstat_theta_del2           =   4.6963556471758E-05
(PID.TID 0000.0001) %MON dynstat_salt_max             =   3.4400000000000E+01
(PID.TID 0000.0001) %MON dynstat_salt_min             =   3.4383017130246E+01
(PID.TID 0000.0001) %MON dynstat_salt_mean            =   3.4399689346945E+01
(PID.TID 0000.0001) %MON dynstat_salt_sd              =   1.4115110074360E-03
(PID.TID 0000.0001) %MON dynstat_salt_del2            =   1.8663317342061E-05
(PID.TID 0000.0001) %MON extforcing_qnet_max          =   0.0000000000000E+00
(PID.TID 0000.0001) %MON extforcing_qnet_min          =   0.0000000000000E+00
(PID.TID 0000.0001) %MON extforcing_qnet_mean         =   0.0000000000000E+00
(PID.TID 0000.0001) %MON extforcing_qnet_sd           =   0.0000000000000E+00
(PID.TID 0000.0001) %MON extforcing_qnet_del2         =   0.0000000000000E+00
(PID.TID 0000.0001) %MON extforcing_qsw_max           =   0.0000000000000E+00
(PID.TID 0000.0001) %MON extforcing_qsw_min           =   0.0000000000000E+00
(PID.TID 0000.0001) %MON extforcing_qsw_mean          =   0.0000000000000E+00
(PID.TID 0000.0001) %MON extforcing_qsw_sd            =   0.0000000000000E+00
(PID.TID 0000.0001) %MON extforcing_qsw_del2          =   0.0000000000000E+00
(PID.TID 0000.0001) %MON extforcing_empmr_max         =   0.0000000000000E+00
(PID.TID 0000.0001) %MON extforcing_empmr_min         =   0.0000000000000E+00
(PID.TID 0000.0001) %MON extforcing_empmr_mean        =   0.0000000000000E+00
(PID.TID 0000.0001) %MON extforcing_empmr_sd          =   0.0000000000000E+00
(PID.TID 0000.0001) %MON extforcing_empmr_del2        =   0.0000000000000E+00
(PID.TID 0000.0001) %MON advcfl_uvel_max              =   2.5557978892078E-04
(PID.TID 0000.0001) %MON advcfl_vvel_max              =   7.0100145452376E-05
(PID.TID 0000.0001) %MON advcfl_wvel_max              =   2.4541460635294E-04
(PID.TID 0000.0001) %MON advcfl_W_hf_max              =   2.8044982744546E-04
(PID.TID 0000.0001) %MON pe_b_mean                    =  -4.4290039849116E-08
(PID.TID 0000.0001) %MON ke_max                       =   4.1689736762383E-07
(PID.TID 0000.0001) %MON ke_mean                      =   2.2257806476062E-09
(PID.TID 0000.0001) %MON ke_vol                       =   2.9241705273104E+14
(PID.TID 0000.0001) %MON vort_r_min                   =  -7.1820331682376E-08
(PID.TID 0000.0001) %MON vort_r_max                   =   7.1937306037421E-08
(PID.TID 0000.0001) %MON vort_a_mean                  =  -1.4007437256621E-04
(PID.TID 0000.0001) %MON vort_a_sd                    =   1.7682749572227E-06
(PID.TID 0000.0001) %MON vort_p_mean                  =  -1.5039772172091E-04
(PID.TID 0000.0001) %MON vort_p_sd                    =   8.7072061022593E-05
(PID.TID 0000.0001) %MON surfExpan_theta_mean         =  -3.1374920122334E-12
(PID.TID 0000.0001) %MON surfExpan_salt_mean          =  -1.2468393256636E-12
(PID.TID 0000.0001) // =======================================================
(PID.TID 0000.0001) // End MONITOR dynamic field statistics
(PID.TID 0000.0001) // =======================================================
 cg2d: Sum(rhs),rhsMax =   1.15463194561016E-14  7.00289029992488E-04
(PID.TID 0000.0001)                    cg2d_init_res =    2.26295802590469E+00
(PID.TID 0000.0001)                       cg2d_iters =   202
(PID.TID 0000.0001)                         cg2d_res =    9.15700963707416E-14
(PID.TID 0000.0001) // =======================================================
(PID.TID 0000.0001) // Begin MONITOR dynamic field statistics
(PID.TID 0000.0001) // =======================================================
(PID.TID 0000.0001) %MON time_tsnumber                =                    15
(PID.TID 0000.0001) %MON time_secondsf                =   2.7000000000000E+04
(PID.TID 0000.0001) %MON dynstat_eta_max              =   2.3113683024151E-04
(PID.TID 0000.0001) %MON dynstat_eta_min              =  -9.0617966647455E-05
(PID.TID 0000.0001) %MON dynstat_eta_mean             =   4.8978193109185E-20
(PID.TID 0000.0001) %MON dynstat_eta_sd               =   5.4030834500433E-05
(PID.TID 0000.0001) %MON dynstat_eta_del2             =   1.8727448288839E-05
(PID.TID 0000.0001) %MON dynstat_uvel_max             =   1.4908214373930E-04
(PID.TID 0000.0001) %MON dynstat_uvel_min             =  -9.5347514717229E-04
(PID.TID 0000.0001) %MON dynstat_uvel_mean            =   2.5573585139918E-08
(PID.TID 0000.0001) %MON dynstat_uvel_sd              =   6.8517098425070E-05
(PID.TID 0000.0001) %MON dynstat_uvel_del2            =   3.1857495838208E-06
(PID.TID 0000.0001) %MON dynstat_vvel_max             =   4.1029001861153E-04
(PID.TID 0000.0001) %MON dynstat_vvel_min             =  -7.9525105394709E-05
(PID.TID 0000.0001) %MON dynstat_vvel_mean            =   1.3814402884932E-08
(PID.TID 0000.0001) %MON dynstat_vvel_sd              =   2.5175167432465E-05
(PID.TID 0000.0001) %MON dynstat_vvel_del2            =   1.3507818574616E-06
(PID.TID 0000.0001) %MON dynstat_wvel_max             =   4.4836787873970E-06
(PID.TID 0000.0001) %MON dynstat_wvel_min             =  -4.2604841175563E-06
(PID.TID 0000.0001) %MON dynstat_wvel_mean            =  -4.0371318819818E-11
(PID.TID 0000.0001) %MON dynstat_wvel_sd              =   1.5470247459788E-07
(PID.TID 0000.0001) %MON dynstat_wvel_del2            =   2.8443004632162E-08
(PID.TID 0000.0001) %MON dynstat_theta_max            =  -1.9000000000000E+00
(PID.TID 0000.0001) %MON dynstat_theta_min            =  -1.9456742011785E+00
(PID.TID 0000.0001) %MON dynstat_theta_mean           =  -1.9008354963219E+00
(PID.TID 0000.0001) %MON dynstat_theta_sd             =   3.7954897289534E-03
(PID.TID 0000.0001) %MON dynstat_theta_del2           =   5.0141848712389E-05
(PID.TID 0000.0001) %MON dynstat_salt_max             =   3.4400000000000E+01
(PID.TID 0000.0001) %MON dynstat_salt_min             =   3.4381849072452E+01
(PID.TID 0000.0001) %MON dynstat_salt_mean            =   3.4399667973764E+01
(PID.TID 0000.0001) %MON dynstat_salt_sd              =   1.5083276182862E-03
(PID.TID 0000.0001) %MON dynstat_salt_del2            =   1.9926370678403E-05
(PID.TID 0000.0001) %MON extforcing_qnet_max          =   0.0000000000000E+00
(PID.TID 0000.0001) %MON extforcing_qnet_min          =   0.0000000000000E+00
(PID.TID 0000.0001) %MON extforcing_qnet_mean         =   0.0000000000000E+00
(PID.TID 0000.0001) %MON extforcing_qnet_sd           =   0.0000000000000E+00
(PID.TID 0000.0001) %MON extforcing_qnet_del2         =   0.0000000000000E+00
(PID.TID 0000.0001) %MON extforcing_qsw_max           =   0.0000000000000E+00
(PID.TID 0000.0001) %MON extforcing_qsw_min           =   0.0000000000000E+00
(PID.TID 0000.0001) %MON extforcing_qsw_mean          =   0.0000000000000E+00
(PID.TID 0000.0001) %MON extforcing_qsw_sd            =   0.0000000000000E+00
(PID.TID 0000.0001) %MON extforcing_qsw_del2          =   0.0000000000000E+00
(PID.TID 0000.0001) %MON extforcing_empmr_max         =   0.0000000000000E+00
(PID.TID 0000.0001) %MON extforcing_empmr_min         =   0.0000000000000E+00
(PID.TID 0000.0001) %MON extforcing_empmr_mean        =   0.0000000000000E+00
(PID.TID 0000.0001) %MON extforcing_empmr_sd          =   0.0000000000000E+00
(PID.TID 0000.0001) %MON extforcing_empmr_del2        =   0.0000000000000E+00
(PID.TID 0000.0001) %MON advcfl_uvel_max              =   2.8370085533042E-04
(PID.TID 0000.0001) %MON advcfl_vvel_max              =   6.6427308629533E-05
(PID.TID 0000.0001) %MON advcfl_wvel_max              =   2.6902072724382E-04
(PID.TID 0000.0001) %MON advcfl_W_hf_max              =   3.0293233959485E-04
(PID.TID 0000.0001) %MON pe_b_mean                    =  -4.4982554211416E-08
(PID.TID 0000.0001) %MON ke_max                       =   4.9523695228328E-07
(PID.TID 0000.0001) %MON ke_mean                      =   2.6125617266730E-09
(PID.TID 0000.0001) %MON ke_vol                       =   2.9241705273104E+14
(PID.TID 0000.0001) %MON vort_r_min                   =  -6.7230072512305E-08
(PID.TID 0000.0001) %MON vort_r_max                   =   6.7252223690386E-08
(PID.TID 0000.0001) %MON vort_a_mean                  =  -1.4007437263210E-04
(PID.TID 0000.0001) %MON vort_a_sd                    =   1.7682746862724E-06
(PID.TID 0000.0001) %MON vort_p_mean                  =  -1.5039772179166E-04
(PID.TID 0000.0001) %MON vort_p_sd                    =   8.7071039152001E-05
(PID.TID 0000.0001) %MON surfExpan_theta_mean         =  -2.1986969852429E-12
(PID.TID 0000.0001) %MON surfExpan_salt_mean          =  -8.7376218194533E-13
(PID.TID 0000.0001) // =======================================================
(PID.TID 0000.0001) // End MONITOR dynamic field statistics
(PID.TID 0000.0001) // =======================================================
 cg2d: Sum(rhs),rhsMax =   7.50510764646606E-14  7.47015808567229E-04
(PID.TID 0000.0001)                    cg2d_init_res =    2.10989937164134E+00
(PID.TID 0000.0001)                       cg2d_iters =   202
(PID.TID 0000.0001)                         cg2d_res =    8.73402692556255E-14
(PID.TID 0000.0001) // =======================================================
(PID.TID 0000.0001) // Begin MONITOR dynamic field statistics
(PID.TID 0000.0001) // =======================================================
(PID.TID 0000.0001) %MON time_tsnumber                =                    16
(PID.TID 0000.0001) %MON time_secondsf                =   2.8800000000000E+04
(PID.TID 0000.0001) %MON dynstat_eta_max              =   2.4016563258147E-04
(PID.TID 0000.0001) %MON dynstat_eta_min              =  -9.9577168002022E-05
(PID.TID 0000.0001) %MON dynstat_eta_mean             =  -2.7683326539974E-20
(PID.TID 0000.0001) %MON dynstat_eta_sd               =   5.6187633776899E-05
(PID.TID 0000.0001) %MON dynstat_eta_del2             =   1.9949084530428E-05
(PID.TID 0000.0001) %MON dynstat_uvel_max             =   1.6227591016026E-04
(PID.TID 0000.0001) %MON dynstat_uvel_min             =  -1.0378438910201E-03
(PID.TID 0000.0001) %MON dynstat_uvel_mean            =   5.4599869158697E-08
(PID.TID 0000.0001) %MON dynstat_uvel_sd              =   7.4778326448802E-05
(PID.TID 0000.0001) %MON dynstat_uvel_del2            =   3.4182871817675E-06
(PID.TID 0000.0001) %MON dynstat_vvel_max             =   3.7835803385924E-04
(PID.TID 0000.0001) %MON dynstat_vvel_min             =  -7.6301160993943E-05
(PID.TID 0000.0001) %MON dynstat_vvel_mean            =   2.6120521436250E-08
(PID.TID 0000.0001) %MON dynstat_vvel_sd              =   2.2327521842828E-05
(PID.TID 0000.0001) %MON dynstat_vvel_del2            =   1.2384888962298E-06
(PID.TID 0000.0001) %MON dynstat_wvel_max             =   4.8318706941351E-06
(PID.TID 0000.0001) %MON dynstat_wvel_min             =  -4.5772322042960E-06
(PID.TID 0000.0001) %MON dynstat_wvel_mean            =  -4.0764976670690E-11
(PID.TID 0000.0001) %MON dynstat_wvel_sd              =   1.6440688416177E-07
(PID.TID 0000.0001) %MON dynstat_wvel_del2            =   2.7161144064351E-08
(PID.TID 0000.0001) %MON dynstat_theta_max            =  -1.9000000000000E+00
(PID.TID 0000.0001) %MON dynstat_theta_min            =  -1.9485989715472E+00
(PID.TID 0000.0001) %MON dynstat_theta_mean           =  -1.9008890140867E+00
(PID.TID 0000.0001) %MON dynstat_theta_sd             =   4.0378178820911E-03
(PID.TID 0000.0001) %MON dynstat_theta_del2           =   5.3297722732762E-05
(PID.TID 0000.0001) %MON dynstat_salt_max             =   3.4400000000000E+01
(PID.TID 0000.0001) %MON dynstat_salt_min             =   3.4380686768707E+01
(PID.TID 0000.0001) %MON dynstat_salt_mean            =   3.4399646705804E+01
(PID.TID 0000.0001) %MON dynstat_salt_sd              =   1.6046288263431E-03
(PID.TID 0000.0001) %MON dynstat_salt_del2            =   2.1180515014102E-05
(PID.TID 0000.0001) %MON extforcing_qnet_max          =   0.0000000000000E+00
(PID.TID 0000.0001) %MON extforcing_qnet_min          =   0.0000000000000E+00
(PID.TID 0000.0001) %MON extforcing_qnet_mean         =   0.0000000000000E+00
(PID.TID 0000.0001) %MON extforcing_qnet_sd           =   0.0000000000000E+00
(PID.TID 0000.0001) %MON extforcing_qnet_del2         =   0.0000000000000E+00
(PID.TID 0000.0001) %MON extforcing_qsw_max           =   0.0000000000000E+00
(PID.TID 0000.0001) %MON extforcing_qsw_min           =   0.0000000000000E+00
(PID.TID 0000.0001) %MON extforcing_qsw_mean          =   0.0000000000000E+00
(PID.TID 0000.0001) %MON extforcing_qsw_sd            =   0.0000000000000E+00
(PID.TID 0000.0001) %MON extforcing_qsw_del2          =   0.0000000000000E+00
(PID.TID 0000.0001) %MON extforcing_empmr_max         =   0.0000000000000E+00
(PID.TID 0000.0001) %MON extforcing_empmr_min         =   0.0000000000000E+00
(PID.TID 0000.0001) %MON extforcing_empmr_mean        =   0.0000000000000E+00
(PID.TID 0000.0001) %MON extforcing_empmr_sd          =   0.0000000000000E+00
(PID.TID 0000.0001) %MON extforcing_empmr_del2        =   0.0000000000000E+00
(PID.TID 0000.0001) %MON advcfl_uvel_max              =   3.0880427293261E-04
(PID.TID 0000.0001) %MON advcfl_vvel_max              =   6.1257414871278E-05
(PID.TID 0000.0001) %MON advcfl_wvel_max              =   2.8991224164811E-04
(PID.TID 0000.0001) %MON advcfl_W_hf_max              =   3.2208791459325E-04
(PID.TID 0000.0001) %MON pe_b_mean                    =  -4.5650603145834E-08
(PID.TID 0000.0001) %MON ke_max                       =   5.7062305409478E-07
(PID.TID 0000.0001) %MON ke_mean                      =   2.9851704852564E-09
(PID.TID 0000.0001) %MON ke_vol                       =   2.9241705273104E+14
(PID.TID 0000.0001) %MON vort_r_min                   =  -6.1169473684785E-08
(PID.TID 0000.0001) %MON vort_r_max                   =   6.1045664783274E-08
(PID.TID 0000.0001) %MON vort_a_mean                  =  -1.4007437269932E-04
(PID.TID 0000.0001) %MON vort_a_sd                    =   1.7682744747407E-06
(PID.TID 0000.0001) %MON vort_p_mean                  =  -1.5039772186383E-04
(PID.TID 0000.0001) %MON vort_p_sd                    =   8.7070124998354E-05
(PID.TID 0000.0001) %MON surfExpan_theta_mean         =  -2.3607988862061E-12
(PID.TID 0000.0001) %MON surfExpan_salt_mean          =  -9.3818147737177E-13
(PID.TID 0000.0001) // =======================================================
(PID.TID 0000.0001) // End MONITOR dynamic field statistics
(PID.TID 0000.0001) // =======================================================
 cg2d: Sum(rhs),rhsMax =   1.77635683940025E-15  7.93541302106882E-04
(PID.TID 0000.0001)                    cg2d_init_res =    1.97554161373320E+00
(PID.TID 0000.0001)                       cg2d_iters =   201
(PID.TID 0000.0001)                         cg2d_res =    9.39737345303135E-14
(PID.TID 0000.0001) // =======================================================
(PID.TID 0000.0001) // Begin MONITOR dynamic field statistics
(PID.TID 0000.0001) // =======================================================
(PID.TID 0000.0001) %MON time_tsnumber                =                    17
(PID.TID 0000.0001) %MON time_secondsf                =   3.0600000000000E+04
(PID.TID 0000.0001) %MON dynstat_eta_max              =   2.4915945977989E-04
(PID.TID 0000.0001) %MON dynstat_eta_min              =  -1.0763178752681E-04
(PID.TID 0000.0001) %MON dynstat_eta_mean             =   4.8978193109185E-20
(PID.TID 0000.0001) %MON dynstat_eta_sd               =   5.8528231384934E-05
(PID.TID 0000.0001) %MON dynstat_eta_del2             =   2.1164863110736E-05
(PID.TID 0000.0001) %MON dynstat_uvel_max             =   1.7343371798188E-04
(PID.TID 0000.0001) %MON dynstat_uvel_min             =  -1.1101231054264E-03
(PID.TID 0000.0001) %MON dynstat_uvel_mean            =   8.1093945721750E-08
(PID.TID 0000.0001) %MON dynstat_uvel_sd              =   8.0187767340724E-05
(PID.TID 0000.0001) %MON dynstat_uvel_del2            =   3.5989043175008E-06
(PID.TID 0000.0001) %MON dynstat_vvel_max             =   3.3973970050796E-04
(PID.TID 0000.0001) %MON dynstat_vvel_min             =  -7.1493030702560E-05
(PID.TID 0000.0001) %MON dynstat_vvel_mean            =  -3.6244595422908E-08
(PID.TID 0000.0001) %MON dynstat_vvel_sd              =   1.9005658065526E-05
(PID.TID 0000.0001) %MON dynstat_vvel_del2            =   1.1077878864625E-06
(PID.TID 0000.0001) %MON dynstat_wvel_max             =   5.1293988625259E-06
(PID.TID 0000.0001) %MON dynstat_wvel_min             =  -4.8450957629899E-06
(PID.TID 0000.0001) %MON dynstat_wvel_mean            =  -6.8164257965085E-11
(PID.TID 0000.0001) %MON dynstat_wvel_sd              =   1.7292239156295E-07
(PID.TID 0000.0001) %MON dynstat_wvel_del2            =   2.5495731038546E-08
(PID.TID 0000.0001) %MON dynstat_theta_max            =  -1.9000000000000E+00
(PID.TID 0000.0001) %MON dynstat_theta_min            =  -1.9515093532873E+00
(PID.TID 0000.0001) %MON dynstat_theta_mean           =  -1.9009422684440E+00
(PID.TID 0000.0001) %MON dynstat_theta_sd             =   4.2788561940571E-03
(PID.TID 0000.0001) %MON dynstat_theta_del2           =   5.6437058441417E-05
(PID.TID 0000.0001) %MON dynstat_salt_max             =   3.4400000000000E+01
(PID.TID 0000.0001) %MON dynstat_salt_min             =   3.4379530183004E+01
(PID.TID 0000.0001) %MON dynstat_salt_mean            =   3.4399625542523E+01
(PID.TID 0000.0001) %MON dynstat_salt_sd              =   1.7004174515185E-03
(PID.TID 0000.0001) %MON dynstat_salt_del2            =   2.2428087024725E-05
(PID.TID 0000.0001) %MON extforcing_qnet_max          =   0.0000000000000E+00
(PID.TID 0000.0001) %MON extforcing_qnet_min          =   0.0000000000000E+00
(PID.TID 0000.0001) %MON extforcing_qnet_mean         =   0.0000000000000E+00
(PID.TID 0000.0001) %MON extforcing_qnet_sd           =   0.0000000000000E+00
(PID.TID 0000.0001) %MON extforcing_qnet_del2         =   0.0000000000000E+00
(PID.TID 0000.0001) %MON extforcing_qsw_max           =   0.0000000000000E+00
(PID.TID 0000.0001) %MON extforcing_qsw_min           =   0.0000000000000E+00
(PID.TID 0000.0001) %MON extforcing_qsw_mean          =   0.0000000000000E+00
(PID.TID 0000.0001) %MON extforcing_qsw_sd            =   0.0000000000000E+00
(PID.TID 0000.0001) %MON extforcing_qsw_del2          =   0.0000000000000E+00
(PID.TID 0000.0001) %MON extforcing_empmr_max         =   0.0000000000000E+00
(PID.TID 0000.0001) %MON extforcing_empmr_min         =   0.0000000000000E+00
(PID.TID 0000.0001) %MON extforcing_empmr_mean        =   0.0000000000000E+00
(PID.TID 0000.0001) %MON extforcing_empmr_sd          =   0.0000000000000E+00
(PID.TID 0000.0001) %MON extforcing_empmr_del2        =   0.0000000000000E+00
(PID.TID 0000.0001) %MON advcfl_uvel_max              =   3.3031052300164E-04
(PID.TID 0000.0001) %MON advcfl_vvel_max              =   5.5004979199154E-05
(PID.TID 0000.0001) %MON advcfl_wvel_max              =   3.0776393175155E-04
(PID.TID 0000.0001) %MON advcfl_W_hf_max              =   3.3779922048781E-04
(PID.TID 0000.0001) %MON pe_b_mean                    =  -4.6570223012201E-08
(PID.TID 0000.0001) %MON ke_max                       =   6.3951586621473E-07
(PID.TID 0000.0001) %MON ke_mean                      =   3.3279142703932E-09
(PID.TID 0000.0001) %MON ke_vol                       =   2.9241705273104E+14
(PID.TID 0000.0001) %MON vort_r_min                   =  -5.4104154654772E-08
(PID.TID 0000.0001) %MON vort_r_max                   =   5.4142188699510E-08
(PID.TID 0000.0001) %MON vort_a_mean                  =  -1.4007437275744E-04
(PID.TID 0000.0001) %MON vort_a_sd                    =   1.7682743456551E-06
(PID.TID 0000.0001) %MON vort_p_mean                  =  -1.5039772192623E-04
(PID.TID 0000.0001) %MON vort_p_sd                    =   8.7069341700400E-05
(PID.TID 0000.0001) %MON surfExpan_theta_mean         =  -3.8463243794091E-12
(PID.TID 0000.0001) %MON surfExpan_salt_mean          =  -1.5285293083617E-12
(PID.TID 0000.0001) // =======================================================
(PID.TID 0000.0001) // End MONITOR dynamic field statistics
(PID.TID 0000.0001) // =======================================================
 cg2d: Sum(rhs),rhsMax =   9.76996261670138E-15  8.39820033297916E-04
(PID.TID 0000.0001)                    cg2d_init_res =    1.85678026752769E+00
(PID.TID 0000.0001)                       cg2d_iters =   201
(PID.TID 0000.0001)                         cg2d_res =    8.01124043044141E-14
(PID.TID 0000.0001) // =======================================================
(PID.TID 0000.0001) // Begin MONITOR dynamic field statistics
(PID.TID 0000.0001) // =======================================================
(PID.TID 0000.0001) %MON time_tsnumber                =                    18
(PID.TID 0000.0001) %MON time_secondsf                =   3.2400000000000E+04
(PID.TID 0000.0001) %MON dynstat_eta_max              =   2.5865417171131E-04
(PID.TID 0000.0001) %MON dynstat_eta_min              =  -1.1445580776620E-04
(PID.TID 0000.0001) %MON dynstat_eta_mean             =  -4.2589733138421E-21
(PID.TID 0000.0001) %MON dynstat_eta_sd               =   6.1171793906374E-05
(PID.TID 0000.0001) %MON dynstat_eta_del2             =   2.2374628481990E-05
(PID.TID 0000.0001) %MON dynstat_uvel_max             =   1.8235618970475E-04
(PID.TID 0000.0001) %MON dynstat_uvel_min             =  -1.1691820279216E-03
(PID.TID 0000.0001) %MON dynstat_uvel_mean            =   1.0209656364194E-07
(PID.TID 0000.0001) %MON dynstat_uvel_sd              =   8.4645494285228E-05
(PID.TID 0000.0001) %MON dynstat_uvel_del2            =   3.7269229639579E-06
(PID.TID 0000.0001) %MON dynstat_vvel_max             =   2.9738751894131E-04
(PID.TID 0000.0001) %MON dynstat_vvel_min             =  -6.5472583932546E-05
(PID.TID 0000.0001) %MON dynstat_vvel_mean            =  -1.6247828669448E-07
(PID.TID 0000.0001) %MON dynstat_vvel_sd              =   1.5443248925605E-05
(PID.TID 0000.0001) %MON dynstat_vvel_del2            =   9.6818464392159E-07
(PID.TID 0000.0001) %MON dynstat_wvel_max             =   5.3742450950424E-06
(PID.TID 0000.0001) %MON dynstat_wvel_min             =  -5.1295212499452E-06
(PID.TID 0000.0001) %MON dynstat_wvel_mean            =  -1.1919393423280E-10
(PID.TID 0000.0001) %MON dynstat_wvel_sd              =   1.8017133933439E-07
(PID.TID 0000.0001) %MON dynstat_wvel_del2            =   2.3602838935302E-08
(PID.TID 0000.0001) %MON dynstat_theta_max            =  -1.9000000000000E+00
(PID.TID 0000.0001) %MON dynstat_theta_min            =  -1.9544054306797E+00
(PID.TID 0000.0001) %MON dynstat_theta_mean           =  -1.9009952607523E+00
(PID.TID 0000.0001) %MON dynstat_theta_sd             =   4.5186117177083E-03
(PID.TID 0000.0001) %MON dynstat_theta_del2           =   5.9555495514812E-05
(PID.TID 0000.0001) %MON dynstat_salt_max             =   3.4400000000000E+01
(PID.TID 0000.0001) %MON dynstat_salt_min             =   3.4378379281848E+01
(PID.TID 0000.0001) %MON dynstat_salt_mean            =   3.4399604483379E+01
(PID.TID 0000.0001) %MON dynstat_salt_sd              =   1.7956962966175E-03
(PID.TID 0000.0001) %MON dynstat_salt_del2            =   2.3667353917697E-05
(PID.TID 0000.0001) %MON extforcing_qnet_max          =   0.0000000000000E+00
(PID.TID 0000.0001) %MON extforcing_qnet_min          =   0.0000000000000E+00
(PID.TID 0000.0001) %MON extforcing_qnet_mean         =   0.0000000000000E+00
(PID.TID 0000.0001) %MON extforcing_qnet_sd           =   0.0000000000000E+00
(PID.TID 0000.0001) %MON extforcing_qnet_del2         =   0.0000000000000E+00
(PID.TID 0000.0001) %MON extforcing_qsw_max           =   0.0000000000000E+00
(PID.TID 0000.0001) %MON extforcing_qsw_min           =   0.0000000000000E+00
(PID.TID 0000.0001) %MON extforcing_qsw_mean          =   0.0000000000000E+00
(PID.TID 0000.0001) %MON extforcing_qsw_sd            =   0.0000000000000E+00
(PID.TID 0000.0001) %MON extforcing_qsw_del2          =   0.0000000000000E+00
(PID.TID 0000.0001) %MON extforcing_empmr_max         =   0.0000000000000E+00
(PID.TID 0000.0001) %MON extforcing_empmr_min         =   0.0000000000000E+00
(PID.TID 0000.0001) %MON extforcing_empmr_mean        =   0.0000000000000E+00
(PID.TID 0000.0001) %MON extforcing_empmr_sd          =   0.0000000000000E+00
(PID.TID 0000.0001) %MON extforcing_empmr_del2        =   0.0000000000000E+00
(PID.TID 0000.0001) %MON advcfl_uvel_max              =   3.4788315389451E-04
(PID.TID 0000.0001) %MON advcfl_vvel_max              =   4.8148021173260E-05
(PID.TID 0000.0001) %MON advcfl_wvel_max              =   3.2245470570254E-04
(PID.TID 0000.0001) %MON advcfl_W_hf_max              =   3.5018014237825E-04
(PID.TID 0000.0001) %MON pe_b_mean                    =  -4.7981186520545E-08
(PID.TID 0000.0001) %MON ke_max                       =   6.9899825387867E-07
(PID.TID 0000.0001) %MON ke_mean                      =   3.6271825557188E-09
(PID.TID 0000.0001) %MON ke_vol                       =   2.9241705273104E+14
(PID.TID 0000.0001) %MON vort_r_min                   =  -4.6554877737146E-08
(PID.TID 0000.0001) %MON vort_r_max                   =   5.6181312511983E-08
(PID.TID 0000.0001) %MON vort_a_mean                  =  -1.4007437279785E-04
(PID.TID 0000.0001) %MON vort_a_sd                    =   1.7682743156277E-06
(PID.TID 0000.0001) %MON vort_p_mean                  =  -1.5039772196962E-04
(PID.TID 0000.0001) %MON vort_p_sd                    =   8.7068704027388E-05
(PID.TID 0000.0001) %MON surfExpan_theta_mean         =  -6.7027064002924E-12
(PID.TID 0000.0001) %MON surfExpan_salt_mean          =  -2.6636555235202E-12
(PID.TID 0000.0001) // =======================================================
(PID.TID 0000.0001) // End MONITOR dynamic field statistics
(PID.TID 0000.0001) // =======================================================
 cg2d: Sum(rhs),rhsMax =   5.37347943918576E-14  8.85793909918391E-04
(PID.TID 0000.0001)                    cg2d_init_res =    1.75117982896411E+00
(PID.TID 0000.0001)                       cg2d_iters =   200
(PID.TID 0000.0001)                         cg2d_res =    9.74299236137669E-14
(PID.TID 0000.0001) // =======================================================
(PID.TID 0000.0001) // Begin MONITOR dynamic field statistics
(PID.TID 0000.0001) // =======================================================
(PID.TID 0000.0001) %MON time_tsnumber                =                    19
(PID.TID 0000.0001) %MON time_secondsf                =   3.4200000000000E+04
(PID.TID 0000.0001) %MON dynstat_eta_max              =   2.6911623772964E-04
(PID.TID 0000.0001) %MON dynstat_eta_min              =  -1.1999415962443E-04
(PID.TID 0000.0001) %MON dynstat_eta_mean             =  -4.2589733138421E-21
(PID.TID 0000.0001) %MON dynstat_eta_sd               =   6.4197989259540E-05
(PID.TID 0000.0001) %MON dynstat_eta_del2             =   2.3579178253483E-05
(PID.TID 0000.0001) %MON dynstat_uvel_max             =   1.8898930028223E-04
(PID.TID 0000.0001) %MON dynstat_uvel_min             =  -1.2147671126450E-03
(PID.TID 0000.0001) %MON dynstat_uvel_mean            =   1.1552924677368E-07
(PID.TID 0000.0001) %MON dynstat_uvel_sd              =   8.8113966711593E-05
(PID.TID 0000.0001) %MON dynstat_uvel_del2            =   3.8048319464785E-06
(PID.TID 0000.0001) %MON dynstat_vvel_max             =   2.5444237222664E-04
(PID.TID 0000.0001) %MON dynstat_vvel_min             =  -5.8670056918614E-05
(PID.TID 0000.0001) %MON dynstat_vvel_mean            =  -3.3470369415392E-07
(PID.TID 0000.0001) %MON dynstat_vvel_sd              =   1.1898101025027E-05
(PID.TID 0000.0001) %MON dynstat_vvel_del2            =   8.2934041539320E-07
(PID.TID 0000.0001) %MON dynstat_wvel_max             =   5.5719613010650E-06
(PID.TID 0000.0001) %MON dynstat_wvel_min             =  -5.3854584484437E-06
(PID.TID 0000.0001) %MON dynstat_wvel_mean            =  -1.8757965484244E-10
(PID.TID 0000.0001) %MON dynstat_wvel_sd              =   1.8612015912259E-07
(PID.TID 0000.0001) %MON dynstat_wvel_del2            =   2.1648290300104E-08
(PID.TID 0000.0001) %MON dynstat_theta_max            =  -1.9000000000000E+00
(PID.TID 0000.0001) %MON dynstat_theta_min            =  -1.9572872813049E+00
(PID.TID 0000.0001) %MON dynstat_theta_mean           =  -1.9010479923630E+00
(PID.TID 0000.0001) %MON dynstat_theta_sd             =   4.7570914666994E-03
(PID.TID 0000.0001) %MON dynstat_theta_del2           =   6.2652547418139E-05
(PID.TID 0000.0001) %MON dynstat_salt_max             =   3.4400000000000E+01
(PID.TID 0000.0001) %MON dynstat_salt_min             =   3.4377234034409E+01
(PID.TID 0000.0001) %MON dynstat_salt_mean            =   3.4399583527837E+01
(PID.TID 0000.0001) %MON dynstat_salt_sd              =   1.8904681488668E-03
(PID.TID 0000.0001) %MON dynstat_salt_del2            =   2.4898122344087E-05
(PID.TID 0000.0001) %MON extforcing_qnet_max          =   0.0000000000000E+00
(PID.TID 0000.0001) %MON extforcing_qnet_min          =   0.0000000000000E+00
(PID.TID 0000.0001) %MON extforcing_qnet_mean         =   0.0000000000000E+00
(PID.TID 0000.0001) %MON extforcing_qnet_sd           =   0.0000000000000E+00
(PID.TID 0000.0001) %MON extforcing_qnet_del2         =   0.0000000000000E+00
(PID.TID 0000.0001) %MON extforcing_qsw_max           =   0.0000000000000E+00
(PID.TID 0000.0001) %MON extforcing_qsw_min           =   0.0000000000000E+00
(PID.TID 0000.0001) %MON extforcing_qsw_mean          =   0.0000000000000E+00
(PID.TID 0000.0001) %MON extforcing_qsw_sd            =   0.0000000000000E+00
(PID.TID 0000.0001) %MON extforcing_qsw_del2          =   0.0000000000000E+00
(PID.TID 0000.0001) %MON extforcing_empmr_max         =   0.0000000000000E+00
(PID.TID 0000.0001) %MON extforcing_empmr_min         =   0.0000000000000E+00
(PID.TID 0000.0001) %MON extforcing_empmr_mean        =   0.0000000000000E+00
(PID.TID 0000.0001) %MON extforcing_empmr_sd          =   0.0000000000000E+00
(PID.TID 0000.0001) %MON extforcing_empmr_del2        =   0.0000000000000E+00
(PID.TID 0000.0001) %MON advcfl_uvel_max              =   3.6144672454939E-04
(PID.TID 0000.0001) %MON advcfl_vvel_max              =   4.1195060132166E-05
(PID.TID 0000.0001) %MON advcfl_wvel_max              =   3.3431767806390E-04
(PID.TID 0000.0001) %MON advcfl_W_hf_max              =   3.5955944427651E-04
(PID.TID 0000.0001) %MON pe_b_mean                    =  -5.0058588361739E-08
(PID.TID 0000.0001) %MON ke_max                       =   7.4710095620080E-07
(PID.TID 0000.0001) %MON ke_mean                      =   3.8728229036990E-09
(PID.TID 0000.0001) %MON ke_vol                       =   2.9241705273104E+14
(PID.TID 0000.0001) %MON vort_r_min                   =  -3.9061949567689E-08
(PID.TID 0000.0001) %MON vort_r_max                   =   5.9193657478770E-08
(PID.TID 0000.0001) %MON vort_a_mean                  =  -1.4007437281466E-04
(PID.TID 0000.0001) %MON vort_a_sd                    =   1.7682743921571E-06
(PID.TID 0000.0001) %MON vort_p_mean                  =  -1.5039772198767E-04
(PID.TID 0000.0001) %MON vort_p_sd                    =   8.7068217521689E-05
(PID.TID 0000.0001) %MON surfExpan_theta_mean         =  -1.0780347061342E-11
(PID.TID 0000.0001) %MON surfExpan_salt_mean          =  -4.2841099221093E-12
(PID.TID 0000.0001) // =======================================================
(PID.TID 0000.0001) // End MONITOR dynamic field statistics
(PID.TID 0000.0001) // =======================================================
 cg2d: Sum(rhs),rhsMax =  -1.33226762955019E-15  9.31397861704473E-04
(PID.TID 0000.0001)                    cg2d_init_res =    1.65679190404591E+00
(PID.TID 0000.0001)                       cg2d_iters =   201
(PID.TID 0000.0001)                         cg2d_res =    7.14862214636204E-14
(PID.TID 0000.0001) // =======================================================
(PID.TID 0000.0001) // Begin MONITOR dynamic field statistics
(PID.TID 0000.0001) // =======================================================
(PID.TID 0000.0001) %MON time_tsnumber                =                    20
(PID.TID 0000.0001) %MON time_secondsf                =   3.6000000000000E+04
(PID.TID 0000.0001) %MON dynstat_eta_max              =   2.8089083766923E-04
(PID.TID 0000.0001) %MON dynstat_eta_min              =  -1.2463323186593E-04
(PID.TID 0000.0001) %MON dynstat_eta_mean             =   4.4719219795343E-20
(PID.TID 0000.0001) %MON dynstat_eta_sd               =   6.7647682459641E-05
(PID.TID 0000.0001) %MON dynstat_eta_del2             =   2.4777796112525E-05
(PID.TID 0000.0001) %MON dynstat_uvel_max             =   1.9342662874398E-04
(PID.TID 0000.0001) %MON dynstat_uvel_min             =  -1.2474966974418E-03
(PID.TID 0000.0001) %MON dynstat_uvel_mean            =   1.2030416043284E-07
(PID.TID 0000.0001) %MON dynstat_uvel_sd              =   9.0619821431945E-05
(PID.TID 0000.0001) %MON dynstat_uvel_del2            =   3.8386283892952E-06
(PID.TID 0000.0001) %MON dynstat_vvel_max             =   2.1402072203731E-04
(PID.TID 0000.0001) %MON dynstat_vvel_min             =  -5.1546516212648E-05
(PID.TID 0000.0001) %MON dynstat_vvel_mean            =  -5.3069412993548E-07
(PID.TID 0000.0001) %MON dynstat_vvel_sd              =   8.6462000273460E-06
(PID.TID 0000.0001) %MON dynstat_vvel_del2            =   7.0063647131530E-07
(PID.TID 0000.0001) %MON dynstat_wvel_max             =   5.7538643833701E-06
(PID.TID 0000.0001) %MON dynstat_wvel_min             =  -5.5926968152180E-06
(PID.TID 0000.0001) %MON dynstat_wvel_mean            =  -2.6503085533345E-10
(PID.TID 0000.0001) %MON dynstat_wvel_sd              =   1.9079098213180E-07
(PID.TID 0000.0001) %MON dynstat_wvel_del2            =   1.9785230540067E-08
(PID.TID 0000.0001) %MON dynstat_theta_max            =  -1.8999996937604E+00
(PID.TID 0000.0001) %MON dynstat_theta_min            =  -1.9601549761744E+00
(PID.TID 0000.0001) %MON dynstat_theta_mean           =  -1.9011004646212E+00
(PID.TID 0000.0001) %MON dynstat_theta_sd             =   4.9943024194245E-03
(PID.TID 0000.0001) %MON dynstat_theta_del2           =   6.5728353028656E-05
(PID.TID 0000.0001) %MON dynstat_salt_max             =   3.4400000121700E+01
(PID.TID 0000.0001) %MON dynstat_salt_min             =   3.4376094412468E+01
(PID.TID 0000.0001) %MON dynstat_salt_mean            =   3.4399562675362E+01
(PID.TID 0000.0001) %MON dynstat_salt_sd              =   1.9847357814798E-03
(PID.TID 0000.0001) %MON dynstat_salt_del2            =   2.6120447493715E-05
(PID.TID 0000.0001) %MON extforcing_qnet_max          =   0.0000000000000E+00
(PID.TID 0000.0001) %MON extforcing_qnet_min          =   0.0000000000000E+00
(PID.TID 0000.0001) %MON extforcing_qnet_mean         =   0.0000000000000E+00
(PID.TID 0000.0001) %MON extforcing_qnet_sd           =   0.0000000000000E+00
(PID.TID 0000.0001) %MON extforcing_qnet_del2         =   0.0000000000000E+00
(PID.TID 0000.0001) %MON extforcing_qsw_max           =   0.0000000000000E+00
(PID.TID 0000.0001) %MON extforcing_qsw_min           =   0.0000000000000E+00
(PID.TID 0000.0001) %MON extforcing_qsw_mean          =   0.0000000000000E+00
(PID.TID 0000.0001) %MON extforcing_qsw_sd            =   0.0000000000000E+00
(PID.TID 0000.0001) %MON extforcing_qsw_del2          =   0.0000000000000E+00
(PID.TID 0000.0001) %MON extforcing_empmr_max         =   0.0000000000000E+00
(PID.TID 0000.0001) %MON extforcing_empmr_min         =   0.0000000000000E+00
(PID.TID 0000.0001) %MON extforcing_empmr_mean        =   0.0000000000000E+00
(PID.TID 0000.0001) %MON extforcing_empmr_sd          =   0.0000000000000E+00
(PID.TID 0000.0001) %MON extforcing_empmr_del2        =   0.0000000000000E+00
(PID.TID 0000.0001) %MON advcfl_uvel_max              =   3.7118521771197E-04
(PID.TID 0000.0001) %MON advcfl_vvel_max              =   3.4650661510118E-05
(PID.TID 0000.0001) %MON advcfl_wvel_max              =   3.4523186300221E-04
(PID.TID 0000.0001) %MON advcfl_W_hf_max              =   3.6645094969751E-04
(PID.TID 0000.0001) %MON pe_b_mean                    =  -5.2893856611653E-08
(PID.TID 0000.0001) %MON ke_max                       =   7.8301193014652E-07
(PID.TID 0000.0001) %MON ke_mean                      =   4.0592662620896E-09
(PID.TID 0000.0001) %MON ke_vol                       =   2.9241705273104E+14
(PID.TID 0000.0001) %MON vort_r_min                   =  -3.7810659495680E-08
(PID.TID 0000.0001) %MON vort_r_max                   =   6.1687843426392E-08
(PID.TID 0000.0001) %MON vort_a_mean                  =  -1.4007437280500E-04
(PID.TID 0000.0001) %MON vort_a_sd                    =   1.7682745748618E-06
(PID.TID 0000.0001) %MON vort_p_mean                  =  -1.5039772197730E-04
(PID.TID 0000.0001) %MON vort_p_sd                    =   8.7067878228558E-05
(PID.TID 0000.0001) %MON surfExpan_theta_mean         =  -1.5744224914483E-11
(PID.TID 0000.0001) %MON surfExpan_salt_mean          =  -6.2567549809777E-12
(PID.TID 0000.0001) // =======================================================
(PID.TID 0000.0001) // End MONITOR dynamic field statistics
(PID.TID 0000.0001) // =======================================================
(PID.TID 0000.0001) %CHECKPOINT        20 ckptA
(PID.TID 0000.0001)   Seconds in section "ALL                    [THE_MODEL_MAIN]":
(PID.TID 0000.0001)           User time:  38.2891807
(PID.TID 0000.0001)         System time:  1.09483301
(PID.TID 0000.0001)     Wall clock time:  49.7100191
(PID.TID 0000.0001)          No. starts: 1
(PID.TID 0000.0001)           No. stops: 1
(PID.TID 0000.0001)   Seconds in section "INITIALISE_FIXED       [THE_MODEL_MAIN]":
(PID.TID 0000.0001)           User time:  1.413785
(PID.TID 0000.0001)         System time:  0.129979993
(PID.TID 0000.0001)     Wall clock time:  1.66068792
(PID.TID 0000.0001)          No. starts: 1
(PID.TID 0000.0001)           No. stops: 1
(PID.TID 0000.0001)   Seconds in section "THE_MAIN_LOOP          [THE_MODEL_MAIN]":
(PID.TID 0000.0001)           User time:  36.8723935
(PID.TID 0000.0001)         System time:  0.960854024
(PID.TID 0000.0001)     Wall clock time:  47.68694
(PID.TID 0000.0001)          No. starts: 1
(PID.TID 0000.0001)           No. stops: 1
(PID.TID 0000.0001)   Seconds in section "INITIALISE_VARIA    [THE_MAIN_LOOP]":
(PID.TID 0000.0001)           User time:  0.743887067
(PID.TID 0000.0001)         System time:  0.0939860046
(PID.TID 0000.0001)     Wall clock time:  0.865556002
(PID.TID 0000.0001)          No. starts: 1
(PID.TID 0000.0001)           No. stops: 1
(PID.TID 0000.0001)   Seconds in section "MAIN LOOP           [THE_MAIN_LOOP]":
(PID.TID 0000.0001)           User time:  36.1285064
(PID.TID 0000.0001)         System time:  0.866868019
(PID.TID 0000.0001)     Wall clock time:  46.8212881
(PID.TID 0000.0001)          No. starts: 1
(PID.TID 0000.0001)           No. stops: 1
(PID.TID 0000.0001)   Seconds in section "FORWARD_STEP        [THE_MAIN_LOOP]":
(PID.TID 0000.0001)           User time:  36.1285064
(PID.TID 0000.0001)         System time:  0.866868019
(PID.TID 0000.0001)     Wall clock time:  46.8206408
(PID.TID 0000.0001)          No. starts: 20
(PID.TID 0000.0001)           No. stops: 20
(PID.TID 0000.0001)   Seconds in section "LOAD_FIELDS_DRIVER  [FORWARD_STEP]":
(PID.TID 0000.0001)           User time:  0.00300216675
(PID.TID 0000.0001)         System time:  0.
(PID.TID 0000.0001)     Wall clock time:  0.00188016891
(PID.TID 0000.0001)          No. starts: 20
(PID.TID 0000.0001)           No. stops: 20
(PID.TID 0000.0001)   Seconds in section "EXTERNAL_FLDS_LOAD [LOAD_FLDS_DRIVER]":
(PID.TID 0000.0001)           User time:  0.00300216675
(PID.TID 0000.0001)         System time:  0.
(PID.TID 0000.0001)     Wall clock time:  0.000649213791
(PID.TID 0000.0001)          No. starts: 20
(PID.TID 0000.0001)           No. stops: 20
(PID.TID 0000.0001)   Seconds in section "DO_ATMOSPHERIC_PHYS [FORWARD_STEP]":
(PID.TID 0000.0001)           User time:  0.
(PID.TID 0000.0001)         System time:  0.
(PID.TID 0000.0001)     Wall clock time:  0.000615119934
(PID.TID 0000.0001)          No. starts: 20
(PID.TID 0000.0001)           No. stops: 20
(PID.TID 0000.0001)   Seconds in section "DO_OCEANIC_PHYS     [FORWARD_STEP]":
(PID.TID 0000.0001)           User time:  0.286947489
(PID.TID 0000.0001)         System time:  0.0029990077
(PID.TID 0000.0001)     Wall clock time:  0.293290377
(PID.TID 0000.0001)          No. starts: 20
(PID.TID 0000.0001)           No. stops: 20
(PID.TID 0000.0001)   Seconds in section "SHELFICE_THERMODYNAMICS [DO_OCEANIC_PHYS]":
(PID.TID 0000.0001)           User time:  0.121973753
(PID.TID 0000.0001)         System time:  0.
(PID.TID 0000.0001)     Wall clock time:  0.121820211
(PID.TID 0000.0001)          No. starts: 20
(PID.TID 0000.0001)           No. stops: 20
(PID.TID 0000.0001)   Seconds in section "THERMODYNAMICS      [FORWARD_STEP]":
(PID.TID 0000.0001)           User time:  5.27820396
(PID.TID 0000.0001)         System time:  0.0519920141
(PID.TID 0000.0001)     Wall clock time:  5.33915687
(PID.TID 0000.0001)          No. starts: 20
(PID.TID 0000.0001)           No. stops: 20
(PID.TID 0000.0001)   Seconds in section "DYNAMICS            [FORWARD_STEP]":
(PID.TID 0000.0001)           User time:  14.7037618
(PID.TID 0000.0001)         System time:  0.145977959
(PID.TID 0000.0001)     Wall clock time:  14.8636367
(PID.TID 0000.0001)          No. starts: 20
(PID.TID 0000.0001)           No. stops: 20
(PID.TID 0000.0001)   Seconds in section "SOLVE_FOR_PRESSURE  [FORWARD_STEP]":
(PID.TID 0000.0001)           User time:  5.94909477
(PID.TID 0000.0001)         System time:  0.00100000203
(PID.TID 0000.0001)     Wall clock time:  5.95087814
(PID.TID 0000.0001)          No. starts: 20
(PID.TID 0000.0001)           No. stops: 20
(PID.TID 0000.0001)   Seconds in section "MOM_CORRECTION_STEP [FORWARD_STEP]":
(PID.TID 0000.0001)           User time:  1.01085091
(PID.TID 0000.0001)         System time:  0.
(PID.TID 0000.0001)     Wall clock time:  1.00843978
(PID.TID 0000.0001)          No. starts: 20
(PID.TID 0000.0001)           No. stops: 20
(PID.TID 0000.0001)   Seconds in section "UPDATE_ETAH         [FORWARD_STEP]":
(PID.TID 0000.0001)           User time:  0.00499725342
(PID.TID 0000.0001)         System time:  0.
(PID.TID 0000.0001)     Wall clock time:  0.00465464592
(PID.TID 0000.0001)          No. starts: 20
(PID.TID 0000.0001)           No. stops: 20
(PID.TID 0000.0001)   Seconds in section "TRC_CORRECTION_STEP [FORWARD_STEP]":
(PID.TID 0000.0001)           User time:  3.63044739
(PID.TID 0000.0001)         System time:  0.00100000203
(PID.TID 0000.0001)     Wall clock time:  3.63594961
(PID.TID 0000.0001)          No. starts: 20
(PID.TID 0000.0001)           No. stops: 20
(PID.TID 0000.0001)   Seconds in section "BLOCKING_EXCHANGES  [FORWARD_STEP]":
(PID.TID 0000.0001)           User time:  0.346945524
(PID.TID 0000.0001)         System time:  0.
(PID.TID 0000.0001)     Wall clock time:  0.344942808
(PID.TID 0000.0001)          No. starts: 20
(PID.TID 0000.0001)           No. stops: 20
(PID.TID 0000.0001)   Seconds in section "DO_STATEVARS_TAVE   [FORWARD_STEP]":
(PID.TID 0000.0001)           User time:  0.
(PID.TID 0000.0001)         System time:  0.
(PID.TID 0000.0001)     Wall clock time:  0.000627756119
(PID.TID 0000.0001)          No. starts: 20
(PID.TID 0000.0001)           No. stops: 20
(PID.TID 0000.0001)   Seconds in section "MONITOR             [FORWARD_STEP]":
(PID.TID 0000.0001)           User time:  4.25235701
(PID.TID 0000.0001)         System time:  0.00200000405
(PID.TID 0000.0001)     Wall clock time:  4.25845647
(PID.TID 0000.0001)          No. starts: 20
(PID.TID 0000.0001)           No. stops: 20
(PID.TID 0000.0001)   Seconds in section "DO_THE_MODEL_IO     [FORWARD_STEP]":
(PID.TID 0000.0001)           User time:  0.24596405
(PID.TID 0000.0001)         System time:  0.0109980106
(PID.TID 0000.0001)     Wall clock time:  0.289072275
(PID.TID 0000.0001)          No. starts: 20
(PID.TID 0000.0001)           No. stops: 20
(PID.TID 0000.0001)   Seconds in section "DO_WRITE_PICKUP     [FORWARD_STEP]":
(PID.TID 0000.0001)           User time:  0.401935577
(PID.TID 0000.0001)         System time:  0.65090102
(PID.TID 0000.0001)     Wall clock time:  10.819365
(PID.TID 0000.0001)          No. starts: 20
(PID.TID 0000.0001)           No. stops: 20
(PID.TID 0000.0001) // ======================================================
(PID.TID 0000.0001) // Tile <-> Tile communication statistics
(PID.TID 0000.0001) // ======================================================
(PID.TID 0000.0001) // o Tile number: 000001
(PID.TID 0000.0001) //         No. X exchanges =              0
(PID.TID 0000.0001) //            Max. X spins =              0
(PID.TID 0000.0001) //            Min. X spins =     1000000000
(PID.TID 0000.0001) //          Total. X spins =              0
(PID.TID 0000.0001) //            Avg. X spins =       0.00E+00
(PID.TID 0000.0001) //         No. Y exchanges =              0
(PID.TID 0000.0001) //            Max. Y spins =              0
(PID.TID 0000.0001) //            Min. Y spins =     1000000000
(PID.TID 0000.0001) //          Total. Y spins =              0
(PID.TID 0000.0001) //            Avg. Y spins =       0.00E+00
(PID.TID 0000.0001) // o Tile number: 000002
(PID.TID 0000.0001) //         No. X exchanges =              0
(PID.TID 0000.0001) //            Max. X spins =              0
(PID.TID 0000.0001) //            Min. X spins =     1000000000
(PID.TID 0000.0001) //          Total. X spins =              0
(PID.TID 0000.0001) //            Avg. X spins =       0.00E+00
(PID.TID 0000.0001) //         No. Y exchanges =              0
(PID.TID 0000.0001) //            Max. Y spins =              0
(PID.TID 0000.0001) //            Min. Y spins =     1000000000
(PID.TID 0000.0001) //          Total. Y spins =              0
(PID.TID 0000.0001) //            Avg. Y spins =       0.00E+00
(PID.TID 0000.0001) // o Thread number: 000001
(PID.TID 0000.0001) //            No. barriers =          58176
(PID.TID 0000.0001) //      Max. barrier spins =              1
(PID.TID 0000.0001) //      Min. barrier spins =              1
(PID.TID 0000.0001) //     Total barrier spins =          58176
(PID.TID 0000.0001) //      Avg. barrier spins =       1.00E+00
