(PID.TID 0000.0001) 
(PID.TID 0000.0001) // ======================================================
(PID.TID 0000.0001) //                      MITgcm UV
(PID.TID 0000.0001) //                      =========
(PID.TID 0000.0001) // ======================================================
(PID.TID 0000.0001) // execution environment starting up...
(PID.TID 0000.0001) 
(PID.TID 0000.0001) // MITgcmUV version:  checkpoint61g
(PID.TID 0000.0001) // Build user:        mlosch
(PID.TID 0000.0001) // Build host:        eddy
(PID.TID 0000.0001) // Build date:        Mon Jan 12 06:10:52 EST 2009
(PID.TID 0000.0001) 
(PID.TID 0000.0001) // =======================================================
(PID.TID 0000.0001) // Execution Environment parameter file "eedata"
(PID.TID 0000.0001) // =======================================================
(PID.TID 0000.0001) ># Example "eedata" file
(PID.TID 0000.0001) ># Lines beginning "#" are comments
(PID.TID 0000.0001) ># nTx - No. threads per process in X
(PID.TID 0000.0001) ># nTy - No. threads per process in Y
(PID.TID 0000.0001) > &EEPARMS
(PID.TID 0000.0001) > &
(PID.TID 0000.0001) ># Note: Some systems use & as the
(PID.TID 0000.0001) ># namelist terminator. Other systems
(PID.TID 0000.0001) ># use a / character (as shown here).
(PID.TID 0000.0001) 
(PID.TID 0000.0001) // =======================================================
(PID.TID 0000.0001) // Computational Grid Specification ( see files "SIZE.h" )
(PID.TID 0000.0001) //                                  ( and "eedata"       )
(PID.TID 0000.0001) // =======================================================
(PID.TID 0000.0001)      nPx =    1 ; /* No. processes in X */
(PID.TID 0000.0001)      nPy =    1 ; /* No. processes in Y */
(PID.TID 0000.0001)      nSx =    1 ; /* No. tiles in X per process */
(PID.TID 0000.0001)      nSy =    2 ; /* No. tiles in Y per process */
(PID.TID 0000.0001)      sNx =   50 ; /* Tile size in X */
(PID.TID 0000.0001)      sNy =   50 ; /* Tile size in Y */
(PID.TID 0000.0001)      OLx =    3 ; /* Tile overlap distance in X */
(PID.TID 0000.0001)      OLy =    3 ; /* Tile overlap distance in Y */
(PID.TID 0000.0001)      nTx =    1 ; /* No. threads in X per process */
(PID.TID 0000.0001)      nTy =    1 ; /* No. threads in Y per process */
(PID.TID 0000.0001)       Nr =   30 ; /* No. levels in the vertical   */
(PID.TID 0000.0001)       nX =   50 ; /* Total domain size in X ( = nPx*nSx*sNx ) */
(PID.TID 0000.0001)       nY =  100 ; /* Total domain size in Y ( = nPy*nSy*sNy ) */
(PID.TID 0000.0001)   nTiles =    2 ; /* Total no. tiles per process ( = nSx*nSy ) */
(PID.TID 0000.0001)   nProcs =    1 ; /* Total no. processes ( = nPx*nPy ) */
(PID.TID 0000.0001) nThreads =    1 ; /* Total no. threads per process ( = nTx*nTy ) */
(PID.TID 0000.0001) usingMPI =    F ; /* Flag used to control whether MPI is in use */
(PID.TID 0000.0001)                   /*  note: To execute a program with MPI calls */
(PID.TID 0000.0001)                   /*  it must be launched appropriately e.g     */
(PID.TID 0000.0001)                   /*  "mpirun -np 64 ......"                    */
(PID.TID 0000.0001) useCoupler=   F ; /* Flag used to control communications with */
(PID.TID 0000.0001)                   /*  other model components, through a coupler */
(PID.TID 0000.0001) 
(PID.TID 0000.0001) // ======================================================
(PID.TID 0000.0001) // Mapping of tiles to threads
(PID.TID 0000.0001) // ======================================================
(PID.TID 0000.0001) // -o- Thread   1, tiles (   1:   1,   1:   2)
(PID.TID 0000.0001) 
(PID.TID 0000.0001) // ======================================================
(PID.TID 0000.0001) // Tile <-> Tile connectvity table
(PID.TID 0000.0001) // ======================================================
(PID.TID 0000.0001) // Tile number: 000001 (process no. = 000001)
(PID.TID 0000.0001) //        WEST: Tile = 000001, Process = 000001, Comm = put
(PID.TID 0000.0001) //                bi = 000001, bj = 000001
(PID.TID 0000.0001) //        EAST: Tile = 000001, Process = 000001, Comm = put
(PID.TID 0000.0001) //                bi = 000001, bj = 000001
(PID.TID 0000.0001) //       SOUTH: Tile = 000002, Process = 000001, Comm = put
(PID.TID 0000.0001) //                bi = 000001, bj = 000002
(PID.TID 0000.0001) //       NORTH: Tile = 000002, Process = 000001, Comm = put
(PID.TID 0000.0001) //                bi = 000001, bj = 000002
(PID.TID 0000.0001) // Tile number: 000002 (process no. = 000001)
(PID.TID 0000.0001) //        WEST: Tile = 000002, Process = 000001, Comm = put
(PID.TID 0000.0001) //                bi = 000001, bj = 000002
(PID.TID 0000.0001) //        EAST: Tile = 000002, Process = 000001, Comm = put
(PID.TID 0000.0001) //                bi = 000001, bj = 000002
(PID.TID 0000.0001) //       SOUTH: Tile = 000001, Process = 000001, Comm = put
(PID.TID 0000.0001) //                bi = 000001, bj = 000001
(PID.TID 0000.0001) //       NORTH: Tile = 000001, Process = 000001, Comm = put
(PID.TID 0000.0001) //                bi = 000001, bj = 000001
(PID.TID 0000.0001) 
(PID.TID 0000.0001) // =======================================================
(PID.TID 0000.0001) // Model parameter file "data"
(PID.TID 0000.0001) // =======================================================
(PID.TID 0000.0001) ># ====================
(PID.TID 0000.0001) ># | Model parameters |
(PID.TID 0000.0001) ># ====================
(PID.TID 0000.0001) >#
(PID.TID 0000.0001) ># Continuous equation parameters
(PID.TID 0000.0001) > &PARM01
(PID.TID 0000.0001) > Tref = 30*-1.9,
(PID.TID 0000.0001) > Sref = 30*34.4,
(PID.TID 0000.0001) > viscAz=1.E-3,
(PID.TID 0000.0001) > viscAh=600.0,
(PID.TID 0000.0001) > no_slip_sides=.FALSE.,
(PID.TID 0000.0001) > diffKhT=100.0,
(PID.TID 0000.0001) > diffKzT=5.E-5,
(PID.TID 0000.0001) > diffKhS=100.0,
(PID.TID 0000.0001) > diffKzS=5.E-5,
(PID.TID 0000.0001) > bottomDragQuadratic=2.5E-3,
(PID.TID 0000.0001) > eosType='JMD95Z',
(PID.TID 0000.0001) > HeatCapacity_cp = 3974.0,
(PID.TID 0000.0001) > rhoConst=1030.,
(PID.TID 0000.0001) > rhoNil=1030.,
(PID.TID 0000.0001) > gravity=9.81,
(PID.TID 0000.0001) > gBaro=9.81,
(PID.TID 0000.0001) > convertFW2Salt = 33.4,
(PID.TID 0000.0001) > rigidLid=.FALSE.,
(PID.TID 0000.0001) > implicitFreeSurface=.TRUE.,
(PID.TID 0000.0001) > exactConserv=.true.,
(PID.TID 0000.0001) > hFacMin=0.05,
(PID.TID 0000.0001) > nonHydrostatic=.false.,
(PID.TID 0000.0001) > readBinaryPrec=64,
(PID.TID 0000.0001) > useCDScheme = .true.,
(PID.TID 0000.0001) > &
(PID.TID 0000.0001) >
(PID.TID 0000.0001) ># Elliptic solver parameters
(PID.TID 0000.0001) > &PARM02
(PID.TID 0000.0001) > cg2dMaxIters=1000,
(PID.TID 0000.0001) > cg2dTargetResidual=1.E-13,
(PID.TID 0000.0001) > cg3dMaxIters=400,
(PID.TID 0000.0001) > cg3dTargetResidual=1.E-13,
(PID.TID 0000.0001) > &
(PID.TID 0000.0001) >
(PID.TID 0000.0001) ># Time stepping parameters
(PID.TID 0000.0001) > &PARM03
(PID.TID 0000.0001) > niter0=0,
(PID.TID 0000.0001) > nTimeSteps=20,
(PID.TID 0000.0001) > deltaT=1800.0,
(PID.TID 0000.0001) > abEps=0.1,
(PID.TID 0000.0001) > cAdjFreq = -1.,
(PID.TID 0000.0001) > tauCD = 400000.,
(PID.TID 0000.0001) > pChkptFreq=0.0,
(PID.TID 0000.0001) > chkptFreq=0.0,
(PID.TID 0000.0001) > dumpFreq=0.0,
(PID.TID 0000.0001) > taveFreq=0.0,
(PID.TID 0000.0001) > monitorFreq=1.,
(PID.TID 0000.0001) > &
(PID.TID 0000.0001) >
(PID.TID 0000.0001) ># Gridding parameters
(PID.TID 0000.0001) > &PARM04
(PID.TID 0000.0001) > usingCartesianGrid=.FALSE.,
(PID.TID 0000.0001) > usingSphericalPolarGrid=.TRUE.,
(PID.TID 0000.0001) > phiMin = -80.0,
(PID.TID 0000.0001) > delX=50*0.3,
(PID.TID 0000.0001) > delY=100*0.1,
(PID.TID 0000.0001) > delZ=30*30.0,
(PID.TID 0000.0001) > &
(PID.TID 0000.0001) >
(PID.TID 0000.0001) ># Input datasets
(PID.TID 0000.0001) > &PARM05
(PID.TID 0000.0001) > bathyFile='bathy.box',
(PID.TID 0000.0001) > &
(PID.TID 0000.0001) 
(PID.TID 0000.0001) S/R INI_PARMS ; starts to read PARM01
(PID.TID 0000.0001) S/R INI_PARMS ; read PARM01 : OK
(PID.TID 0000.0001) S/R INI_PARMS ; starts to read PARM02
(PID.TID 0000.0001) S/R INI_PARMS ; read PARM02 : OK
(PID.TID 0000.0001) S/R INI_PARMS ; starts to read PARM03
(PID.TID 0000.0001) S/R INI_PARMS ; read PARM03 : OK
(PID.TID 0000.0001) S/R INI_PARMS ; starts to read PARM04
(PID.TID 0000.0001) S/R INI_PARMS ; read PARM04 : OK
(PID.TID 0000.0001) S/R INI_PARMS ; starts to read PARM05
(PID.TID 0000.0001) S/R INI_PARMS ; read PARM05 : OK
(PID.TID 0000.0001)  PACKAGES_BOOT: opening data.pkg
(PID.TID 0000.0001)  OPEN_COPY_DATA_FILE: opening file data.pkg
(PID.TID 0000.0001) // =======================================================
(PID.TID 0000.0001) // Parameter file "data.pkg"
(PID.TID 0000.0001) // =======================================================
(PID.TID 0000.0001) ># Packages
(PID.TID 0000.0001) > &PACKAGES
(PID.TID 0000.0001) > useMNC=.TRUE.,
(PID.TID 0000.0001) > useShelfIce=.true.,
(PID.TID 0000.0001) > &
(PID.TID 0000.0001) 
(PID.TID 0000.0001)  PACKAGES_BOOT: finished reading data.pkg
(PID.TID 0000.0001)  MNC_READPARMS: opening file 'data.mnc'
(PID.TID 0000.0001)  OPEN_COPY_DATA_FILE: opening file data.mnc
(PID.TID 0000.0001) // =======================================================
(PID.TID 0000.0001) // Parameter file "data.mnc"
(PID.TID 0000.0001) // =======================================================
(PID.TID 0000.0001) ># Example "data.mnc" file
(PID.TID 0000.0001) ># Lines beginning "#" are comments
(PID.TID 0000.0001) > &MNC_01
(PID.TID 0000.0001) ># mnc_echo_gvtypes=.FALSE.,
(PID.TID 0000.0001) ># mnc_use_indir=.FALSE.,
(PID.TID 0000.0001) > mnc_use_outdir=.TRUE.,
(PID.TID 0000.0001) > mnc_outdir_str='mnc_test_',
(PID.TID 0000.0001) >#mnc_outdir_date=.TRUE.,
(PID.TID 0000.0001) > monitor_mnc=.FALSE.,
(PID.TID 0000.0001) >#snapshot_mnc=.FALSE.,
(PID.TID 0000.0001) >#timeave_mnc=.FALSE.,
(PID.TID 0000.0001) > pickup_read_mnc=.FALSE.,
(PID.TID 0000.0001) > pickup_write_mnc=.FALSE.,
(PID.TID 0000.0001) > &
(PID.TID 0000.0001) ># Note: Some systems use & as the
(PID.TID 0000.0001) ># namelist terminator. Other systems
(PID.TID 0000.0001) ># use a / character (as shown here).
(PID.TID 0000.0001) 
(PID.TID 0000.0001)  MNC_READPARMS: finished reading data.mnc
(PID.TID 0000.0001)  SHELFICE_READPARMS: opening data.shelfice
(PID.TID 0000.0001)  OPEN_COPY_DATA_FILE: opening file data.shelfice
(PID.TID 0000.0001) // =======================================================
(PID.TID 0000.0001) // Parameter file "data.shelfice"
(PID.TID 0000.0001) // =======================================================
(PID.TID 0000.0001) ># ===================================
(PID.TID 0000.0001) ># | Parameters for SHELFICE package |
(PID.TID 0000.0001) ># ===================================
(PID.TID 0000.0001) > &SHELFICE_PARM01
(PID.TID 0000.0001) > SHELFICEconserve = .TRUE.,
(PID.TID 0000.0001) > SHELFICEboundaryLayer = .TRUE.,
(PID.TID 0000.0001) > SHELFICEtopoFile='icetopo.exp1',
(PID.TID 0000.0001) > SHELFICEloadAnomalyFile = 'phi0surf.exp1.jmd95z',
(PID.TID 0000.0001) > no_slip_shelfice = .false.,
(PID.TID 0000.0001) > SHELFICEwriteState = .TRUE.,
(PID.TID 0000.0001) > &
(PID.TID 0000.0001) 
(PID.TID 0000.0001)  SHELFICE_READPARMS: finished reading data.shelfice
(PID.TID 0000.0001) SET_PARMS: done
(PID.TID 0000.0001) Enter INI_VERTICAL_GRID: setInterFDr=    T ; setCenterDr=    F
(PID.TID 0000.0001) %MON XC_max                       =   1.4850000000000E+01
(PID.TID 0000.0001) %MON XC_min                       =   1.5000000000000E-01
(PID.TID 0000.0001) %MON XC_mean                      =   7.5000000000000E+00
(PID.TID 0000.0001) %MON XC_sd                        =   4.3292609068985E+00
(PID.TID 0000.0001) %MON XG_max                       =   1.4700000000000E+01
(PID.TID 0000.0001) %MON XG_min                       =   1.1102230246252E-16
(PID.TID 0000.0001) %MON XG_mean                      =   7.3500000000000E+00
(PID.TID 0000.0001) %MON XG_sd                        =   4.3292609068985E+00
(PID.TID 0000.0001) %MON DXC_max                      =   1.1380125394806E+04
(PID.TID 0000.0001) %MON DXC_min                      =   5.8203914905589E+03
(PID.TID 0000.0001) %MON DXC_mean                     =   8.6215028627206E+03
(PID.TID 0000.0001) %MON DXC_sd                       =   1.6219001271572E+03
(PID.TID 0000.0001) %MON DXF_max                      =   1.1380125394806E+04
(PID.TID 0000.0001) %MON DXF_min                      =   5.8203914905589E+03
(PID.TID 0000.0001) %MON DXF_mean                     =   8.6215028627206E+03
(PID.TID 0000.0001) %MON DXF_sd                       =   1.6219001271572E+03
(PID.TID 0000.0001) %MON DXG_max                      =   1.1352761512017E+04
(PID.TID 0000.0001) %MON DXG_min                      =   5.7917296935586E+03
(PID.TID 0000.0001) %MON DXG_mean                     =   8.5934208253080E+03
(PID.TID 0000.0001) %MON DXG_sd                       =   1.6222785520817E+03
(PID.TID 0000.0001) %MON DXV_max                      =   1.1352761512017E+04
(PID.TID 0000.0001) %MON DXV_min                      =   5.7917296935586E+03
(PID.TID 0000.0001) %MON DXV_mean                     =   8.5934208253080E+03
(PID.TID 0000.0001) %MON DXV_sd                       =   1.6222785520817E+03
(PID.TID 0000.0001) %MON YC_max                       =  -7.0050000000001E+01
(PID.TID 0000.0001) %MON YC_min                       =  -7.9950000000000E+01
(PID.TID 0000.0001) %MON YC_mean                      =  -7.5000000000000E+01
(PID.TID 0000.0001) %MON YC_sd                        =   2.8866070047720E+00
(PID.TID 0000.0001) %MON YG_max                       =  -7.0100000000001E+01
(PID.TID 0000.0001) %MON YG_min                       =  -8.0000000000000E+01
(PID.TID 0000.0001) %MON YG_mean                      =  -7.5050000000000E+01
(PID.TID 0000.0001) %MON YG_sd                        =   2.8866070047720E+00
(PID.TID 0000.0001) %MON DYC_max                      =   1.1117747335204E+04
(PID.TID 0000.0001) %MON DYC_min                      =   1.1117747335204E+04
(PID.TID 0000.0001) %MON DYC_mean                     =   1.1117747335203E+04
(PID.TID 0000.0001) %MON DYC_sd                       =   6.0754246078432E-10
(PID.TID 0000.0001) %MON DYF_max                      =   1.1117747335204E+04
(PID.TID 0000.0001) %MON DYF_min                      =   1.1117747335204E+04
(PID.TID 0000.0001) %MON DYF_mean                     =   1.1117747335203E+04
(PID.TID 0000.0001) %MON DYF_sd                       =   6.0754246078432E-10
(PID.TID 0000.0001) %MON DYG_max                      =   1.1117747335204E+04
(PID.TID 0000.0001) %MON DYG_min                      =   1.1117747335204E+04
(PID.TID 0000.0001) %MON DYG_mean                     =   1.1117747335203E+04
(PID.TID 0000.0001) %MON DYG_sd                       =   6.0754246078432E-10
(PID.TID 0000.0001) %MON DYU_max                      =   1.1117747335204E+04
(PID.TID 0000.0001) %MON DYU_min                      =   1.1117747335204E+04
(PID.TID 0000.0001) %MON DYU_mean                     =   1.1117747335203E+04
(PID.TID 0000.0001) %MON DYU_sd                       =   6.0754246078432E-10
(PID.TID 0000.0001) %MON RA_max                       =   1.2652134272379E+08
(PID.TID 0000.0001) %MON RA_min                       =   6.4709633770803E+07
(PID.TID 0000.0001) %MON RA_mean                      =   9.5851678311588E+07
(PID.TID 0000.0001) %MON RA_sd                        =   1.8031873527991E+07
(PID.TID 0000.0001) %MON RAW_max                      =   1.2652134272379E+08
(PID.TID 0000.0001) %MON RAW_min                      =   6.4709633770803E+07
(PID.TID 0000.0001) %MON RAW_mean                     =   9.5851678311588E+07
(PID.TID 0000.0001) %MON RAW_sd                       =   1.8031873527991E+07
(PID.TID 0000.0001) %MON RAS_max                      =   1.2621711802744E+08
(PID.TID 0000.0001) %MON RAS_min                      =   6.4390979194019E+07
(PID.TID 0000.0001) %MON RAS_mean                     =   9.5539469354603E+07
(PID.TID 0000.0001) %MON RAS_sd                       =   1.8036080760153E+07
(PID.TID 0000.0001) %MON RAZ_max                      =   1.2621711802744E+08
(PID.TID 0000.0001) %MON RAZ_min                      =   6.4390979194019E+07
(PID.TID 0000.0001) %MON RAZ_mean                     =   9.5539469354603E+07
(PID.TID 0000.0001) %MON RAZ_sd                       =   1.8036080760153E+07
(PID.TID 0000.0001) %MON AngleCS_max                  =   1.0000000000000E+00
(PID.TID 0000.0001) %MON AngleCS_min                  =   1.0000000000000E+00
(PID.TID 0000.0001) %MON AngleCS_mean                 =   1.0000000000000E+00
(PID.TID 0000.0001) %MON AngleCS_sd                   =   0.0000000000000E+00
(PID.TID 0000.0001) %MON AngleSN_max                  =   0.0000000000000E+00
(PID.TID 0000.0001) %MON AngleSN_min                  =   0.0000000000000E+00
(PID.TID 0000.0001) %MON AngleSN_mean                 =   0.0000000000000E+00
(PID.TID 0000.0001) %MON AngleSN_sd                   =   0.0000000000000E+00
(PID.TID 0000.0001)  MDS_READ_FIELD: opening global file: bathy.box
(PID.TID 0000.0001)  MDS_READ_FIELD: opening global file: icetopo.exp1
(PID.TID 0000.0001) // =======================================================
(PID.TID 0000.0001) // Field Model R_low (ini_masks_etc) at iteration          1
(PID.TID 0000.0001) // CMIN =         -9.000000000000000E+02
(PID.TID 0000.0001) // CMAX =         -9.000000000000000E+02
(PID.TID 0000.0001) // CINT =          0.000000000000000E+00
(PID.TID 0000.0001) // SYMBOLS (CMIN->CMAX): -abcdefghijklmnopqrstuvwxyz+
(PID.TID 0000.0001) //                  0.0: .
(PID.TID 0000.0001) // RANGE I (Lo:Hi:Step):(  -2:  53:   1)
(PID.TID 0000.0001) // RANGE J (Lo:Hi:Step):( 103:  -2:  -1)
(PID.TID 0000.0001) // RANGE K (Lo:Hi:Step):(   1:   1:   1)
(PID.TID 0000.0001) // =======================================================
(PID.TID 0000.0001) // =======================================================
(PID.TID 0000.0001) // END OF FIELD                                          =
(PID.TID 0000.0001) // =======================================================
(PID.TID 0000.0001) 
(PID.TID 0000.0001) // =======================================================
(PID.TID 0000.0001) // Field Model Ro_surf (ini_masks_etc) at iteration          1
(PID.TID 0000.0001) // CMIN =         -6.812500000000010E+02
(PID.TID 0000.0001) // CMAX =         -2.000000000000000E+02
(PID.TID 0000.0001) // CINT =          1.782407407407411E+01
(PID.TID 0000.0001) // SYMBOLS (CMIN->CMAX): -abcdefghijklmnopqrstuvwxyz+
(PID.TID 0000.0001) //                  0.0: .
(PID.TID 0000.0001) // RANGE I (Lo:Hi:Step):(  -2:  53:   1)
(PID.TID 0000.0001) // RANGE J (Lo:Hi:Step):( 103:  -2:  -1)
(PID.TID 0000.0001) // RANGE K (Lo:Hi:Step):(   1:   1:   1)
(PID.TID 0000.0001) // =======================================================
(PID.TID 0000.0001) K =   1
(PID.TID 0000.0001) //                I=7       I=17      I=27      I=37      I=47
(PID.TID 0000.0001) // |--J--|210123456|890123456|890123456|890123456|890123456|890123
(PID.TID 0000.0001) //    103 aaa.aaaaaaaaaaaaaaaaaaaaaaaaaaaaaaaaaaaaaaaaaaaaaaaaa.aa
(PID.TID 0000.0001) //    102 ---.-------------------------------------------------.--
(PID.TID 0000.0001) //    101 ........................................................
(PID.TID 0000.0001) //    100 +++.+++++++++++++++++++++++++++++++++++++++++++++++++.++
(PID.TID 0000.0001) //     99 +++.+++++++++++++++++++++++++++++++++++++++++++++++++.++
(PID.TID 0000.0001) //     98 +++.+++++++++++++++++++++++++++++++++++++++++++++++++.++
(PID.TID 0000.0001) //     97 +++.+++++++++++++++++++++++++++++++++++++++++++++++++.++
(PID.TID 0000.0001) //     96 +++.+++++++++++++++++++++++++++++++++++++++++++++++++.++
(PID.TID 0000.0001) //     95 +++.+++++++++++++++++++++++++++++++++++++++++++++++++.++
(PID.TID 0000.0001) //     94 +++.+++++++++++++++++++++++++++++++++++++++++++++++++.++
(PID.TID 0000.0001) //     93 +++.+++++++++++++++++++++++++++++++++++++++++++++++++.++
(PID.TID 0000.0001) //     92 +++.+++++++++++++++++++++++++++++++++++++++++++++++++.++
(PID.TID 0000.0001) //     91 +++.+++++++++++++++++++++++++++++++++++++++++++++++++.++
(PID.TID 0000.0001) //     90 +++.+++++++++++++++++++++++++++++++++++++++++++++++++.++
(PID.TID 0000.0001) //     89 +++.+++++++++++++++++++++++++++++++++++++++++++++++++.++
(PID.TID 0000.0001) //     88 +++.+++++++++++++++++++++++++++++++++++++++++++++++++.++
(PID.TID 0000.0001) //     87 +++.+++++++++++++++++++++++++++++++++++++++++++++++++.++
(PID.TID 0000.0001) //     86 +++.+++++++++++++++++++++++++++++++++++++++++++++++++.++
(PID.TID 0000.0001) //     85 +++.+++++++++++++++++++++++++++++++++++++++++++++++++.++
(PID.TID 0000.0001) //     84 +++.+++++++++++++++++++++++++++++++++++++++++++++++++.++
(PID.TID 0000.0001) //     83 +++.+++++++++++++++++++++++++++++++++++++++++++++++++.++
(PID.TID 0000.0001) //     82 +++.+++++++++++++++++++++++++++++++++++++++++++++++++.++
(PID.TID 0000.0001) //     81 +++.+++++++++++++++++++++++++++++++++++++++++++++++++.++
(PID.TID 0000.0001) //     80 +++.+++++++++++++++++++++++++++++++++++++++++++++++++.++
(PID.TID 0000.0001) //     79 +++.+++++++++++++++++++++++++++++++++++++++++++++++++.++
(PID.TID 0000.0001) //     78 +++.+++++++++++++++++++++++++++++++++++++++++++++++++.++
(PID.TID 0000.0001) //     77 +++.+++++++++++++++++++++++++++++++++++++++++++++++++.++
(PID.TID 0000.0001) //     76 +++.+++++++++++++++++++++++++++++++++++++++++++++++++.++
(PID.TID 0000.0001) //     75 +++.+++++++++++++++++++++++++++++++++++++++++++++++++.++
(PID.TID 0000.0001) //     74 +++.+++++++++++++++++++++++++++++++++++++++++++++++++.++
(PID.TID 0000.0001) //     73 +++.+++++++++++++++++++++++++++++++++++++++++++++++++.++
(PID.TID 0000.0001) //     72 +++.+++++++++++++++++++++++++++++++++++++++++++++++++.++
(PID.TID 0000.0001) //     71 +++.+++++++++++++++++++++++++++++++++++++++++++++++++.++
(PID.TID 0000.0001) //     70 +++.+++++++++++++++++++++++++++++++++++++++++++++++++.++
(PID.TID 0000.0001) //     69 +++.+++++++++++++++++++++++++++++++++++++++++++++++++.++
(PID.TID 0000.0001) //     68 +++.+++++++++++++++++++++++++++++++++++++++++++++++++.++
(PID.TID 0000.0001) //     67 +++.+++++++++++++++++++++++++++++++++++++++++++++++++.++
(PID.TID 0000.0001) //     66 +++.+++++++++++++++++++++++++++++++++++++++++++++++++.++
(PID.TID 0000.0001) //     65 +++.+++++++++++++++++++++++++++++++++++++++++++++++++.++
(PID.TID 0000.0001) //     64 +++.+++++++++++++++++++++++++++++++++++++++++++++++++.++
(PID.TID 0000.0001) //     63 +++.+++++++++++++++++++++++++++++++++++++++++++++++++.++
(PID.TID 0000.0001) //     62 +++.+++++++++++++++++++++++++++++++++++++++++++++++++.++
(PID.TID 0000.0001) //     61 +++.+++++++++++++++++++++++++++++++++++++++++++++++++.++
(PID.TID 0000.0001) //     60 +++.+++++++++++++++++++++++++++++++++++++++++++++++++.++
(PID.TID 0000.0001) //     59 +++.+++++++++++++++++++++++++++++++++++++++++++++++++.++
(PID.TID 0000.0001) //     58 +++.+++++++++++++++++++++++++++++++++++++++++++++++++.++
(PID.TID 0000.0001) //     57 +++.+++++++++++++++++++++++++++++++++++++++++++++++++.++
(PID.TID 0000.0001) //     56 +++.+++++++++++++++++++++++++++++++++++++++++++++++++.++
(PID.TID 0000.0001) //     55 +++.+++++++++++++++++++++++++++++++++++++++++++++++++.++
(PID.TID 0000.0001) //     54 +++.+++++++++++++++++++++++++++++++++++++++++++++++++.++
(PID.TID 0000.0001) //     53 +++.+++++++++++++++++++++++++++++++++++++++++++++++++.++
(PID.TID 0000.0001) //     52 +++.+++++++++++++++++++++++++++++++++++++++++++++++++.++
(PID.TID 0000.0001) //     51 +++.+++++++++++++++++++++++++++++++++++++++++++++++++.++
(PID.TID 0000.0001) //     50 +++.+++++++++++++++++++++++++++++++++++++++++++++++++.++
(PID.TID 0000.0001) //     49 +++.+++++++++++++++++++++++++++++++++++++++++++++++++.++
(PID.TID 0000.0001) //     48 +++.+++++++++++++++++++++++++++++++++++++++++++++++++.++
(PID.TID 0000.0001) //     53 +++.+++++++++++++++++++++++++++++++++++++++++++++++++.++
(PID.TID 0000.0001) //     52 +++.+++++++++++++++++++++++++++++++++++++++++++++++++.++
(PID.TID 0000.0001) //     51 +++.+++++++++++++++++++++++++++++++++++++++++++++++++.++
(PID.TID 0000.0001) //     50 +++.+++++++++++++++++++++++++++++++++++++++++++++++++.++
(PID.TID 0000.0001) //     49 +++.+++++++++++++++++++++++++++++++++++++++++++++++++.++
(PID.TID 0000.0001) //     48 +++.+++++++++++++++++++++++++++++++++++++++++++++++++.++
(PID.TID 0000.0001) //     47 +++.+++++++++++++++++++++++++++++++++++++++++++++++++.++
(PID.TID 0000.0001) //     46 +++.+++++++++++++++++++++++++++++++++++++++++++++++++.++
(PID.TID 0000.0001) //     45 +++.+++++++++++++++++++++++++++++++++++++++++++++++++.++
(PID.TID 0000.0001) //     44 +++.+++++++++++++++++++++++++++++++++++++++++++++++++.++
(PID.TID 0000.0001) //     43 +++.+++++++++++++++++++++++++++++++++++++++++++++++++.++
(PID.TID 0000.0001) //     42 +++.+++++++++++++++++++++++++++++++++++++++++++++++++.++
(PID.TID 0000.0001) //     41 +++.+++++++++++++++++++++++++++++++++++++++++++++++++.++
(PID.TID 0000.0001) //     40 +++.+++++++++++++++++++++++++++++++++++++++++++++++++.++
(PID.TID 0000.0001) //     39 zzz.zzzzzzzzzzzzzzzzzzzzzzzzzzzzzzzzzzzzzzzzzzzzzzzzz.zz
(PID.TID 0000.0001) //     38 yyy.yyyyyyyyyyyyyyyyyyyyyyyyyyyyyyyyyyyyyyyyyyyyyyyyy.yy
(PID.TID 0000.0001) //     37 yyy.yyyyyyyyyyyyyyyyyyyyyyyyyyyyyyyyyyyyyyyyyyyyyyyyy.yy
(PID.TID 0000.0001) //     36 xxx.xxxxxxxxxxxxxxxxxxxxxxxxxxxxxxxxxxxxxxxxxxxxxxxxx.xx
(PID.TID 0000.0001) //     35 www.wwwwwwwwwwwwwwwwwwwwwwwwwwwwwwwwwwwwwwwwwwwwwwwww.ww
(PID.TID 0000.0001) //     34 vvv.vvvvvvvvvvvvvvvvvvvvvvvvvvvvvvvvvvvvvvvvvvvvvvvvv.vv
(PID.TID 0000.0001) //     33 vvv.vvvvvvvvvvvvvvvvvvvvvvvvvvvvvvvvvvvvvvvvvvvvvvvvv.vv
(PID.TID 0000.0001) //     32 uuu.uuuuuuuuuuuuuuuuuuuuuuuuuuuuuuuuuuuuuuuuuuuuuuuuu.uu
(PID.TID 0000.0001) //     31 ttt.ttttttttttttttttttttttttttttttttttttttttttttttttt.tt
(PID.TID 0000.0001) //     30 ttt.ttttttttttttttttttttttttttttttttttttttttttttttttt.tt
(PID.TID 0000.0001) //     29 sss.sssssssssssssssssssssssssssssssssssssssssssssssss.ss
(PID.TID 0000.0001) //     28 rrr.rrrrrrrrrrrrrrrrrrrrrrrrrrrrrrrrrrrrrrrrrrrrrrrrr.rr
(PID.TID 0000.0001) //     27 rrr.rrrrrrrrrrrrrrrrrrrrrrrrrrrrrrrrrrrrrrrrrrrrrrrrr.rr
(PID.TID 0000.0001) //     26 qqq.qqqqqqqqqqqqqqqqqqqqqqqqqqqqqqqqqqqqqqqqqqqqqqqqq.qq
(PID.TID 0000.0001) //     25 ppp.ppppppppppppppppppppppppppppppppppppppppppppppppp.pp
(PID.TID 0000.0001) //     24 ooo.ooooooooooooooooooooooooooooooooooooooooooooooooo.oo
(PID.TID 0000.0001) //     23 ooo.ooooooooooooooooooooooooooooooooooooooooooooooooo.oo
(PID.TID 0000.0001) //     22 nnn.nnnnnnnnnnnnnnnnnnnnnnnnnnnnnnnnnnnnnnnnnnnnnnnnn.nn
(PID.TID 0000.0001) //     21 mmm.mmmmmmmmmmmmmmmmmmmmmmmmmmmmmmmmmmmmmmmmmmmmmmmmm.mm
(PID.TID 0000.0001) //     20 mmm.mmmmmmmmmmmmmmmmmmmmmmmmmmmmmmmmmmmmmmmmmmmmmmmmm.mm
(PID.TID 0000.0001) //     19 lll.lllllllllllllllllllllllllllllllllllllllllllllllll.ll
(PID.TID 0000.0001) //     18 kkk.kkkkkkkkkkkkkkkkkkkkkkkkkkkkkkkkkkkkkkkkkkkkkkkkk.kk
(PID.TID 0000.0001) //     17 kkk.kkkkkkkkkkkkkkkkkkkkkkkkkkkkkkkkkkkkkkkkkkkkkkkkk.kk
(PID.TID 0000.0001) //     16 jjj.jjjjjjjjjjjjjjjjjjjjjjjjjjjjjjjjjjjjjjjjjjjjjjjjj.jj
(PID.TID 0000.0001) //     15 iii.iiiiiiiiiiiiiiiiiiiiiiiiiiiiiiiiiiiiiiiiiiiiiiiii.ii
(PID.TID 0000.0001) //     14 hhh.hhhhhhhhhhhhhhhhhhhhhhhhhhhhhhhhhhhhhhhhhhhhhhhhh.hh
(PID.TID 0000.0001) //     13 hhh.hhhhhhhhhhhhhhhhhhhhhhhhhhhhhhhhhhhhhhhhhhhhhhhhh.hh
(PID.TID 0000.0001) //     12 ggg.ggggggggggggggggggggggggggggggggggggggggggggggggg.gg
(PID.TID 0000.0001) //     11 fff.fffffffffffffffffffffffffffffffffffffffffffffffff.ff
(PID.TID 0000.0001) //     10 fff.fffffffffffffffffffffffffffffffffffffffffffffffff.ff
(PID.TID 0000.0001) //      9 eee.eeeeeeeeeeeeeeeeeeeeeeeeeeeeeeeeeeeeeeeeeeeeeeeee.ee
(PID.TID 0000.0001) //      8 ddd.ddddddddddddddddddddddddddddddddddddddddddddddddd.dd
(PID.TID 0000.0001) //      7 ddd.ddddddddddddddddddddddddddddddddddddddddddddddddd.dd
(PID.TID 0000.0001) //      6 ccc.ccccccccccccccccccccccccccccccccccccccccccccccccc.cc
(PID.TID 0000.0001) //      5 bbb.bbbbbbbbbbbbbbbbbbbbbbbbbbbbbbbbbbbbbbbbbbbbbbbbb.bb
(PID.TID 0000.0001) //      4 aaa.aaaaaaaaaaaaaaaaaaaaaaaaaaaaaaaaaaaaaaaaaaaaaaaaa.aa
(PID.TID 0000.0001) //      3 aaa.aaaaaaaaaaaaaaaaaaaaaaaaaaaaaaaaaaaaaaaaaaaaaaaaa.aa
(PID.TID 0000.0001) //      2 ---.-------------------------------------------------.--
(PID.TID 0000.0001) //      1 ........................................................
(PID.TID 0000.0001) //      0 +++.+++++++++++++++++++++++++++++++++++++++++++++++++.++
(PID.TID 0000.0001) //     -1 +++.+++++++++++++++++++++++++++++++++++++++++++++++++.++
(PID.TID 0000.0001) //     -2 +++.+++++++++++++++++++++++++++++++++++++++++++++++++.++
(PID.TID 0000.0001) // =======================================================
(PID.TID 0000.0001) // END OF FIELD                                          =
(PID.TID 0000.0001) // =======================================================
(PID.TID 0000.0001) 
(PID.TID 0000.0001) // =======================================================
(PID.TID 0000.0001) // Field hFacC at iteration          1
(PID.TID 0000.0001) // CMIN =          1.000000000000000E+32
(PID.TID 0000.0001) // CMAX =         -1.000000000000000E+32
(PID.TID 0000.0001) // CINT =          0.000000000000000E+00
(PID.TID 0000.0001) // SYMBOLS (CMIN->CMAX): -abcdefghijklmnopqrstuvwxyz+
(PID.TID 0000.0001) //                  0.0: .
(PID.TID 0000.0001) // RANGE I (Lo:Hi:Step):(  -2:  53:   1)
(PID.TID 0000.0001) // RANGE J (Lo:Hi:Step):( 103:  -2:  -1)
(PID.TID 0000.0001) // RANGE K (Lo:Hi:Step):(   1:   1:   1)
(PID.TID 0000.0001) // =======================================================
(PID.TID 0000.0001) // =======================================================
(PID.TID 0000.0001) // END OF FIELD                                          =
(PID.TID 0000.0001) // =======================================================
(PID.TID 0000.0001) 
(PID.TID 0000.0001) // =======================================================
(PID.TID 0000.0001) // Field hFacW at iteration          1
(PID.TID 0000.0001) // CMIN =          1.000000000000000E+32
(PID.TID 0000.0001) // CMAX =         -1.000000000000000E+32
(PID.TID 0000.0001) // CINT =          0.000000000000000E+00
(PID.TID 0000.0001) // SYMBOLS (CMIN->CMAX): -abcdefghijklmnopqrstuvwxyz+
(PID.TID 0000.0001) //                  0.0: .
(PID.TID 0000.0001) // RANGE I (Lo:Hi:Step):(  -2:  53:   1)
(PID.TID 0000.0001) // RANGE J (Lo:Hi:Step):( 103:  -2:  -1)
(PID.TID 0000.0001) // RANGE K (Lo:Hi:Step):(   1:   1:   1)
(PID.TID 0000.0001) // =======================================================
(PID.TID 0000.0001) // =======================================================
(PID.TID 0000.0001) // END OF FIELD                                          =
(PID.TID 0000.0001) // =======================================================
(PID.TID 0000.0001) 
(PID.TID 0000.0001) // =======================================================
(PID.TID 0000.0001) // Field hFacS at iteration          1
(PID.TID 0000.0001) // CMIN =          1.000000000000000E+32
(PID.TID 0000.0001) // CMAX =         -1.000000000000000E+32
(PID.TID 0000.0001) // CINT =          0.000000000000000E+00
(PID.TID 0000.0001) // SYMBOLS (CMIN->CMAX): -abcdefghijklmnopqrstuvwxyz+
(PID.TID 0000.0001) //                  0.0: .
(PID.TID 0000.0001) // RANGE I (Lo:Hi:Step):(  -2:  53:   1)
(PID.TID 0000.0001) // RANGE J (Lo:Hi:Step):( 103:  -2:  -1)
(PID.TID 0000.0001) // RANGE K (Lo:Hi:Step):(   1:   1:   1)
(PID.TID 0000.0001) // =======================================================
(PID.TID 0000.0001) // =======================================================
(PID.TID 0000.0001) // END OF FIELD                                          =
(PID.TID 0000.0001) // =======================================================
(PID.TID 0000.0001) 
(PID.TID 0000.0001) 
(PID.TID 0000.0001) // ===================================
(PID.TID 0000.0001) // GAD parameters :
(PID.TID 0000.0001) // ===================================
(PID.TID 0000.0001) tempAdvScheme =   /* Temp. Horiz.Advection scheme selector */
(PID.TID 0000.0001)                       2
(PID.TID 0000.0001)     ;
(PID.TID 0000.0001) tempVertAdvScheme =   /* Temp. Vert. Advection scheme selector */
(PID.TID 0000.0001)                       2
(PID.TID 0000.0001)     ;
(PID.TID 0000.0001) tempMultiDimAdvec =   /* use Muti-Dim Advec method for Temp */
(PID.TID 0000.0001)                   F
(PID.TID 0000.0001)     ;
(PID.TID 0000.0001) tempSOM_Advection = /* use 2nd Order Moment Advection for Temp */
(PID.TID 0000.0001)                   F
(PID.TID 0000.0001)     ;
(PID.TID 0000.0001) AdamsBashforthGt = /* apply Adams-Bashforth extrapolation on Gt */
(PID.TID 0000.0001)                   T
(PID.TID 0000.0001)     ;
(PID.TID 0000.0001) AdamsBashforth_T = /* apply Adams-Bashforth extrapolation on Temp */
(PID.TID 0000.0001)                   F
(PID.TID 0000.0001)     ;
(PID.TID 0000.0001) saltAdvScheme =   /* Salt. Horiz.advection scheme selector */
(PID.TID 0000.0001)                       2
(PID.TID 0000.0001)     ;
(PID.TID 0000.0001) saltVertAdvScheme =   /* Salt. Vert. Advection scheme selector */
(PID.TID 0000.0001)                       2
(PID.TID 0000.0001)     ;
(PID.TID 0000.0001) saltMultiDimAdvec =   /* use Muti-Dim Advec method for Salt */
(PID.TID 0000.0001)                   F
(PID.TID 0000.0001)     ;
(PID.TID 0000.0001) saltSOM_Advection = /* use 2nd Order Moment Advection for Salt */
(PID.TID 0000.0001)                   F
(PID.TID 0000.0001)     ;
(PID.TID 0000.0001) AdamsBashforthGs = /* apply Adams-Bashforth extrapolation on Gs */
(PID.TID 0000.0001)                   T
(PID.TID 0000.0001)     ;
(PID.TID 0000.0001) AdamsBashforth_S = /* apply Adams-Bashforth extrapolation on Salt */
(PID.TID 0000.0001)                   F
(PID.TID 0000.0001)     ;
(PID.TID 0000.0001) // ===================================
(PID.TID 0000.0001) %MON fCori_max                    =  -1.3709057042516E-04
(PID.TID 0000.0001) %MON fCori_min                    =  -1.4360464034757E-04
(PID.TID 0000.0001) %MON fCori_mean                   =  -1.4069429304699E-04
(PID.TID 0000.0001) %MON fCori_sd                     =   1.9069739624987E-06
(PID.TID 0000.0001) %MON fCoriG_max                   =  -1.3713394327439E-04
(PID.TID 0000.0001) %MON fCoriG_min                   =  -1.4362679550910E-04
(PID.TID 0000.0001) %MON fCoriG_mean                  =  -1.4072713798624E-04
(PID.TID 0000.0001) %MON fCoriG_sd                    =   1.9008093726821E-06
(PID.TID 0000.0001) %MON fCoriCos_max                 =   4.9761447480159E-05
(PID.TID 0000.0001) %MON fCoriCos_min                 =   2.5450607565678E-05
(PID.TID 0000.0001) %MON fCoriCos_mean                =   3.7698922201606E-05
(PID.TID 0000.0001) %MON fCoriCos_sd                  =   7.0920218535054E-06
(PID.TID 0000.0001) INI_CG2D: CG2D normalisation factor =  1.0404366262810520E-03
(PID.TID 0000.0001) 
(PID.TID 0000.0001) // =======================================================
(PID.TID 0000.0001) // Model configuration
(PID.TID 0000.0001) // =======================================================
(PID.TID 0000.0001) //
(PID.TID 0000.0001) // "Physical" paramters ( PARM01 in namelist )
(PID.TID 0000.0001) //
(PID.TID 0000.0001) buoyancyRelation = /* Type of relation to get Buoyancy */
(PID.TID 0000.0001)               'OCEANIC'
(PID.TID 0000.0001)     ;
(PID.TID 0000.0001) fluidIsAir  =  /* fluid major constituent is Air */
(PID.TID 0000.0001)                   F
(PID.TID 0000.0001)     ;
(PID.TID 0000.0001) fluidIsWater=  /* fluid major constituent is Water */
(PID.TID 0000.0001)                   T
(PID.TID 0000.0001)     ;
(PID.TID 0000.0001) usingPCoords =  /* use p (or p*) vertical coordinate */
(PID.TID 0000.0001)                   F
(PID.TID 0000.0001)     ;
(PID.TID 0000.0001) usingZCoords =  /* use z (or z*) vertical coordinate */
(PID.TID 0000.0001)                   T
(PID.TID 0000.0001)     ;
(PID.TID 0000.0001) tRef =   /* Reference temperature profile ( oC or K ) */
(PID.TID 0000.0001)    30 @ -1.900000000000000E+00              /* K =  1: 30 */
(PID.TID 0000.0001)     ;
(PID.TID 0000.0001) sRef =   /* Reference salinity profile ( psu ) */
(PID.TID 0000.0001)    30 @  3.440000000000000E+01              /* K =  1: 30 */
(PID.TID 0000.0001)     ;
(PID.TID 0000.0001) viscAh =   /* Lateral eddy viscosity ( m^2/s ) */
(PID.TID 0000.0001)                 6.000000000000000E+02
(PID.TID 0000.0001)     ;
(PID.TID 0000.0001) viscAhMax =   /* Maximum lateral eddy viscosity ( m^2/s ) */
(PID.TID 0000.0001)                 1.000000000000000E+21
(PID.TID 0000.0001)     ;
(PID.TID 0000.0001) viscAhGrid =   /* Grid dependent lateral eddy viscosity ( non-dim. ) */
(PID.TID 0000.0001)                 0.000000000000000E+00
(PID.TID 0000.0001)     ;
(PID.TID 0000.0001) useFullLeith =   /* Use Full Form of Leith Viscosity on/off flag*/
(PID.TID 0000.0001)                   F
(PID.TID 0000.0001)     ;
(PID.TID 0000.0001) useStrainTensionVisc =   /* Use StrainTension Form of Viscous Operator on/off flag*/
(PID.TID 0000.0001)                   F
(PID.TID 0000.0001)     ;
(PID.TID 0000.0001) useAreaViscLength =   /* Use area for visc length instead of geom. mean*/
(PID.TID 0000.0001)                   F
(PID.TID 0000.0001)     ;
(PID.TID 0000.0001) viscC2leith = /* Leith harmonic visc. factor (on grad(vort),non-dim.) */
(PID.TID 0000.0001)                 0.000000000000000E+00
(PID.TID 0000.0001)     ;
(PID.TID 0000.0001) viscC2leithD = /* Leith harmonic viscosity factor (on grad(div),non-dim.) */
(PID.TID 0000.0001)                 0.000000000000000E+00
(PID.TID 0000.0001)     ;
(PID.TID 0000.0001) viscC2smag =   /* Smagorinsky harmonic viscosity factor (non-dim.) */
(PID.TID 0000.0001)                 0.000000000000000E+00
(PID.TID 0000.0001)     ;
(PID.TID 0000.0001) viscA4 =   /* Lateral biharmonic viscosity ( m^4/s ) */
(PID.TID 0000.0001)                 0.000000000000000E+00
(PID.TID 0000.0001)     ;
(PID.TID 0000.0001) viscA4Max =   /* Maximum biharmonic viscosity ( m^2/s ) */
(PID.TID 0000.0001)                 1.000000000000000E+21
(PID.TID 0000.0001)     ;
(PID.TID 0000.0001) viscA4Grid =   /* Grid dependent biharmonic viscosity ( non-dim. ) */
(PID.TID 0000.0001)                 0.000000000000000E+00
(PID.TID 0000.0001)     ;
(PID.TID 0000.0001) viscC4leith = /* Leith biharm viscosity factor (on grad(vort), non-dim.) */
(PID.TID 0000.0001)                 0.000000000000000E+00
(PID.TID 0000.0001)     ;
(PID.TID 0000.0001) viscC4leithD = /* Leith biharm viscosity factor (on grad(div), non-dim.) */
(PID.TID 0000.0001)                 0.000000000000000E+00
(PID.TID 0000.0001)     ;
(PID.TID 0000.0001) viscC4Smag = /* Smagorinsky biharm viscosity factor (non-dim) */
(PID.TID 0000.0001)                 0.000000000000000E+00
(PID.TID 0000.0001)     ;
(PID.TID 0000.0001) no_slip_sides =  /* Viscous BCs: No-slip sides */
(PID.TID 0000.0001)                   F
(PID.TID 0000.0001)     ;
(PID.TID 0000.0001) sideDragFactor = /* side-drag scaling factor (non-dim) */
(PID.TID 0000.0001)                 2.000000000000000E+00
(PID.TID 0000.0001)     ;
(PID.TID 0000.0001) viscAr =   /* Vertical eddy viscosity ( m^2/s ) */
(PID.TID 0000.0001)                 1.000000000000000E-03
(PID.TID 0000.0001)     ;
(PID.TID 0000.0001) no_slip_bottom =  /* Viscous BCs: No-slip bottom */
(PID.TID 0000.0001)                   T
(PID.TID 0000.0001)     ;
(PID.TID 0000.0001) bottomDragLinear = /* linear bottom-drag coefficient ( m/s ) */
(PID.TID 0000.0001)                 0.000000000000000E+00
(PID.TID 0000.0001)     ;
(PID.TID 0000.0001) bottomDragQuadratic = /* quadratic bottom-drag coefficient (-) */
(PID.TID 0000.0001)                 2.500000000000000E-03
(PID.TID 0000.0001)     ;
(PID.TID 0000.0001) diffKhT =   /* Laplacian diffusion of heat laterally ( m^2/s ) */
(PID.TID 0000.0001)                 1.000000000000000E+02
(PID.TID 0000.0001)     ;
(PID.TID 0000.0001) diffK4T =   /* Biharmonic diffusion of heat laterally ( m^4/s ) */
(PID.TID 0000.0001)                 0.000000000000000E+00
(PID.TID 0000.0001)     ;
(PID.TID 0000.0001) diffKhS =   /* Laplacian diffusion of salt laterally ( m^2/s ) */
(PID.TID 0000.0001)                 1.000000000000000E+02
(PID.TID 0000.0001)     ;
(PID.TID 0000.0001) diffK4S =   /* Biharmonic diffusion of salt laterally ( m^4/s ) */
(PID.TID 0000.0001)                 0.000000000000000E+00
(PID.TID 0000.0001)     ;
(PID.TID 0000.0001) diffKrNrT = /* vertical profile of vertical diffusion of Temp ( m^2/s )*/
(PID.TID 0000.0001)    30 @  5.000000000000000E-05              /* K =  1: 30 */
(PID.TID 0000.0001)     ;
(PID.TID 0000.0001) diffKrNrS = /* vertical profile of vertical diffusion of Salt ( m^2/s )*/
(PID.TID 0000.0001)    30 @  5.000000000000000E-05              /* K =  1: 30 */
(PID.TID 0000.0001)     ;
(PID.TID 0000.0001) diffKrBL79surf = /* Surface diffusion for Bryan and Lewis 79 ( m^2/s ) */
(PID.TID 0000.0001)                 0.000000000000000E+00
(PID.TID 0000.0001)     ;
(PID.TID 0000.0001) diffKrBL79deep = /* Deep diffusion for Bryan and Lewis 1979 ( m^2/s ) */
(PID.TID 0000.0001)                 0.000000000000000E+00
(PID.TID 0000.0001)     ;
(PID.TID 0000.0001) diffKrBL79scl = /* Depth scale for Bryan and Lewis 1979 ( m ) */
(PID.TID 0000.0001)                 2.000000000000000E+02
(PID.TID 0000.0001)     ;
(PID.TID 0000.0001) diffKrBL79Ho = /* Turning depth for Bryan and Lewis 1979 ( m ) */
(PID.TID 0000.0001)                -2.000000000000000E+03
(PID.TID 0000.0001)     ;
(PID.TID 0000.0001) ivdc_kappa = /* Implicit Vertical Diffusivity for Convection ( m^2/s ) */
(PID.TID 0000.0001)                 0.000000000000000E+00
(PID.TID 0000.0001)     ;
(PID.TID 0000.0001) hMixCriteria=  /* Criteria for mixed-layer diagnostic */
(PID.TID 0000.0001)                -8.000000000000000E-01
(PID.TID 0000.0001)     ;
(PID.TID 0000.0001) dRhoSmall=  /* Parameter for mixed-layer diagnostic */
(PID.TID 0000.0001)                 1.000000000000000E-06
(PID.TID 0000.0001)     ;
(PID.TID 0000.0001) hMixSmooth=  /* Smoothing parameter for mixed-layer diagnostic */
(PID.TID 0000.0001)                 0.000000000000000E+00
(PID.TID 0000.0001)     ;
(PID.TID 0000.0001) eosType =  /* Type of Equation of State */
(PID.TID 0000.0001)               'JMD95Z'
(PID.TID 0000.0001)     ;
(PID.TID 0000.0001) tAlpha =   /* Linear EOS thermal expansion coefficient ( 1/oC ) */
(PID.TID 0000.0001)                 1.234567000000000E+05
(PID.TID 0000.0001)     ;
(PID.TID 0000.0001) sBeta =   /* Linear EOS haline contraction coefficient ( 1/psu ) */
(PID.TID 0000.0001)                 1.234567000000000E+05
(PID.TID 0000.0001)     ;
(PID.TID 0000.0001) rhonil =   /* Reference density ( kg/m^3 ) */
(PID.TID 0000.0001)                 1.030000000000000E+03
(PID.TID 0000.0001)     ;
(PID.TID 0000.0001) rhoConst =   /* Reference density ( kg/m^3 ) */
(PID.TID 0000.0001)                 1.030000000000000E+03
(PID.TID 0000.0001)     ;
(PID.TID 0000.0001) rhoFacC = /* normalized Reference density @ cell-Center (-) */
(PID.TID 0000.0001)    30 @  1.000000000000000E+00              /* K =  1: 30 */
(PID.TID 0000.0001)     ;
(PID.TID 0000.0001) rhoFacF = /* normalized Reference density @ W-Interface (-) */
(PID.TID 0000.0001)    31 @  1.000000000000000E+00              /* K =  1: 31 */
(PID.TID 0000.0001)     ;
(PID.TID 0000.0001) rhoConstFresh =   /* Reference density ( kg/m^3 ) */
(PID.TID 0000.0001)                 1.030000000000000E+03
(PID.TID 0000.0001)     ;
(PID.TID 0000.0001) gravity =   /* Gravitational acceleration ( m/s^2 ) */
(PID.TID 0000.0001)                 9.810000000000000E+00
(PID.TID 0000.0001)     ;
(PID.TID 0000.0001) gBaro =   /* Barotropic gravity ( m/s^2 ) */
(PID.TID 0000.0001)                 9.810000000000000E+00
(PID.TID 0000.0001)     ;
(PID.TID 0000.0001) rotationPeriod =   /* Rotation Period ( s ) */
(PID.TID 0000.0001)                 8.616400000000000E+04
(PID.TID 0000.0001)     ;
(PID.TID 0000.0001) omega =   /* Angular velocity ( rad/s ) */
(PID.TID 0000.0001)                 7.292123516990375E-05
(PID.TID 0000.0001)     ;
(PID.TID 0000.0001) f0 =   /* Reference coriolis parameter ( 1/s ) */
(PID.TID 0000.0001)                 1.000000000000000E-04
(PID.TID 0000.0001)     ;
(PID.TID 0000.0001) beta =   /* Beta ( 1/(m.s) ) */
(PID.TID 0000.0001)                 9.999999999999999E-12
(PID.TID 0000.0001)     ;
(PID.TID 0000.0001) freeSurfFac =   /* Implicit free surface factor */
(PID.TID 0000.0001)                 1.000000000000000E+00
(PID.TID 0000.0001)     ;
(PID.TID 0000.0001) implicitFreeSurface =   /* Implicit free surface on/off flag */
(PID.TID 0000.0001)                   T
(PID.TID 0000.0001)     ;
(PID.TID 0000.0001) rigidLid =   /* Rigid lid on/off flag */
(PID.TID 0000.0001)                   F
(PID.TID 0000.0001)     ;
(PID.TID 0000.0001) implicSurfPress =   /* Surface Pressure implicit factor (0-1)*/
(PID.TID 0000.0001)                 1.000000000000000E+00
(PID.TID 0000.0001)     ;
(PID.TID 0000.0001) implicDiv2Dflow =   /* Barot. Flow Div. implicit factor (0-1)*/
(PID.TID 0000.0001)                 1.000000000000000E+00
(PID.TID 0000.0001)     ;
(PID.TID 0000.0001) exactConserv =   /* Exact Volume Conservation on/off flag*/
(PID.TID 0000.0001)                   T
(PID.TID 0000.0001)     ;
(PID.TID 0000.0001) linFSConserveTr =   /* Tracer correction for Lin Free Surface on/off flag*/
(PID.TID 0000.0001)                   F
(PID.TID 0000.0001)     ;
(PID.TID 0000.0001) uniformLin_PhiSurf =   /* use uniform Bo_surf on/off flag*/
(PID.TID 0000.0001)                   T
(PID.TID 0000.0001)     ;
(PID.TID 0000.0001) nonlinFreeSurf =   /* Non-linear Free Surf. options (-1,0,1,2,3)*/
(PID.TID 0000.0001)                       0
(PID.TID 0000.0001)     ;
(PID.TID 0000.0001)      -1,0= Off ; 1,2,3= On, 2=+rescale gU,gV, 3=+update cg2d solv.
(PID.TID 0000.0001) hFacInf =   /* lower threshold for hFac (nonlinFreeSurf only)*/
(PID.TID 0000.0001)                 2.000000000000000E-01
(PID.TID 0000.0001)     ;
(PID.TID 0000.0001) hFacSup =   /* upper threshold for hFac (nonlinFreeSurf only)*/
(PID.TID 0000.0001)                 2.000000000000000E+00
(PID.TID 0000.0001)     ;
(PID.TID 0000.0001) select_rStar = /* r* Vertical coord. options (=0 r coord.; > 0 uses r*) */
(PID.TID 0000.0001)                       0
(PID.TID 0000.0001)     ;
(PID.TID 0000.0001) selectAddFluid = /* option for mass source/sink of fluid (=0: off) */
(PID.TID 0000.0001)                       0
(PID.TID 0000.0001)     ;
(PID.TID 0000.0001) useRealFreshWaterFlux = /* Real Fresh Water Flux on/off flag*/
(PID.TID 0000.0001)                   F
(PID.TID 0000.0001)     ;
(PID.TID 0000.0001) temp_EvPrRn = /* Temp. of Evap/Prec/R (UNSET=use local T)(oC)*/
(PID.TID 0000.0001)                 1.234567000000000E+05
(PID.TID 0000.0001)     ;
(PID.TID 0000.0001) salt_EvPrRn = /* Salin. of Evap/Prec/R (UNSET=use local S)(ppt)*/
(PID.TID 0000.0001)                 0.000000000000000E+00
(PID.TID 0000.0001)     ;
(PID.TID 0000.0001) convertFW2Salt = /* convert F.W. Flux to Salt Flux (-1=use local S)(ppt)*/
(PID.TID 0000.0001)                 3.340000000000000E+01
(PID.TID 0000.0001)     ;
(PID.TID 0000.0001) use3Dsolver = /* use 3-D pressure solver on/off flag */
(PID.TID 0000.0001)                   F
(PID.TID 0000.0001)     ;
(PID.TID 0000.0001) nonHydrostatic =  /* Non-Hydrostatic on/off flag */
(PID.TID 0000.0001)                   F
(PID.TID 0000.0001)     ;
(PID.TID 0000.0001) nh_Am2 = /* Non-Hydrostatic terms scaling factor */
(PID.TID 0000.0001)                 1.000000000000000E+00
(PID.TID 0000.0001)     ;
(PID.TID 0000.0001) quasiHydrostatic = /* Quasi-Hydrostatic on/off flag */
(PID.TID 0000.0001)                   F
(PID.TID 0000.0001)     ;
(PID.TID 0000.0001) momStepping =  /* Momentum equation on/off flag */
(PID.TID 0000.0001)                   T
(PID.TID 0000.0001)     ;
(PID.TID 0000.0001) vectorInvariantMomentum= /* Vector-Invariant Momentum on/off */
(PID.TID 0000.0001)                   F
(PID.TID 0000.0001)     ;
(PID.TID 0000.0001) momAdvection =  /* Momentum advection on/off flag */
(PID.TID 0000.0001)                   T
(PID.TID 0000.0001)     ;
(PID.TID 0000.0001) momViscosity =  /* Momentum viscosity on/off flag */
(PID.TID 0000.0001)                   T
(PID.TID 0000.0001)     ;
(PID.TID 0000.0001) momImplVertAdv =/* Momentum implicit vert. advection on/off*/
(PID.TID 0000.0001)                   F
(PID.TID 0000.0001)     ;
(PID.TID 0000.0001) implicitViscosity = /* Implicit viscosity on/off flag */
(PID.TID 0000.0001)                   F
(PID.TID 0000.0001)     ;
(PID.TID 0000.0001) metricTerms =  /* metric-Terms on/off flag */
(PID.TID 0000.0001)                   T
(PID.TID 0000.0001)     ;
(PID.TID 0000.0001) useNHMTerms = /* Non-Hydrostatic Metric-Terms on/off */
(PID.TID 0000.0001)                   F
(PID.TID 0000.0001)     ;
(PID.TID 0000.0001) useConstantF =  /* use Constant f0 Coriolis flag */
(PID.TID 0000.0001)                   F
(PID.TID 0000.0001)     ;
(PID.TID 0000.0001) useBetaPlaneF = /* use Beta-Plane Coriolis flag */
(PID.TID 0000.0001)                   F
(PID.TID 0000.0001)     ;
(PID.TID 0000.0001) useSphereF  =   /* use Spherical Coriolis flag */
(PID.TID 0000.0001)                   T
(PID.TID 0000.0001)     ;
(PID.TID 0000.0001) use3dCoriolis = /* 3-D Coriolis on/off flag */
(PID.TID 0000.0001)                   F
(PID.TID 0000.0001)     ;
(PID.TID 0000.0001) useCoriolis =  /* Coriolis on/off flag */
(PID.TID 0000.0001)                   T
(PID.TID 0000.0001)     ;
(PID.TID 0000.0001) useCDscheme =  /* CD scheme on/off flag */
(PID.TID 0000.0001)                   T
(PID.TID 0000.0001)     ;
(PID.TID 0000.0001) useJamartWetPoints= /* Coriolis WetPoints method flag */
(PID.TID 0000.0001)                   F
(PID.TID 0000.0001)     ;
(PID.TID 0000.0001) useJamartMomAdv= /* V.I. Non-linear terms Jamart flag */
(PID.TID 0000.0001)                   F
(PID.TID 0000.0001)     ;
(PID.TID 0000.0001) useAbsVorticity= /* Work with f+zeta in Coriolis */
(PID.TID 0000.0001)                   F
(PID.TID 0000.0001)     ;
(PID.TID 0000.0001) selectVortScheme= /* Scheme selector for Vorticity-Term */
(PID.TID 0000.0001)               123456789
(PID.TID 0000.0001)    = 0 : enstrophy (Shallow-Water Eq.) conserving scheme by Sadourny, JAS 75
(PID.TID 0000.0001)    = 1 : same as 0 with modified hFac
(PID.TID 0000.0001)    = 2 : energy conserving scheme (used by Sadourny in JAS 75 paper)
(PID.TID 0000.0001)    = 3 : energy (general) and enstrophy (2D, nonDiv.) conserving scheme
(PID.TID 0000.0001)          from Sadourny (Burridge & Haseler, ECMWF Rep.4, 1977)
(PID.TID 0000.0001)     ;
(PID.TID 0000.0001) upwindVorticity= /* Upwind bias vorticity flag */
(PID.TID 0000.0001)                   F
(PID.TID 0000.0001)     ;
(PID.TID 0000.0001) highOrderVorticity= /* High order interp. of vort. flag */
(PID.TID 0000.0001)                   F
(PID.TID 0000.0001)     ;
(PID.TID 0000.0001) upwindShear= /* Upwind vertical Shear advection flag */
(PID.TID 0000.0001)                   F
(PID.TID 0000.0001)     ;
(PID.TID 0000.0001) selectKEscheme= /* Kinetic Energy scheme selector */
(PID.TID 0000.0001)                       0
(PID.TID 0000.0001)     ;
(PID.TID 0000.0001) momForcing =  /* Momentum forcing on/off flag */
(PID.TID 0000.0001)                   T
(PID.TID 0000.0001)     ;
(PID.TID 0000.0001) momPressureForcing =  /* Momentum pressure term on/off flag */
(PID.TID 0000.0001)                   T
(PID.TID 0000.0001)     ;
(PID.TID 0000.0001) implicitIntGravWave= /* Implicit Internal Gravity Wave flag */
(PID.TID 0000.0001)                   F
(PID.TID 0000.0001)     ;
(PID.TID 0000.0001) staggerTimeStep =   /* Stagger time stepping on/off flag */
(PID.TID 0000.0001)                   F
(PID.TID 0000.0001)     ;
(PID.TID 0000.0001) multiDimAdvection =   /* enable/disable Multi-Dim Advection */
(PID.TID 0000.0001)                   T
(PID.TID 0000.0001)     ;
(PID.TID 0000.0001) useMultiDimAdvec =   /* Multi-Dim Advection is/is-not used */
(PID.TID 0000.0001)                   F
(PID.TID 0000.0001)     ;
(PID.TID 0000.0001) implicitDiffusion =/* Implicit Diffusion on/off flag */
(PID.TID 0000.0001)                   F
(PID.TID 0000.0001)     ;
(PID.TID 0000.0001) tempStepping =  /* Temperature equation on/off flag */
(PID.TID 0000.0001)                   T
(PID.TID 0000.0001)     ;
(PID.TID 0000.0001) tempAdvection=  /* Temperature advection on/off flag */
(PID.TID 0000.0001)                   T
(PID.TID 0000.0001)     ;
(PID.TID 0000.0001) tempImplVertAdv =/* Temp. implicit vert. advection on/off */
(PID.TID 0000.0001)                   F
(PID.TID 0000.0001)     ;
(PID.TID 0000.0001) tempForcing  =  /* Temperature forcing on/off flag */
(PID.TID 0000.0001)                   T
(PID.TID 0000.0001)     ;
(PID.TID 0000.0001) tempIsActiveTr = /* Temp. is a dynamically Active Tracer */
(PID.TID 0000.0001)                   T
(PID.TID 0000.0001)     ;
(PID.TID 0000.0001) saltStepping =  /* Salinity equation on/off flag */
(PID.TID 0000.0001)                   T
(PID.TID 0000.0001)     ;
(PID.TID 0000.0001) saltAdvection=  /* Salinity advection on/off flag */
(PID.TID 0000.0001)                   T
(PID.TID 0000.0001)     ;
(PID.TID 0000.0001) saltImplVertAdv =/* Sali. implicit vert. advection on/off */
(PID.TID 0000.0001)                   F
(PID.TID 0000.0001)     ;
(PID.TID 0000.0001) saltForcing  =  /* Salinity forcing on/off flag */
(PID.TID 0000.0001)                   T
(PID.TID 0000.0001)     ;
(PID.TID 0000.0001) saltIsActiveTr = /* Salt  is a dynamically Active Tracer */
(PID.TID 0000.0001)                   T
(PID.TID 0000.0001)     ;
(PID.TID 0000.0001)  readBinaryPrec = /* Precision used for reading binary files */
(PID.TID 0000.0001)                      64
(PID.TID 0000.0001)     ;
(PID.TID 0000.0001) writeBinaryPrec = /* Precision used for writing binary files */
(PID.TID 0000.0001)                      32
(PID.TID 0000.0001)     ;
(PID.TID 0000.0001)  globalFiles = /* write "global" (=not per tile) files */
(PID.TID 0000.0001)                   F
(PID.TID 0000.0001)     ;
(PID.TID 0000.0001)  useSingleCpuIO = /* only master MPI process does I/O */
(PID.TID 0000.0001)                   F
(PID.TID 0000.0001)     ;
(PID.TID 0000.0001)  debugMode  =  /* Debug Mode on/off flag */
(PID.TID 0000.0001)                   F
(PID.TID 0000.0001)     ;
(PID.TID 0000.0001)    debLevA  =  /* 1rst level of debugging */
(PID.TID 0000.0001)                       1
(PID.TID 0000.0001)     ;
(PID.TID 0000.0001)    debLevB  =  /* 2nd  level of debugging */
(PID.TID 0000.0001)                       2
(PID.TID 0000.0001)     ;
(PID.TID 0000.0001)  debugLevel =  /* select debugging level */
(PID.TID 0000.0001)                       1
(PID.TID 0000.0001)     ;
(PID.TID 0000.0001) //
(PID.TID 0000.0001) // Elliptic solver(s) paramters ( PARM02 in namelist )
(PID.TID 0000.0001) //
(PID.TID 0000.0001) cg2dMaxIters =   /* Upper limit on 2d con. grad iterations  */
(PID.TID 0000.0001)                    1000
(PID.TID 0000.0001)     ;
(PID.TID 0000.0001) cg2dChkResFreq =   /* 2d con. grad convergence test frequency */
(PID.TID 0000.0001)                       1
(PID.TID 0000.0001)     ;
(PID.TID 0000.0001) cg2dTargetResidual =   /* 2d con. grad target residual  */
(PID.TID 0000.0001)                 1.000000000000000E-13
(PID.TID 0000.0001)     ;
(PID.TID 0000.0001) cg2dTargetResWunit =   /* CG2d target residual [W units] */
(PID.TID 0000.0001)                -1.000000000000000E+00
(PID.TID 0000.0001)     ;
(PID.TID 0000.0001) cg2dPreCondFreq =   /* Freq. for updating cg2d preconditioner */
(PID.TID 0000.0001)                       1
(PID.TID 0000.0001)     ;
(PID.TID 0000.0001) //
(PID.TID 0000.0001) // Time stepping paramters ( PARM03 in namelist )
(PID.TID 0000.0001) //
(PID.TID 0000.0001) deltaTmom =   /* Momentum equation timestep ( s ) */
(PID.TID 0000.0001)                 1.800000000000000E+03
(PID.TID 0000.0001)     ;
(PID.TID 0000.0001) deltaTfreesurf =   /* FreeSurface equation timestep ( s ) */
(PID.TID 0000.0001)                 1.800000000000000E+03
(PID.TID 0000.0001)     ;
(PID.TID 0000.0001) dTtracerLev =   /* Tracer equation timestep ( s ) */
(PID.TID 0000.0001)    30 @  1.800000000000000E+03              /* K =  1: 30 */
(PID.TID 0000.0001)     ;
(PID.TID 0000.0001) deltaTClock  =   /* Model clock timestep ( s ) */
(PID.TID 0000.0001)                 1.800000000000000E+03
(PID.TID 0000.0001)     ;
(PID.TID 0000.0001) cAdjFreq =   /* Convective adjustment interval ( s ) */
(PID.TID 0000.0001)                 1.800000000000000E+03
(PID.TID 0000.0001)     ;
(PID.TID 0000.0001) momForcingOutAB = /* =1: take Momentum Forcing out of Adams-Bash. stepping */
(PID.TID 0000.0001)                       0
(PID.TID 0000.0001)     ;
(PID.TID 0000.0001) tracForcingOutAB = /* =1: take T,S,pTr Forcing out of Adams-Bash. stepping */
(PID.TID 0000.0001)                       0
(PID.TID 0000.0001)     ;
(PID.TID 0000.0001) momDissip_In_AB = /* put Dissipation Tendency in Adams-Bash. stepping */
(PID.TID 0000.0001)                   T
(PID.TID 0000.0001)     ;
(PID.TID 0000.0001) doAB_onGtGs = /* apply AB on Tendencies (rather than on T,S)*/
(PID.TID 0000.0001)                   T
(PID.TID 0000.0001)     ;
(PID.TID 0000.0001) abEps =   /* Adams-Bashforth-2 stabilizing weight */
(PID.TID 0000.0001)                 1.000000000000000E-01
(PID.TID 0000.0001)     ;
(PID.TID 0000.0001) tauCD =   /* CD coupling time-scale ( s ) */
(PID.TID 0000.0001)                 4.000000000000000E+05
(PID.TID 0000.0001)     ;
(PID.TID 0000.0001) rCD =   /* Normalised CD coupling parameter */
(PID.TID 0000.0001)                 9.955000000000001E-01
(PID.TID 0000.0001)     ;
(PID.TID 0000.0001) pickupStrictlyMatch= /* stop if pickup do not strictly match */
(PID.TID 0000.0001)                   T
(PID.TID 0000.0001)     ;
(PID.TID 0000.0001) nIter0 =   /* Run starting timestep number  */
(PID.TID 0000.0001)                       0
(PID.TID 0000.0001)     ;
(PID.TID 0000.0001) nTimeSteps =   /* Number of timesteps */
(PID.TID 0000.0001)                      20
(PID.TID 0000.0001)     ;
(PID.TID 0000.0001) baseTime =   /* Model base time ( s ). */
(PID.TID 0000.0001)                 0.000000000000000E+00
(PID.TID 0000.0001)     ;
(PID.TID 0000.0001) startTime =   /* Run start time ( s ). */
(PID.TID 0000.0001)                 0.000000000000000E+00
(PID.TID 0000.0001)     ;
(PID.TID 0000.0001) endTime =   /* Integration ending time ( s ). */
(PID.TID 0000.0001)                 3.600000000000000E+04
(PID.TID 0000.0001)     ;
(PID.TID 0000.0001) pChkPtFreq =   /* Permanent restart/checkpoint file interval ( s ). */
(PID.TID 0000.0001)                 0.000000000000000E+00
(PID.TID 0000.0001)     ;
(PID.TID 0000.0001) chkPtFreq =   /* Rolling restart/checkpoint file interval ( s ). */
(PID.TID 0000.0001)                 0.000000000000000E+00
(PID.TID 0000.0001)     ;
(PID.TID 0000.0001) pickup_write_mdsio =   /* Model IO flag. */
(PID.TID 0000.0001)                   T
(PID.TID 0000.0001)     ;
(PID.TID 0000.0001) pickup_read_mdsio =   /* Model IO flag. */
(PID.TID 0000.0001)                   T
(PID.TID 0000.0001)     ;
(PID.TID 0000.0001) pickup_write_mnc =   /* Model IO flag. */
(PID.TID 0000.0001)                   F
(PID.TID 0000.0001)     ;
(PID.TID 0000.0001) pickup_read_mnc =   /* Model IO flag. */
(PID.TID 0000.0001)                   F
(PID.TID 0000.0001)     ;
(PID.TID 0000.0001) pickup_write_immed =   /* Model IO flag. */
(PID.TID 0000.0001)                   F
(PID.TID 0000.0001)     ;
(PID.TID 0000.0001) writePickupAtEnd =   /* Model IO flag. */
(PID.TID 0000.0001)                   T
(PID.TID 0000.0001)     ;
(PID.TID 0000.0001) dumpFreq =   /* Model state write out interval ( s ). */
(PID.TID 0000.0001)                 0.000000000000000E+00
(PID.TID 0000.0001)     ;
(PID.TID 0000.0001) dumpInitAndLast= /* write out Initial & Last iter. model state */
(PID.TID 0000.0001)                   T
(PID.TID 0000.0001)     ;
(PID.TID 0000.0001) snapshot_mdsio =   /* Model IO flag. */
(PID.TID 0000.0001)                   F
(PID.TID 0000.0001)     ;
(PID.TID 0000.0001) snapshot_mnc =   /* Model IO flag. */
(PID.TID 0000.0001)                   T
(PID.TID 0000.0001)     ;
(PID.TID 0000.0001) monitorFreq =   /* Monitor output interval ( s ). */
(PID.TID 0000.0001)                 1.000000000000000E+00
(PID.TID 0000.0001)     ;
(PID.TID 0000.0001) monitorSelect = /* select group of variables to monitor */
(PID.TID 0000.0001)                       3
(PID.TID 0000.0001)     ;
(PID.TID 0000.0001) monitor_stdio =   /* Model IO flag. */
(PID.TID 0000.0001)                   T
(PID.TID 0000.0001)     ;
(PID.TID 0000.0001) monitor_mnc =   /* Model IO flag. */
(PID.TID 0000.0001)                   F
(PID.TID 0000.0001)     ;
(PID.TID 0000.0001) externForcingPeriod =   /* forcing period (s) */
(PID.TID 0000.0001)                 0.000000000000000E+00
(PID.TID 0000.0001)     ;
(PID.TID 0000.0001) externForcingCycle =   /* period of the cyle (s). */
(PID.TID 0000.0001)                 0.000000000000000E+00
(PID.TID 0000.0001)     ;
(PID.TID 0000.0001) tauThetaClimRelax =   /* relaxation time scale (s) */
(PID.TID 0000.0001)                 0.000000000000000E+00
(PID.TID 0000.0001)     ;
(PID.TID 0000.0001) tauSaltClimRelax =   /* relaxation time scale (s) */
(PID.TID 0000.0001)                 0.000000000000000E+00
(PID.TID 0000.0001)     ;
(PID.TID 0000.0001) latBandClimRelax =   /* max. Lat. where relaxation */
(PID.TID 0000.0001)                 1.800000000000000E+02
(PID.TID 0000.0001)     ;
(PID.TID 0000.0001) //
(PID.TID 0000.0001) // Gridding paramters ( PARM04 in namelist )
(PID.TID 0000.0001) //
(PID.TID 0000.0001) usingCartesianGrid = /* Cartesian coordinates flag ( True/False ) */
(PID.TID 0000.0001)                   F
(PID.TID 0000.0001)     ;
(PID.TID 0000.0001) usingCylindricalGrid = /* Cylindrical coordinates flag ( True/False ) */
(PID.TID 0000.0001)                   F
(PID.TID 0000.0001)     ;
(PID.TID 0000.0001) usingSphericalPolarGrid = /* Spherical coordinates flag ( True/False ) */
(PID.TID 0000.0001)                   T
(PID.TID 0000.0001)     ;
(PID.TID 0000.0001) usingCurvilinearGrid = /* Curvilinear coordinates flag ( True/False ) */
(PID.TID 0000.0001)                   F
(PID.TID 0000.0001)     ;
(PID.TID 0000.0001) Ro_SeaLevel = /* r(1) ( units of r ==  m ) */
(PID.TID 0000.0001)                 0.000000000000000E+00
(PID.TID 0000.0001)     ;
(PID.TID 0000.0001) rkSign =   /* index orientation relative to vertical coordinate */
(PID.TID 0000.0001)                -1.000000000000000E+00
(PID.TID 0000.0001)     ;
(PID.TID 0000.0001) gravitySign = /* gravity orientation relative to vertical coordinate */
(PID.TID 0000.0001)                -1.000000000000000E+00
(PID.TID 0000.0001)     ;
(PID.TID 0000.0001) mass2rUnit = /* convert mass per unit area [kg/m2] to r-units [m] */
(PID.TID 0000.0001)                 9.708737864077669E-04
(PID.TID 0000.0001)     ;
(PID.TID 0000.0001) rUnit2mass = /* convert r-units [m] to mass per unit area [kg/m2] */
(PID.TID 0000.0001)                 1.030000000000000E+03
(PID.TID 0000.0001)     ;
(PID.TID 0000.0001) drC =   /* C spacing ( units of r ) */
(PID.TID 0000.0001)                 1.500000000000000E+01,      /* K =  1 */
(PID.TID 0000.0001)    29 @  3.000000000000000E+01              /* K =  2: 30 */
(PID.TID 0000.0001)     ;
(PID.TID 0000.0001) drF =   /* W spacing ( units of r ) */
(PID.TID 0000.0001)    30 @  3.000000000000000E+01              /* K =  1: 30 */
(PID.TID 0000.0001)     ;
(PID.TID 0000.0001) delX =   /* U spacing ( m - cartesian, degrees - spherical ) */
(PID.TID 0000.0001)    50 @  3.000000000000000E-01              /* I =  1: 50 */
(PID.TID 0000.0001)     ;
(PID.TID 0000.0001) delY =   /* V spacing ( m - cartesian, degrees - spherical ) */
(PID.TID 0000.0001)   100 @  1.000000000000000E-01              /* J =  1:100 */
(PID.TID 0000.0001)     ;
(PID.TID 0000.0001) phiMin =    /* South edge (ignored - cartesian, degrees - spherical ) */
(PID.TID 0000.0001)                -8.000000000000000E+01
(PID.TID 0000.0001)     ;
(PID.TID 0000.0001) thetaMin =    /* West edge ( ignored - cartesian, degrees - spherical ) */
(PID.TID 0000.0001)                 0.000000000000000E+00
(PID.TID 0000.0001)     ;
(PID.TID 0000.0001) rSphere =  /* Radius ( ignored - cartesian, m - spherical ) */
(PID.TID 0000.0001)                 6.370000000000000E+06
(PID.TID 0000.0001)     ;
(PID.TID 0000.0001) deepAtmosphere = /* Deep/Shallow Atmosphere flag (True/False) */
(PID.TID 0000.0001)                   F
(PID.TID 0000.0001)     ;
(PID.TID 0000.0001) xcoord =   /* P-point X coord ( m - cartesian, degrees - spherical ) */
(PID.TID 0000.0001)                 1.500000000000001E-01,      /* I =  1 */
(PID.TID 0000.0001)                 4.500000000000001E-01,      /* I =  2 */
(PID.TID 0000.0001)                 7.500000000000002E-01,      /* I =  3 */
(PID.TID 0000.0001)                 1.050000000000000E+00,      /* I =  4 */
(PID.TID 0000.0001)                 1.350000000000000E+00,      /* I =  5 */
(PID.TID 0000.0001)                 1.650000000000000E+00,      /* I =  6 */
(PID.TID 0000.0001)                 1.950000000000000E+00,      /* I =  7 */
(PID.TID 0000.0001)                 2.250000000000000E+00,      /* I =  8 */
(PID.TID 0000.0001)                 2.550000000000000E+00,      /* I =  9 */
(PID.TID 0000.0001)                 2.850000000000000E+00,      /* I = 10 */
(PID.TID 0000.0001)                 3.149999999999999E+00,      /* I = 11 */
(PID.TID 0000.0001)                 3.449999999999999E+00,      /* I = 12 */
(PID.TID 0000.0001)                 3.749999999999999E+00,      /* I = 13 */
(PID.TID 0000.0001)                 4.049999999999999E+00,      /* I = 14 */
(PID.TID 0000.0001)                 4.350000000000000E+00,      /* I = 15 */
(PID.TID 0000.0001)                 4.649999999999999E+00,      /* I = 16 */
(PID.TID 0000.0001)                 4.949999999999999E+00,      /* I = 17 */
(PID.TID 0000.0001)                 5.249999999999998E+00,      /* I = 18 */
(PID.TID 0000.0001)                 5.549999999999999E+00,      /* I = 19 */
(PID.TID 0000.0001)                 5.849999999999998E+00,      /* I = 20 */
(PID.TID 0000.0001)                 6.149999999999999E+00,      /* I = 21 */
(PID.TID 0000.0001)                 6.449999999999998E+00,      /* I = 22 */
(PID.TID 0000.0001)                 6.749999999999998E+00,      /* I = 23 */
(PID.TID 0000.0001)                 7.049999999999997E+00,      /* I = 24 */
(PID.TID 0000.0001)                 7.349999999999997E+00,      /* I = 25 */
(PID.TID 0000.0001)                 7.649999999999997E+00,      /* I = 26 */
(PID.TID 0000.0001)                 7.949999999999998E+00,      /* I = 27 */
(PID.TID 0000.0001)                 8.249999999999998E+00,      /* I = 28 */
(PID.TID 0000.0001)                 8.549999999999999E+00,      /* I = 29 */
(PID.TID 0000.0001)                 8.850000000000000E+00,      /* I = 30 */
(PID.TID 0000.0001)                 9.150000000000000E+00,      /* I = 31 */
(PID.TID 0000.0001)                 9.450000000000001E+00,      /* I = 32 */
(PID.TID 0000.0001)                 9.750000000000002E+00,      /* I = 33 */
(PID.TID 0000.0001)                 1.005000000000000E+01,      /* I = 34 */
(PID.TID 0000.0001)                 1.035000000000000E+01,      /* I = 35 */
(PID.TID 0000.0001)                 1.065000000000000E+01,      /* I = 36 */
(PID.TID 0000.0001)                 1.095000000000001E+01,      /* I = 37 */
(PID.TID 0000.0001)                 1.125000000000001E+01,      /* I = 38 */
(PID.TID 0000.0001)                 1.155000000000000E+01,      /* I = 39 */
(PID.TID 0000.0001)                 1.185000000000001E+01,      /* I = 40 */
(PID.TID 0000.0001)                 1.215000000000001E+01,      /* I = 41 */
(PID.TID 0000.0001)                 1.245000000000001E+01,      /* I = 42 */
(PID.TID 0000.0001)                 1.275000000000001E+01,      /* I = 43 */
(PID.TID 0000.0001)                 1.305000000000001E+01,      /* I = 44 */
(PID.TID 0000.0001)                 1.335000000000001E+01,      /* I = 45 */
(PID.TID 0000.0001)                 1.365000000000001E+01,      /* I = 46 */
(PID.TID 0000.0001)                 1.395000000000001E+01,      /* I = 47 */
(PID.TID 0000.0001)                 1.425000000000001E+01,      /* I = 48 */
(PID.TID 0000.0001)                 1.455000000000001E+01,      /* I = 49 */
(PID.TID 0000.0001)                 1.485000000000001E+01       /* I = 50 */
(PID.TID 0000.0001)     ;
(PID.TID 0000.0001) ycoord =   /* P-point Y coord ( m - cartesian, degrees - spherical ) */
(PID.TID 0000.0001)                -7.995000000000000E+01,      /* J =  1 */
(PID.TID 0000.0001)                -7.985000000000001E+01,      /* J =  2 */
(PID.TID 0000.0001)                -7.975000000000001E+01,      /* J =  3 */
(PID.TID 0000.0001)                -7.965000000000002E+01,      /* J =  4 */
(PID.TID 0000.0001)                -7.955000000000003E+01,      /* J =  5 */
(PID.TID 0000.0001)                -7.945000000000003E+01,      /* J =  6 */
(PID.TID 0000.0001)                -7.935000000000004E+01,      /* J =  7 */
(PID.TID 0000.0001)                -7.925000000000004E+01,      /* J =  8 */
(PID.TID 0000.0001)                -7.915000000000005E+01,      /* J =  9 */
(PID.TID 0000.0001)                -7.905000000000005E+01,      /* J = 10 */
(PID.TID 0000.0001)                -7.895000000000006E+01,      /* J = 11 */
(PID.TID 0000.0001)                -7.885000000000007E+01,      /* J = 12 */
(PID.TID 0000.0001)                -7.875000000000007E+01,      /* J = 13 */
(PID.TID 0000.0001)                -7.865000000000008E+01,      /* J = 14 */
(PID.TID 0000.0001)                -7.855000000000008E+01,      /* J = 15 */
(PID.TID 0000.0001)                -7.845000000000009E+01,      /* J = 16 */
(PID.TID 0000.0001)                -7.835000000000009E+01,      /* J = 17 */
(PID.TID 0000.0001)                -7.825000000000010E+01,      /* J = 18 */
(PID.TID 0000.0001)                -7.815000000000011E+01,      /* J = 19 */
(PID.TID 0000.0001)                -7.805000000000011E+01,      /* J = 20 */
(PID.TID 0000.0001)                -7.795000000000012E+01,      /* J = 21 */
(PID.TID 0000.0001)                -7.785000000000012E+01,      /* J = 22 */
(PID.TID 0000.0001)                -7.775000000000013E+01,      /* J = 23 */
(PID.TID 0000.0001)                -7.765000000000013E+01,      /* J = 24 */
(PID.TID 0000.0001)                -7.755000000000014E+01,      /* J = 25 */
(PID.TID 0000.0001)                -7.745000000000014E+01,      /* J = 26 */
(PID.TID 0000.0001)                -7.735000000000015E+01,      /* J = 27 */
(PID.TID 0000.0001)                -7.725000000000016E+01,      /* J = 28 */
(PID.TID 0000.0001)                -7.715000000000016E+01,      /* J = 29 */
(PID.TID 0000.0001)                -7.705000000000017E+01,      /* J = 30 */
(PID.TID 0000.0001)                -7.695000000000017E+01,      /* J = 31 */
(PID.TID 0000.0001)                -7.685000000000018E+01,      /* J = 32 */
(PID.TID 0000.0001)                -7.675000000000018E+01,      /* J = 33 */
(PID.TID 0000.0001)                -7.665000000000019E+01,      /* J = 34 */
(PID.TID 0000.0001)                -7.655000000000020E+01,      /* J = 35 */
(PID.TID 0000.0001)                -7.645000000000020E+01,      /* J = 36 */
(PID.TID 0000.0001)                -7.635000000000021E+01,      /* J = 37 */
(PID.TID 0000.0001)                -7.625000000000021E+01,      /* J = 38 */
(PID.TID 0000.0001)                -7.615000000000022E+01,      /* J = 39 */
(PID.TID 0000.0001)                -7.605000000000022E+01,      /* J = 40 */
(PID.TID 0000.0001)                -7.595000000000023E+01,      /* J = 41 */
(PID.TID 0000.0001)                -7.585000000000024E+01,      /* J = 42 */
(PID.TID 0000.0001)                -7.575000000000024E+01,      /* J = 43 */
(PID.TID 0000.0001)                -7.565000000000025E+01,      /* J = 44 */
(PID.TID 0000.0001)                -7.555000000000025E+01,      /* J = 45 */
(PID.TID 0000.0001)                -7.545000000000026E+01,      /* J = 46 */
(PID.TID 0000.0001)                -7.535000000000026E+01,      /* J = 47 */
(PID.TID 0000.0001)                -7.525000000000027E+01,      /* J = 48 */
(PID.TID 0000.0001)                -7.515000000000028E+01,      /* J = 49 */
(PID.TID 0000.0001)                -7.505000000000028E+01,      /* J = 50 */
(PID.TID 0000.0001)                -7.495000000000029E+01,      /* J = 51 */
(PID.TID 0000.0001)                -7.485000000000029E+01,      /* J = 52 */
(PID.TID 0000.0001)                -7.475000000000030E+01,      /* J = 53 */
(PID.TID 0000.0001)                -7.465000000000030E+01,      /* J = 54 */
(PID.TID 0000.0001)                -7.455000000000031E+01,      /* J = 55 */
(PID.TID 0000.0001)                -7.445000000000032E+01,      /* J = 56 */
(PID.TID 0000.0001)                -7.435000000000032E+01,      /* J = 57 */
(PID.TID 0000.0001)                -7.425000000000033E+01,      /* J = 58 */
(PID.TID 0000.0001)                -7.415000000000033E+01,      /* J = 59 */
(PID.TID 0000.0001)                -7.405000000000034E+01,      /* J = 60 */
(PID.TID 0000.0001)                -7.395000000000034E+01,      /* J = 61 */
(PID.TID 0000.0001)                -7.385000000000035E+01,      /* J = 62 */
(PID.TID 0000.0001)                -7.375000000000036E+01,      /* J = 63 */
(PID.TID 0000.0001)                -7.365000000000036E+01,      /* J = 64 */
(PID.TID 0000.0001)                -7.355000000000037E+01,      /* J = 65 */
(PID.TID 0000.0001)                -7.345000000000037E+01,      /* J = 66 */
(PID.TID 0000.0001)                -7.335000000000038E+01,      /* J = 67 */
(PID.TID 0000.0001)                -7.325000000000038E+01,      /* J = 68 */
(PID.TID 0000.0001)                -7.315000000000039E+01,      /* J = 69 */
(PID.TID 0000.0001)                -7.305000000000040E+01,      /* J = 70 */
(PID.TID 0000.0001)                -7.295000000000040E+01,      /* J = 71 */
(PID.TID 0000.0001)                -7.285000000000041E+01,      /* J = 72 */
(PID.TID 0000.0001)                -7.275000000000041E+01,      /* J = 73 */
(PID.TID 0000.0001)                -7.265000000000042E+01,      /* J = 74 */
(PID.TID 0000.0001)                -7.255000000000042E+01,      /* J = 75 */
(PID.TID 0000.0001)                -7.245000000000043E+01,      /* J = 76 */
(PID.TID 0000.0001)                -7.235000000000043E+01,      /* J = 77 */
(PID.TID 0000.0001)                -7.225000000000044E+01,      /* J = 78 */
(PID.TID 0000.0001)                -7.215000000000045E+01,      /* J = 79 */
(PID.TID 0000.0001)                -7.205000000000045E+01,      /* J = 80 */
(PID.TID 0000.0001)                -7.195000000000046E+01,      /* J = 81 */
(PID.TID 0000.0001)                -7.185000000000046E+01,      /* J = 82 */
(PID.TID 0000.0001)                -7.175000000000047E+01,      /* J = 83 */
(PID.TID 0000.0001)                -7.165000000000047E+01,      /* J = 84 */
(PID.TID 0000.0001)                -7.155000000000048E+01,      /* J = 85 */
(PID.TID 0000.0001)                -7.145000000000049E+01,      /* J = 86 */
(PID.TID 0000.0001)                -7.135000000000049E+01,      /* J = 87 */
(PID.TID 0000.0001)                -7.125000000000050E+01,      /* J = 88 */
(PID.TID 0000.0001)                -7.115000000000050E+01,      /* J = 89 */
(PID.TID 0000.0001)                -7.105000000000051E+01,      /* J = 90 */
(PID.TID 0000.0001)                -7.095000000000051E+01,      /* J = 91 */
(PID.TID 0000.0001)                -7.085000000000052E+01,      /* J = 92 */
(PID.TID 0000.0001)                -7.075000000000053E+01,      /* J = 93 */
(PID.TID 0000.0001)                -7.065000000000053E+01,      /* J = 94 */
(PID.TID 0000.0001)                -7.055000000000054E+01,      /* J = 95 */
(PID.TID 0000.0001)                -7.045000000000054E+01,      /* J = 96 */
(PID.TID 0000.0001)                -7.035000000000055E+01,      /* J = 97 */
(PID.TID 0000.0001)                -7.025000000000055E+01,      /* J = 98 */
(PID.TID 0000.0001)                -7.015000000000056E+01,      /* J = 99 */
(PID.TID 0000.0001)                -7.005000000000057E+01       /* J =100 */
(PID.TID 0000.0001)     ;
(PID.TID 0000.0001) rcoord =   /* P-point R coordinate (  units of r ) */
(PID.TID 0000.0001)                -1.500000000000000E+01,      /* K =  1 */
(PID.TID 0000.0001)                -4.500000000000000E+01,      /* K =  2 */
(PID.TID 0000.0001)                -7.500000000000000E+01,      /* K =  3 */
(PID.TID 0000.0001)                -1.050000000000000E+02,      /* K =  4 */
(PID.TID 0000.0001)                -1.350000000000000E+02,      /* K =  5 */
(PID.TID 0000.0001)                -1.650000000000000E+02,      /* K =  6 */
(PID.TID 0000.0001)                -1.950000000000000E+02,      /* K =  7 */
(PID.TID 0000.0001)                -2.250000000000000E+02,      /* K =  8 */
(PID.TID 0000.0001)                -2.550000000000000E+02,      /* K =  9 */
(PID.TID 0000.0001)                -2.850000000000000E+02,      /* K = 10 */
(PID.TID 0000.0001)                -3.150000000000000E+02,      /* K = 11 */
(PID.TID 0000.0001)                -3.450000000000000E+02,      /* K = 12 */
(PID.TID 0000.0001)                -3.750000000000000E+02,      /* K = 13 */
(PID.TID 0000.0001)                -4.050000000000000E+02,      /* K = 14 */
(PID.TID 0000.0001)                -4.350000000000000E+02,      /* K = 15 */
(PID.TID 0000.0001)                -4.650000000000000E+02,      /* K = 16 */
(PID.TID 0000.0001)                -4.950000000000000E+02,      /* K = 17 */
(PID.TID 0000.0001)                -5.250000000000000E+02,      /* K = 18 */
(PID.TID 0000.0001)                -5.550000000000000E+02,      /* K = 19 */
(PID.TID 0000.0001)                -5.850000000000000E+02,      /* K = 20 */
(PID.TID 0000.0001)                -6.150000000000000E+02,      /* K = 21 */
(PID.TID 0000.0001)                -6.450000000000000E+02,      /* K = 22 */
(PID.TID 0000.0001)                -6.750000000000000E+02,      /* K = 23 */
(PID.TID 0000.0001)                -7.050000000000000E+02,      /* K = 24 */
(PID.TID 0000.0001)                -7.350000000000000E+02,      /* K = 25 */
(PID.TID 0000.0001)                -7.650000000000000E+02,      /* K = 26 */
(PID.TID 0000.0001)                -7.950000000000000E+02,      /* K = 27 */
(PID.TID 0000.0001)                -8.250000000000000E+02,      /* K = 28 */
(PID.TID 0000.0001)                -8.550000000000000E+02,      /* K = 29 */
(PID.TID 0000.0001)                -8.850000000000000E+02       /* K = 30 */
(PID.TID 0000.0001)     ;
(PID.TID 0000.0001) rF =   /* W-Interf. R coordinate (  units of r ) */
(PID.TID 0000.0001)                 0.000000000000000E+00,      /* K =  1 */
(PID.TID 0000.0001)                -3.000000000000000E+01,      /* K =  2 */
(PID.TID 0000.0001)                -6.000000000000000E+01,      /* K =  3 */
(PID.TID 0000.0001)                -9.000000000000000E+01,      /* K =  4 */
(PID.TID 0000.0001)                -1.200000000000000E+02,      /* K =  5 */
(PID.TID 0000.0001)                -1.500000000000000E+02,      /* K =  6 */
(PID.TID 0000.0001)                -1.800000000000000E+02,      /* K =  7 */
(PID.TID 0000.0001)                -2.100000000000000E+02,      /* K =  8 */
(PID.TID 0000.0001)                -2.400000000000000E+02,      /* K =  9 */
(PID.TID 0000.0001)                -2.700000000000000E+02,      /* K = 10 */
(PID.TID 0000.0001)                -3.000000000000000E+02,      /* K = 11 */
(PID.TID 0000.0001)                -3.300000000000000E+02,      /* K = 12 */
(PID.TID 0000.0001)                -3.600000000000000E+02,      /* K = 13 */
(PID.TID 0000.0001)                -3.900000000000000E+02,      /* K = 14 */
(PID.TID 0000.0001)                -4.200000000000000E+02,      /* K = 15 */
(PID.TID 0000.0001)                -4.500000000000000E+02,      /* K = 16 */
(PID.TID 0000.0001)                -4.800000000000000E+02,      /* K = 17 */
(PID.TID 0000.0001)                -5.100000000000000E+02,      /* K = 18 */
(PID.TID 0000.0001)                -5.400000000000000E+02,      /* K = 19 */
(PID.TID 0000.0001)                -5.700000000000000E+02,      /* K = 20 */
(PID.TID 0000.0001)                -6.000000000000000E+02,      /* K = 21 */
(PID.TID 0000.0001)                -6.300000000000000E+02,      /* K = 22 */
(PID.TID 0000.0001)                -6.600000000000000E+02,      /* K = 23 */
(PID.TID 0000.0001)                -6.900000000000000E+02,      /* K = 24 */
(PID.TID 0000.0001)                -7.200000000000000E+02,      /* K = 25 */
(PID.TID 0000.0001)                -7.500000000000000E+02,      /* K = 26 */
(PID.TID 0000.0001)                -7.800000000000000E+02,      /* K = 27 */
(PID.TID 0000.0001)                -8.100000000000000E+02,      /* K = 28 */
(PID.TID 0000.0001)                -8.400000000000000E+02,      /* K = 29 */
(PID.TID 0000.0001)                -8.700000000000000E+02,      /* K = 30 */
(PID.TID 0000.0001)                -9.000000000000000E+02       /* K = 31 */
(PID.TID 0000.0001)     ;
(PID.TID 0000.0001) deepFacC = /* deep-model grid factor @ cell-Center (-) */
(PID.TID 0000.0001)    30 @  1.000000000000000E+00              /* K =  1: 30 */
(PID.TID 0000.0001)     ;
(PID.TID 0000.0001) deepFacF = /* deep-model grid factor @ W-Interface (-) */
(PID.TID 0000.0001)    31 @  1.000000000000000E+00              /* K =  1: 31 */
(PID.TID 0000.0001)     ;
(PID.TID 0000.0001) rVel2wUnit = /* convert units: rVel -> wSpeed (=1 if z-coord)*/
(PID.TID 0000.0001)    31 @  1.000000000000000E+00              /* K =  1: 31 */
(PID.TID 0000.0001)     ;
(PID.TID 0000.0001) wUnit2rVel = /* convert units: wSpeed -> rVel (=1 if z-coord)*/
(PID.TID 0000.0001)    31 @  1.000000000000000E+00              /* K =  1: 31 */
(PID.TID 0000.0001)     ;
(PID.TID 0000.0001) dBdrRef = /* Vertical gradient of reference boyancy [(m/s/r)^2)] */
(PID.TID 0000.0001)    30 @  0.000000000000000E+00              /* K =  1: 30 */
(PID.TID 0000.0001)     ;
(PID.TID 0000.0001) rotateGrid = /* use rotated grid ( True/False ) */
(PID.TID 0000.0001)                   F
(PID.TID 0000.0001)     ;
(PID.TID 0000.0001) phiEuler = /* Euler angle, rotation about original z-coordinate [rad] */
(PID.TID 0000.0001)                 0.000000000000000E+00
(PID.TID 0000.0001)     ;
(PID.TID 0000.0001) thetaEuler = /* Euler angle, rotation about new x-coordinate [rad] */
(PID.TID 0000.0001)                 0.000000000000000E+00
(PID.TID 0000.0001)     ;
(PID.TID 0000.0001) psiEuler = /* Euler angle, rotation about new z-coordinate [rad] */
(PID.TID 0000.0001)                 0.000000000000000E+00
(PID.TID 0000.0001)     ;
(PID.TID 0000.0001) dxF =  /* dxF(:,1,:,1) ( units: m ) */
(PID.TID 0000.0001)    50 @  5.820391490558872E+03              /* I =  1: 50 */
(PID.TID 0000.0001)     ;
(PID.TID 0000.0001) dxF =  /* dxF(1,:,1,:) ( units: m ) */
(PID.TID 0000.0001)                 5.820391490558872E+03,      /* J =  1 */
(PID.TID 0000.0001)                 5.877701765291692E+03,      /* J =  2 */
(PID.TID 0000.0001)                 5.934994135525598E+03,      /* J =  3 */
(PID.TID 0000.0001)                 5.992268426738092E+03,      /* J =  4 */
(PID.TID 0000.0001)                 6.049524464461751E+03,      /* J =  5 */
(PID.TID 0000.0001)                 6.106762074284755E+03,      /* J =  6 */
(PID.TID 0000.0001)                 6.163981081851418E+03,      /* J =  7 */
(PID.TID 0000.0001)                 6.221181312862721E+03,      /* J =  8 */
(PID.TID 0000.0001)                 6.278362593076839E+03,      /* J =  9 */
(PID.TID 0000.0001)                 6.335524748309675E+03,      /* J = 10 */
(PID.TID 0000.0001)                 6.392667604435392E+03,      /* J = 11 */
(PID.TID 0000.0001)                 6.449790987386939E+03,      /* J = 12 */
(PID.TID 0000.0001)                 6.506894723156589E+03,      /* J = 13 */
(PID.TID 0000.0001)                 6.563978637796454E+03,      /* J = 14 */
(PID.TID 0000.0001)                 6.621042557419033E+03,      /* J = 15 */
(PID.TID 0000.0001)                 6.678086308197730E+03,      /* J = 16 */
(PID.TID 0000.0001)                 6.735109716367390E+03,      /* J = 17 */
(PID.TID 0000.0001)                 6.792112608224819E+03,      /* J = 18 */
(PID.TID 0000.0001)                 6.849094810129332E+03,      /* J = 19 */
(PID.TID 0000.0001)                 6.906056148503244E+03,      /* J = 20 */
(PID.TID 0000.0001)                 6.962996449832446E+03,      /* J = 21 */
(PID.TID 0000.0001)                 7.019915540666910E+03,      /* J = 22 */
(PID.TID 0000.0001)                 7.076813247621209E+03,      /* J = 23 */
(PID.TID 0000.0001)                 7.133689397375063E+03,      /* J = 24 */
(PID.TID 0000.0001)                 7.190543816673855E+03,      /* J = 25 */
(PID.TID 0000.0001)                 7.247376332329164E+03,      /* J = 26 */
(PID.TID 0000.0001)                 7.304186771219292E+03,      /* J = 27 */
(PID.TID 0000.0001)                 7.360974960289787E+03,      /* J = 28 */
(PID.TID 0000.0001)                 7.417740726553981E+03,      /* J = 29 */
(PID.TID 0000.0001)                 7.474483897093503E+03,      /* J = 30 */
(PID.TID 0000.0001)                 7.531204299058815E+03,      /* J = 31 */
(PID.TID 0000.0001)                 7.587901759669735E+03,      /* J = 32 */
(PID.TID 0000.0001)                 7.644576106215967E+03,      /* J = 33 */
(PID.TID 0000.0001)                 7.701227166057623E+03,      /* J = 34 */
(PID.TID 0000.0001)                 7.757854766625747E+03,      /* J = 35 */
(PID.TID 0000.0001)                 7.814458735422849E+03,      /* J = 36 */
(PID.TID 0000.0001)                 7.871038900023425E+03,      /* J = 37 */
(PID.TID 0000.0001)                 7.927595088074479E+03,      /* J = 38 */
(PID.TID 0000.0001)                 7.984127127296055E+03,      /* J = 39 */
(PID.TID 0000.0001)                 8.040634845481757E+03,      /* J = 40 */
(PID.TID 0000.0001)                 8.097118070499275E+03,      /* J = 41 */
(PID.TID 0000.0001)                 8.153576630290919E+03,      /* J = 42 */
(PID.TID 0000.0001)                 8.210010352874109E+03,      /* J = 43 */
(PID.TID 0000.0001)                 8.266419066341947E+03,      /* J = 44 */
(PID.TID 0000.0001)                 8.322802598863705E+03,      /* J = 45 */
(PID.TID 0000.0001)                 8.379160778685373E+03,      /* J = 46 */
(PID.TID 0000.0001)                 8.435493434130152E+03,      /* J = 47 */
(PID.TID 0000.0001)                 8.491800393599013E+03,      /* J = 48 */
(PID.TID 0000.0001)                 8.548081485571185E+03,      /* J = 49 */
(PID.TID 0000.0001)                 8.604336538604706E+03,      /* J = 50 */
(PID.TID 0000.0001)                 8.660565381336924E+03,      /* J = 51 */
(PID.TID 0000.0001)                 8.716767842485036E+03,      /* J = 52 */
(PID.TID 0000.0001)                 8.772943750846600E+03,      /* J = 53 */
(PID.TID 0000.0001)                 8.829092935300054E+03,      /* J = 54 */
(PID.TID 0000.0001)                 8.885215224805244E+03,      /* J = 55 */
(PID.TID 0000.0001)                 8.941310448403947E+03,      /* J = 56 */
(PID.TID 0000.0001)                 8.997378435220378E+03,      /* J = 57 */
(PID.TID 0000.0001)                 9.053419014461731E+03,      /* J = 58 */
(PID.TID 0000.0001)                 9.109432015418679E+03,      /* J = 59 */
(PID.TID 0000.0001)                 9.165417267465908E+03,      /* J = 60 */
(PID.TID 0000.0001)                 9.221374600062631E+03,      /* J = 61 */
(PID.TID 0000.0001)                 9.277303842753110E+03,      /* J = 62 */
(PID.TID 0000.0001)                 9.333204825167171E+03,      /* J = 63 */
(PID.TID 0000.0001)                 9.389077377020727E+03,      /* J = 64 */
(PID.TID 0000.0001)                 9.444921328116297E+03,      /* J = 65 */
(PID.TID 0000.0001)                 9.500736508343525E+03,      /* J = 66 */
(PID.TID 0000.0001)                 9.556522747679681E+03,      /* J = 67 */
(PID.TID 0000.0001)                 9.612279876190212E+03,      /* J = 68 */
(PID.TID 0000.0001)                 9.668007724029234E+03,      /* J = 69 */
(PID.TID 0000.0001)                 9.723706121440056E+03,      /* J = 70 */
(PID.TID 0000.0001)                 9.779374898755706E+03,      /* J = 71 */
(PID.TID 0000.0001)                 9.835013886399427E+03,      /* J = 72 */
(PID.TID 0000.0001)                 9.890622914885218E+03,      /* J = 73 */
(PID.TID 0000.0001)                 9.946201814818334E+03,      /* J = 74 */
(PID.TID 0000.0001)                 1.000175041689580E+04,      /* J = 75 */
(PID.TID 0000.0001)                 1.005726855190695E+04,      /* J = 76 */
(PID.TID 0000.0001)                 1.011275605073392E+04,      /* J = 77 */
(PID.TID 0000.0001)                 1.016821274435215E+04,      /* J = 78 */
(PID.TID 0000.0001)                 1.022363846383095E+04,      /* J = 79 */
(PID.TID 0000.0001)                 1.027903304033395E+04,      /* J = 80 */
(PID.TID 0000.0001)                 1.033439630511968E+04,      /* J = 81 */
(PID.TID 0000.0001)                 1.038972808954202E+04,      /* J = 82 */
(PID.TID 0000.0001)                 1.044502822505077E+04,      /* J = 83 */
(PID.TID 0000.0001)                 1.050029654319212E+04,      /* J = 84 */
(PID.TID 0000.0001)                 1.055553287560919E+04,      /* J = 85 */
(PID.TID 0000.0001)                 1.061073705404253E+04,      /* J = 86 */
(PID.TID 0000.0001)                 1.066590891033064E+04,      /* J = 87 */
(PID.TID 0000.0001)                 1.072104827641048E+04,      /* J = 88 */
(PID.TID 0000.0001)                 1.077615498431797E+04,      /* J = 89 */
(PID.TID 0000.0001)                 1.083122886618854E+04,      /* J = 90 */
(PID.TID 0000.0001)                 1.088626975425758E+04,      /* J = 91 */
(PID.TID 0000.0001)                 1.094127748086099E+04,      /* J = 92 */
(PID.TID 0000.0001)                 1.099625187843571E+04,      /* J = 93 */
(PID.TID 0000.0001)                 1.105119277952020E+04,      /* J = 94 */
(PID.TID 0000.0001)                 1.110610001675492E+04,      /* J = 95 */
(PID.TID 0000.0001)                 1.116097342288293E+04,      /* J = 96 */
(PID.TID 0000.0001)                 1.121581283075030E+04,      /* J = 97 */
(PID.TID 0000.0001)                 1.127061807330668E+04,      /* J = 98 */
(PID.TID 0000.0001)                 1.132538898360582E+04,      /* J = 99 */
(PID.TID 0000.0001)                 1.138012539480601E+04       /* J =100 */
(PID.TID 0000.0001)     ;
(PID.TID 0000.0001) dyF =  /* dyF(:,1,:,1) ( units: m ) */
(PID.TID 0000.0001)    50 @  1.111774733520388E+04              /* I =  1: 50 */
(PID.TID 0000.0001)     ;
(PID.TID 0000.0001) dyF =  /* dyF(1,:,1,:) ( units: m ) */
(PID.TID 0000.0001)   100 @  1.111774733520388E+04              /* J =  1:100 */
(PID.TID 0000.0001)     ;
(PID.TID 0000.0001) dxG =  /* dxG(:,1,:,1) ( units: m ) */
(PID.TID 0000.0001)    50 @  5.791729693558576E+03              /* I =  1: 50 */
(PID.TID 0000.0001)     ;
(PID.TID 0000.0001) dxG =  /* dxG(1,:,1,:) ( units: m ) */
(PID.TID 0000.0001)                 5.791729693558576E+03,      /* J =  1 */
(PID.TID 0000.0001)                 5.849048855077854E+03,      /* J =  2 */
(PID.TID 0000.0001)                 5.906350199379949E+03,      /* J =  3 */
(PID.TID 0000.0001)                 5.963633551915032E+03,      /* J =  4 */
(PID.TID 0000.0001)                 6.020898738188074E+03,      /* J =  5 */
(PID.TID 0000.0001)                 6.078145583759388E+03,      /* J =  6 */
(PID.TID 0000.0001)                 6.135373914245153E+03,      /* J =  7 */
(PID.TID 0000.0001)                 6.192583555317951E+03,      /* J =  8 */
(PID.TID 0000.0001)                 6.249774332707294E+03,      /* J =  9 */
(PID.TID 0000.0001)                 6.306946072200154E+03,      /* J = 10 */
(PID.TID 0000.0001)                 6.364098599641497E+03,      /* J = 11 */
(PID.TID 0000.0001)                 6.421231740934816E+03,      /* J = 12 */
(PID.TID 0000.0001)                 6.478345322042654E+03,      /* J = 13 */
(PID.TID 0000.0001)                 6.535439168987135E+03,      /* J = 14 */
(PID.TID 0000.0001)                 6.592513107850500E+03,      /* J = 15 */
(PID.TID 0000.0001)                 6.649566964775637E+03,      /* J = 16 */
(PID.TID 0000.0001)                 6.706600565966598E+03,      /* J = 17 */
(PID.TID 0000.0001)                 6.763613737689147E+03,      /* J = 18 */
(PID.TID 0000.0001)                 6.820606306271281E+03,      /* J = 19 */
(PID.TID 0000.0001)                 6.877578098103740E+03,      /* J = 20 */
(PID.TID 0000.0001)                 6.934528939640570E+03,      /* J = 21 */
(PID.TID 0000.0001)                 6.991458657399629E+03,      /* J = 22 */
(PID.TID 0000.0001)                 7.048367077963129E+03,      /* J = 23 */
(PID.TID 0000.0001)                 7.105254027978149E+03,      /* J = 24 */
(PID.TID 0000.0001)                 7.162119334157175E+03,      /* J = 25 */
(PID.TID 0000.0001)                 7.218962823278620E+03,      /* J = 26 */
(PID.TID 0000.0001)                 7.275784322187360E+03,      /* J = 27 */
(PID.TID 0000.0001)                 7.332583657795253E+03,      /* J = 28 */
(PID.TID 0000.0001)                 7.389360657081677E+03,      /* J = 29 */
(PID.TID 0000.0001)                 7.446115147094042E+03,      /* J = 30 */
(PID.TID 0000.0001)                 7.502846954948329E+03,      /* J = 31 */
(PID.TID 0000.0001)                 7.559555907829611E+03,      /* J = 32 */
(PID.TID 0000.0001)                 7.616241832992587E+03,      /* J = 33 */
(PID.TID 0000.0001)                 7.672904557762095E+03,      /* J = 34 */
(PID.TID 0000.0001)                 7.729543909533650E+03,      /* J = 35 */
(PID.TID 0000.0001)                 7.786159715773963E+03,      /* J = 36 */
(PID.TID 0000.0001)                 7.842751804021470E+03,      /* J = 37 */
(PID.TID 0000.0001)                 7.899320001886857E+03,      /* J = 38 */
(PID.TID 0000.0001)                 7.955864137053582E+03,      /* J = 39 */
(PID.TID 0000.0001)                 8.012384037278402E+03,      /* J = 40 */
(PID.TID 0000.0001)                 8.068879530391900E+03,      /* J = 41 */
(PID.TID 0000.0001)                 8.125350444299005E+03,      /* J = 42 */
(PID.TID 0000.0001)                 8.181796606979530E+03,      /* J = 43 */
(PID.TID 0000.0001)                 8.238217846488658E+03,      /* J = 44 */
(PID.TID 0000.0001)                 8.294613990957514E+03,      /* J = 45 */
(PID.TID 0000.0001)                 8.350984868593665E+03,      /* J = 46 */
(PID.TID 0000.0001)                 8.407330307681643E+03,      /* J = 47 */
(PID.TID 0000.0001)                 8.463650136583461E+03,      /* J = 48 */
(PID.TID 0000.0001)                 8.519944183739159E+03,      /* J = 49 */
(PID.TID 0000.0001)                 8.576212277667308E+03,      /* J = 50 */
(PID.TID 0000.0001)                 8.632454246965530E+03,      /* J = 51 */
(PID.TID 0000.0001)                 8.688669920311038E+03,      /* J = 52 */
(PID.TID 0000.0001)                 8.744859126461139E+03,      /* J = 53 */
(PID.TID 0000.0001)                 8.801021694253765E+03,      /* J = 54 */
(PID.TID 0000.0001)                 8.857157452607997E+03,      /* J = 55 */
(PID.TID 0000.0001)                 8.913266230524581E+03,      /* J = 56 */
(PID.TID 0000.0001)                 8.969347857086450E+03,      /* J = 57 */
(PID.TID 0000.0001)                 9.025402161459237E+03,      /* J = 58 */
(PID.TID 0000.0001)                 9.081428972891812E+03,      /* J = 59 */
(PID.TID 0000.0001)                 9.137428120716793E+03,      /* J = 60 */
(PID.TID 0000.0001)                 9.193399434351066E+03,      /* J = 61 */
(PID.TID 0000.0001)                 9.249342743296300E+03,      /* J = 62 */
(PID.TID 0000.0001)                 9.305257877139473E+03,      /* J = 63 */
(PID.TID 0000.0001)                 9.361144665553391E+03,      /* J = 64 */
(PID.TID 0000.0001)                 9.417002938297206E+03,      /* J = 65 */
(PID.TID 0000.0001)                 9.472832525216931E+03,      /* J = 66 */
(PID.TID 0000.0001)                 9.528633256245968E+03,      /* J = 67 */
(PID.TID 0000.0001)                 9.584404961405600E+03,      /* J = 68 */
(PID.TID 0000.0001)                 9.640147470805550E+03,      /* J = 69 */
(PID.TID 0000.0001)                 9.695860614644464E+03,      /* J = 70 */
(PID.TID 0000.0001)                 9.751544223210447E+03,      /* J = 71 */
(PID.TID 0000.0001)                 9.807198126881565E+03,      /* J = 72 */
(PID.TID 0000.0001)                 9.862822156126382E+03,      /* J = 73 */
(PID.TID 0000.0001)                 9.918416141504455E+03,      /* J = 74 */
(PID.TID 0000.0001)                 9.973979913666863E+03,      /* J = 75 */
(PID.TID 0000.0001)                 1.002951330335672E+04,      /* J = 76 */
(PID.TID 0000.0001)                 1.008501614140969E+04,      /* J = 77 */
(PID.TID 0000.0001)                 1.014048825875450E+04,      /* J = 78 */
(PID.TID 0000.0001)                 1.019592948641347E+04,      /* J = 79 */
(PID.TID 0000.0001)                 1.025133965550300E+04,      /* J = 80 */
(PID.TID 0000.0001)                 1.030671859723410E+04,      /* J = 81 */
(PID.TID 0000.0001)                 1.036206614291292E+04,      /* J = 82 */
(PID.TID 0000.0001)                 1.041738212394122E+04,      /* J = 83 */
(PID.TID 0000.0001)                 1.047266637181695E+04,      /* J = 84 */
(PID.TID 0000.0001)                 1.052791871813469E+04,      /* J = 85 */
(PID.TID 0000.0001)                 1.058313899458622E+04,      /* J = 86 */
(PID.TID 0000.0001)                 1.063832703296099E+04,      /* J = 87 */
(PID.TID 0000.0001)                 1.069348266514667E+04,      /* J = 88 */
(PID.TID 0000.0001)                 1.074860572312964E+04,      /* J = 89 */
(PID.TID 0000.0001)                 1.080369603899551E+04,      /* J = 90 */
(PID.TID 0000.0001)                 1.085875344492962E+04,      /* J = 91 */
(PID.TID 0000.0001)                 1.091377777321755E+04,      /* J = 92 */
(PID.TID 0000.0001)                 1.096876885624567E+04,      /* J = 93 */
(PID.TID 0000.0001)                 1.102372652650160E+04,      /* J = 94 */
(PID.TID 0000.0001)                 1.107865061657475E+04,      /* J = 95 */
(PID.TID 0000.0001)                 1.113354095915680E+04,      /* J = 96 */
(PID.TID 0000.0001)                 1.118839738704227E+04,      /* J = 97 */
(PID.TID 0000.0001)                 1.124321973312895E+04,      /* J = 98 */
(PID.TID 0000.0001)                 1.129800783041847E+04,      /* J = 99 */
(PID.TID 0000.0001)                 1.135276151201679E+04       /* J =100 */
(PID.TID 0000.0001)     ;
(PID.TID 0000.0001) dyG =  /* dyG(:,1,:,1) ( units: m ) */
(PID.TID 0000.0001)    50 @  1.111774733520388E+04              /* I =  1: 50 */
(PID.TID 0000.0001)     ;
(PID.TID 0000.0001) dyG =  /* dyG(1,:,1,:) ( units: m ) */
(PID.TID 0000.0001)   100 @  1.111774733520388E+04              /* J =  1:100 */
(PID.TID 0000.0001)     ;
(PID.TID 0000.0001) dxC =  /* dxC(:,1,:,1) ( units: m ) */
(PID.TID 0000.0001)    50 @  5.820391490558872E+03              /* I =  1: 50 */
(PID.TID 0000.0001)     ;
(PID.TID 0000.0001) dxC =  /* dxC(1,:,1,:) ( units: m ) */
(PID.TID 0000.0001)                 5.820391490558872E+03,      /* J =  1 */
(PID.TID 0000.0001)                 5.877701765291692E+03,      /* J =  2 */
(PID.TID 0000.0001)                 5.934994135525598E+03,      /* J =  3 */
(PID.TID 0000.0001)                 5.992268426738092E+03,      /* J =  4 */
(PID.TID 0000.0001)                 6.049524464461751E+03,      /* J =  5 */
(PID.TID 0000.0001)                 6.106762074284755E+03,      /* J =  6 */
(PID.TID 0000.0001)                 6.163981081851418E+03,      /* J =  7 */
(PID.TID 0000.0001)                 6.221181312862721E+03,      /* J =  8 */
(PID.TID 0000.0001)                 6.278362593076839E+03,      /* J =  9 */
(PID.TID 0000.0001)                 6.335524748309675E+03,      /* J = 10 */
(PID.TID 0000.0001)                 6.392667604435392E+03,      /* J = 11 */
(PID.TID 0000.0001)                 6.449790987386939E+03,      /* J = 12 */
(PID.TID 0000.0001)                 6.506894723156589E+03,      /* J = 13 */
(PID.TID 0000.0001)                 6.563978637796454E+03,      /* J = 14 */
(PID.TID 0000.0001)                 6.621042557419033E+03,      /* J = 15 */
(PID.TID 0000.0001)                 6.678086308197730E+03,      /* J = 16 */
(PID.TID 0000.0001)                 6.735109716367390E+03,      /* J = 17 */
(PID.TID 0000.0001)                 6.792112608224819E+03,      /* J = 18 */
(PID.TID 0000.0001)                 6.849094810129332E+03,      /* J = 19 */
(PID.TID 0000.0001)                 6.906056148503244E+03,      /* J = 20 */
(PID.TID 0000.0001)                 6.962996449832446E+03,      /* J = 21 */
(PID.TID 0000.0001)                 7.019915540666910E+03,      /* J = 22 */
(PID.TID 0000.0001)                 7.076813247621209E+03,      /* J = 23 */
(PID.TID 0000.0001)                 7.133689397375063E+03,      /* J = 24 */
(PID.TID 0000.0001)                 7.190543816673855E+03,      /* J = 25 */
(PID.TID 0000.0001)                 7.247376332329164E+03,      /* J = 26 */
(PID.TID 0000.0001)                 7.304186771219292E+03,      /* J = 27 */
(PID.TID 0000.0001)                 7.360974960289787E+03,      /* J = 28 */
(PID.TID 0000.0001)                 7.417740726553981E+03,      /* J = 29 */
(PID.TID 0000.0001)                 7.474483897093503E+03,      /* J = 30 */
(PID.TID 0000.0001)                 7.531204299058815E+03,      /* J = 31 */
(PID.TID 0000.0001)                 7.587901759669735E+03,      /* J = 32 */
(PID.TID 0000.0001)                 7.644576106215967E+03,      /* J = 33 */
(PID.TID 0000.0001)                 7.701227166057623E+03,      /* J = 34 */
(PID.TID 0000.0001)                 7.757854766625747E+03,      /* J = 35 */
(PID.TID 0000.0001)                 7.814458735422849E+03,      /* J = 36 */
(PID.TID 0000.0001)                 7.871038900023425E+03,      /* J = 37 */
(PID.TID 0000.0001)                 7.927595088074479E+03,      /* J = 38 */
(PID.TID 0000.0001)                 7.984127127296055E+03,      /* J = 39 */
(PID.TID 0000.0001)                 8.040634845481757E+03,      /* J = 40 */
(PID.TID 0000.0001)                 8.097118070499275E+03,      /* J = 41 */
(PID.TID 0000.0001)                 8.153576630290919E+03,      /* J = 42 */
(PID.TID 0000.0001)                 8.210010352874109E+03,      /* J = 43 */
(PID.TID 0000.0001)                 8.266419066341947E+03,      /* J = 44 */
(PID.TID 0000.0001)                 8.322802598863705E+03,      /* J = 45 */
(PID.TID 0000.0001)                 8.379160778685373E+03,      /* J = 46 */
(PID.TID 0000.0001)                 8.435493434130152E+03,      /* J = 47 */
(PID.TID 0000.0001)                 8.491800393599013E+03,      /* J = 48 */
(PID.TID 0000.0001)                 8.548081485571185E+03,      /* J = 49 */
(PID.TID 0000.0001)                 8.604336538604706E+03,      /* J = 50 */
(PID.TID 0000.0001)                 8.660565381336924E+03,      /* J = 51 */
(PID.TID 0000.0001)                 8.716767842485036E+03,      /* J = 52 */
(PID.TID 0000.0001)                 8.772943750846600E+03,      /* J = 53 */
(PID.TID 0000.0001)                 8.829092935300054E+03,      /* J = 54 */
(PID.TID 0000.0001)                 8.885215224805244E+03,      /* J = 55 */
(PID.TID 0000.0001)                 8.941310448403947E+03,      /* J = 56 */
(PID.TID 0000.0001)                 8.997378435220378E+03,      /* J = 57 */
(PID.TID 0000.0001)                 9.053419014461731E+03,      /* J = 58 */
(PID.TID 0000.0001)                 9.109432015418679E+03,      /* J = 59 */
(PID.TID 0000.0001)                 9.165417267465908E+03,      /* J = 60 */
(PID.TID 0000.0001)                 9.221374600062631E+03,      /* J = 61 */
(PID.TID 0000.0001)                 9.277303842753110E+03,      /* J = 62 */
(PID.TID 0000.0001)                 9.333204825167171E+03,      /* J = 63 */
(PID.TID 0000.0001)                 9.389077377020727E+03,      /* J = 64 */
(PID.TID 0000.0001)                 9.444921328116297E+03,      /* J = 65 */
(PID.TID 0000.0001)                 9.500736508343525E+03,      /* J = 66 */
(PID.TID 0000.0001)                 9.556522747679681E+03,      /* J = 67 */
(PID.TID 0000.0001)                 9.612279876190212E+03,      /* J = 68 */
(PID.TID 0000.0001)                 9.668007724029234E+03,      /* J = 69 */
(PID.TID 0000.0001)                 9.723706121440056E+03,      /* J = 70 */
(PID.TID 0000.0001)                 9.779374898755706E+03,      /* J = 71 */
(PID.TID 0000.0001)                 9.835013886399427E+03,      /* J = 72 */
(PID.TID 0000.0001)                 9.890622914885218E+03,      /* J = 73 */
(PID.TID 0000.0001)                 9.946201814818334E+03,      /* J = 74 */
(PID.TID 0000.0001)                 1.000175041689580E+04,      /* J = 75 */
(PID.TID 0000.0001)                 1.005726855190695E+04,      /* J = 76 */
(PID.TID 0000.0001)                 1.011275605073392E+04,      /* J = 77 */
(PID.TID 0000.0001)                 1.016821274435215E+04,      /* J = 78 */
(PID.TID 0000.0001)                 1.022363846383095E+04,      /* J = 79 */
(PID.TID 0000.0001)                 1.027903304033395E+04,      /* J = 80 */
(PID.TID 0000.0001)                 1.033439630511968E+04,      /* J = 81 */
(PID.TID 0000.0001)                 1.038972808954202E+04,      /* J = 82 */
(PID.TID 0000.0001)                 1.044502822505077E+04,      /* J = 83 */
(PID.TID 0000.0001)                 1.050029654319212E+04,      /* J = 84 */
(PID.TID 0000.0001)                 1.055553287560919E+04,      /* J = 85 */
(PID.TID 0000.0001)                 1.061073705404253E+04,      /* J = 86 */
(PID.TID 0000.0001)                 1.066590891033064E+04,      /* J = 87 */
(PID.TID 0000.0001)                 1.072104827641048E+04,      /* J = 88 */
(PID.TID 0000.0001)                 1.077615498431797E+04,      /* J = 89 */
(PID.TID 0000.0001)                 1.083122886618854E+04,      /* J = 90 */
(PID.TID 0000.0001)                 1.088626975425758E+04,      /* J = 91 */
(PID.TID 0000.0001)                 1.094127748086099E+04,      /* J = 92 */
(PID.TID 0000.0001)                 1.099625187843571E+04,      /* J = 93 */
(PID.TID 0000.0001)                 1.105119277952020E+04,      /* J = 94 */
(PID.TID 0000.0001)                 1.110610001675492E+04,      /* J = 95 */
(PID.TID 0000.0001)                 1.116097342288293E+04,      /* J = 96 */
(PID.TID 0000.0001)                 1.121581283075030E+04,      /* J = 97 */
(PID.TID 0000.0001)                 1.127061807330668E+04,      /* J = 98 */
(PID.TID 0000.0001)                 1.132538898360582E+04,      /* J = 99 */
(PID.TID 0000.0001)                 1.138012539480601E+04       /* J =100 */
(PID.TID 0000.0001)     ;
(PID.TID 0000.0001) dyC =  /* dyC(:,1,:,1) ( units: m ) */
(PID.TID 0000.0001)    50 @  1.111774733520388E+04              /* I =  1: 50 */
(PID.TID 0000.0001)     ;
(PID.TID 0000.0001) dyC =  /* dyC(1,:,1,:) ( units: m ) */
(PID.TID 0000.0001)   100 @  1.111774733520388E+04              /* J =  1:100 */
(PID.TID 0000.0001)     ;
(PID.TID 0000.0001) dxV =  /* dxV(:,1,:,1) ( units: m ) */
(PID.TID 0000.0001)    50 @  5.791729693558576E+03              /* I =  1: 50 */
(PID.TID 0000.0001)     ;
(PID.TID 0000.0001) dxV =  /* dxV(1,:,1,:) ( units: m ) */
(PID.TID 0000.0001)                 5.791729693558576E+03,      /* J =  1 */
(PID.TID 0000.0001)                 5.849048855077854E+03,      /* J =  2 */
(PID.TID 0000.0001)                 5.906350199379949E+03,      /* J =  3 */
(PID.TID 0000.0001)                 5.963633551915032E+03,      /* J =  4 */
(PID.TID 0000.0001)                 6.020898738188074E+03,      /* J =  5 */
(PID.TID 0000.0001)                 6.078145583759388E+03,      /* J =  6 */
(PID.TID 0000.0001)                 6.135373914245153E+03,      /* J =  7 */
(PID.TID 0000.0001)                 6.192583555317951E+03,      /* J =  8 */
(PID.TID 0000.0001)                 6.249774332707294E+03,      /* J =  9 */
(PID.TID 0000.0001)                 6.306946072200154E+03,      /* J = 10 */
(PID.TID 0000.0001)                 6.364098599641497E+03,      /* J = 11 */
(PID.TID 0000.0001)                 6.421231740934816E+03,      /* J = 12 */
(PID.TID 0000.0001)                 6.478345322042654E+03,      /* J = 13 */
(PID.TID 0000.0001)                 6.535439168987135E+03,      /* J = 14 */
(PID.TID 0000.0001)                 6.592513107850500E+03,      /* J = 15 */
(PID.TID 0000.0001)                 6.649566964775637E+03,      /* J = 16 */
(PID.TID 0000.0001)                 6.706600565966598E+03,      /* J = 17 */
(PID.TID 0000.0001)                 6.763613737689147E+03,      /* J = 18 */
(PID.TID 0000.0001)                 6.820606306271281E+03,      /* J = 19 */
(PID.TID 0000.0001)                 6.877578098103740E+03,      /* J = 20 */
(PID.TID 0000.0001)                 6.934528939640570E+03,      /* J = 21 */
(PID.TID 0000.0001)                 6.991458657399629E+03,      /* J = 22 */
(PID.TID 0000.0001)                 7.048367077963129E+03,      /* J = 23 */
(PID.TID 0000.0001)                 7.105254027978149E+03,      /* J = 24 */
(PID.TID 0000.0001)                 7.162119334157175E+03,      /* J = 25 */
(PID.TID 0000.0001)                 7.218962823278620E+03,      /* J = 26 */
(PID.TID 0000.0001)                 7.275784322187360E+03,      /* J = 27 */
(PID.TID 0000.0001)                 7.332583657795253E+03,      /* J = 28 */
(PID.TID 0000.0001)                 7.389360657081677E+03,      /* J = 29 */
(PID.TID 0000.0001)                 7.446115147094042E+03,      /* J = 30 */
(PID.TID 0000.0001)                 7.502846954948329E+03,      /* J = 31 */
(PID.TID 0000.0001)                 7.559555907829611E+03,      /* J = 32 */
(PID.TID 0000.0001)                 7.616241832992587E+03,      /* J = 33 */
(PID.TID 0000.0001)                 7.672904557762095E+03,      /* J = 34 */
(PID.TID 0000.0001)                 7.729543909533650E+03,      /* J = 35 */
(PID.TID 0000.0001)                 7.786159715773963E+03,      /* J = 36 */
(PID.TID 0000.0001)                 7.842751804021470E+03,      /* J = 37 */
(PID.TID 0000.0001)                 7.899320001886857E+03,      /* J = 38 */
(PID.TID 0000.0001)                 7.955864137053582E+03,      /* J = 39 */
(PID.TID 0000.0001)                 8.012384037278402E+03,      /* J = 40 */
(PID.TID 0000.0001)                 8.068879530391900E+03,      /* J = 41 */
(PID.TID 0000.0001)                 8.125350444299005E+03,      /* J = 42 */
(PID.TID 0000.0001)                 8.181796606979530E+03,      /* J = 43 */
(PID.TID 0000.0001)                 8.238217846488658E+03,      /* J = 44 */
(PID.TID 0000.0001)                 8.294613990957514E+03,      /* J = 45 */
(PID.TID 0000.0001)                 8.350984868593665E+03,      /* J = 46 */
(PID.TID 0000.0001)                 8.407330307681643E+03,      /* J = 47 */
(PID.TID 0000.0001)                 8.463650136583461E+03,      /* J = 48 */
(PID.TID 0000.0001)                 8.519944183739159E+03,      /* J = 49 */
(PID.TID 0000.0001)                 8.576212277667308E+03,      /* J = 50 */
(PID.TID 0000.0001)                 8.632454246965530E+03,      /* J = 51 */
(PID.TID 0000.0001)                 8.688669920311038E+03,      /* J = 52 */
(PID.TID 0000.0001)                 8.744859126461139E+03,      /* J = 53 */
(PID.TID 0000.0001)                 8.801021694253765E+03,      /* J = 54 */
(PID.TID 0000.0001)                 8.857157452607997E+03,      /* J = 55 */
(PID.TID 0000.0001)                 8.913266230524581E+03,      /* J = 56 */
(PID.TID 0000.0001)                 8.969347857086450E+03,      /* J = 57 */
(PID.TID 0000.0001)                 9.025402161459237E+03,      /* J = 58 */
(PID.TID 0000.0001)                 9.081428972891812E+03,      /* J = 59 */
(PID.TID 0000.0001)                 9.137428120716793E+03,      /* J = 60 */
(PID.TID 0000.0001)                 9.193399434351066E+03,      /* J = 61 */
(PID.TID 0000.0001)                 9.249342743296300E+03,      /* J = 62 */
(PID.TID 0000.0001)                 9.305257877139473E+03,      /* J = 63 */
(PID.TID 0000.0001)                 9.361144665553391E+03,      /* J = 64 */
(PID.TID 0000.0001)                 9.417002938297206E+03,      /* J = 65 */
(PID.TID 0000.0001)                 9.472832525216931E+03,      /* J = 66 */
(PID.TID 0000.0001)                 9.528633256245968E+03,      /* J = 67 */
(PID.TID 0000.0001)                 9.584404961405600E+03,      /* J = 68 */
(PID.TID 0000.0001)                 9.640147470805550E+03,      /* J = 69 */
(PID.TID 0000.0001)                 9.695860614644464E+03,      /* J = 70 */
(PID.TID 0000.0001)                 9.751544223210447E+03,      /* J = 71 */
(PID.TID 0000.0001)                 9.807198126881565E+03,      /* J = 72 */
(PID.TID 0000.0001)                 9.862822156126382E+03,      /* J = 73 */
(PID.TID 0000.0001)                 9.918416141504455E+03,      /* J = 74 */
(PID.TID 0000.0001)                 9.973979913666863E+03,      /* J = 75 */
(PID.TID 0000.0001)                 1.002951330335672E+04,      /* J = 76 */
(PID.TID 0000.0001)                 1.008501614140969E+04,      /* J = 77 */
(PID.TID 0000.0001)                 1.014048825875450E+04,      /* J = 78 */
(PID.TID 0000.0001)                 1.019592948641347E+04,      /* J = 79 */
(PID.TID 0000.0001)                 1.025133965550300E+04,      /* J = 80 */
(PID.TID 0000.0001)                 1.030671859723410E+04,      /* J = 81 */
(PID.TID 0000.0001)                 1.036206614291292E+04,      /* J = 82 */
(PID.TID 0000.0001)                 1.041738212394122E+04,      /* J = 83 */
(PID.TID 0000.0001)                 1.047266637181695E+04,      /* J = 84 */
(PID.TID 0000.0001)                 1.052791871813469E+04,      /* J = 85 */
(PID.TID 0000.0001)                 1.058313899458622E+04,      /* J = 86 */
(PID.TID 0000.0001)                 1.063832703296099E+04,      /* J = 87 */
(PID.TID 0000.0001)                 1.069348266514667E+04,      /* J = 88 */
(PID.TID 0000.0001)                 1.074860572312964E+04,      /* J = 89 */
(PID.TID 0000.0001)                 1.080369603899551E+04,      /* J = 90 */
(PID.TID 0000.0001)                 1.085875344492962E+04,      /* J = 91 */
(PID.TID 0000.0001)                 1.091377777321755E+04,      /* J = 92 */
(PID.TID 0000.0001)                 1.096876885624567E+04,      /* J = 93 */
(PID.TID 0000.0001)                 1.102372652650160E+04,      /* J = 94 */
(PID.TID 0000.0001)                 1.107865061657475E+04,      /* J = 95 */
(PID.TID 0000.0001)                 1.113354095915680E+04,      /* J = 96 */
(PID.TID 0000.0001)                 1.118839738704227E+04,      /* J = 97 */
(PID.TID 0000.0001)                 1.124321973312895E+04,      /* J = 98 */
(PID.TID 0000.0001)                 1.129800783041847E+04,      /* J = 99 */
(PID.TID 0000.0001)                 1.135276151201679E+04       /* J =100 */
(PID.TID 0000.0001)     ;
(PID.TID 0000.0001) dyU =  /* dyU(:,1,:,1) ( units: m ) */
(PID.TID 0000.0001)    50 @  1.111774733520388E+04              /* I =  1: 50 */
(PID.TID 0000.0001)     ;
(PID.TID 0000.0001) dyU =  /* dyU(1,:,1,:) ( units: m ) */
(PID.TID 0000.0001)   100 @  1.111774733520388E+04              /* J =  1:100 */
(PID.TID 0000.0001)     ;
(PID.TID 0000.0001) rA  =  /* rA (:,1,:,1) ( units: m^2 ) */
(PID.TID 0000.0001)    50 @  6.470963377080289E+07              /* I =  1: 50 */
(PID.TID 0000.0001)     ;
(PID.TID 0000.0001) rA  =  /* rA (1,:,1,:) ( units: m^2 ) */
(PID.TID 0000.0001)                 6.470963377080289E+07,      /* J =  1 */
(PID.TID 0000.0001)                 6.534679484410104E+07,      /* J =  2 */
(PID.TID 0000.0001)                 6.598375685977945E+07,      /* J =  3 */
(PID.TID 0000.0001)                 6.662051787745729E+07,      /* J =  4 */
(PID.TID 0000.0001)                 6.725707595748492E+07,      /* J =  5 */
(PID.TID 0000.0001)                 6.789342916077879E+07,      /* J =  6 */
(PID.TID 0000.0001)                 6.852957554896304E+07,      /* J =  7 */
(PID.TID 0000.0001)                 6.916551318413351E+07,      /* J =  8 */
(PID.TID 0000.0001)                 6.980124012916450E+07,      /* J =  9 */
(PID.TID 0000.0001)                 7.043675444751994E+07,      /* J = 10 */
(PID.TID 0000.0001)                 7.107205420332426E+07,      /* J = 11 */
(PID.TID 0000.0001)                 7.170713746129155E+07,      /* J = 12 */
(PID.TID 0000.0001)                 7.234200228686719E+07,      /* J = 13 */
(PID.TID 0000.0001)                 7.297664674622770E+07,      /* J = 14 */
(PID.TID 0000.0001)                 7.361106890599781E+07,      /* J = 15 */
(PID.TID 0000.0001)                 7.424526683372219E+07,      /* J = 16 */
(PID.TID 0000.0001)                 7.487923859746441E+07,      /* J = 17 */
(PID.TID 0000.0001)                 7.551298226611364E+07,      /* J = 18 */
(PID.TID 0000.0001)                 7.614649590905435E+07,      /* J = 19 */
(PID.TID 0000.0001)                 7.677977759659100E+07,      /* J = 20 */
(PID.TID 0000.0001)                 7.741282539961770E+07,      /* J = 21 */
(PID.TID 0000.0001)                 7.804563738973619E+07,      /* J = 22 */
(PID.TID 0000.0001)                 7.867821163932665E+07,      /* J = 23 */
(PID.TID 0000.0001)                 7.931054622142966E+07,      /* J = 24 */
(PID.TID 0000.0001)                 7.994263920984067E+07,      /* J = 25 */
(PID.TID 0000.0001)                 8.057448867913349E+07,      /* J = 26 */
(PID.TID 0000.0001)                 8.120609270456599E+07,      /* J = 27 */
(PID.TID 0000.0001)                 8.183744936212724E+07,      /* J = 28 */
(PID.TID 0000.0001)                 8.246855672863193E+07,      /* J = 29 */
(PID.TID 0000.0001)                 8.309941288162594E+07,      /* J = 30 */
(PID.TID 0000.0001)                 8.373001589938636E+07,      /* J = 31 */
(PID.TID 0000.0001)                 8.436036386101587E+07,      /* J = 32 */
(PID.TID 0000.0001)                 8.499045484630123E+07,      /* J = 33 */
(PID.TID 0000.0001)                 8.562028693597265E+07,      /* J = 34 */
(PID.TID 0000.0001)                 8.624985821137366E+07,      /* J = 35 */
(PID.TID 0000.0001)                 8.687916675476770E+07,      /* J = 36 */
(PID.TID 0000.0001)                 8.750821064912586E+07,      /* J = 37 */
(PID.TID 0000.0001)                 8.813698797831558E+07,      /* J = 38 */
(PID.TID 0000.0001)                 8.876549682695904E+07,      /* J = 39 */
(PID.TID 0000.0001)                 8.939373528048050E+07,      /* J = 40 */
(PID.TID 0000.0001)                 9.002170142522410E+07,      /* J = 41 */
(PID.TID 0000.0001)                 9.064939334821798E+07,      /* J = 42 */
(PID.TID 0000.0001)                 9.127680913743389E+07,      /* J = 43 */
(PID.TID 0000.0001)                 9.190394688169266E+07,      /* J = 44 */
(PID.TID 0000.0001)                 9.253080467056999E+07,      /* J = 45 */
(PID.TID 0000.0001)                 9.315738059456144E+07,      /* J = 46 */
(PID.TID 0000.0001)                 9.378367274503537E+07,      /* J = 47 */
(PID.TID 0000.0001)                 9.440967921416211E+07,      /* J = 48 */
(PID.TID 0000.0001)                 9.503539809503193E+07,      /* J = 49 */
(PID.TID 0000.0001)                 9.566082748163140E+07,      /* J = 50 */
(PID.TID 0000.0001)                 9.628596546870193E+07,      /* J = 51 */
(PID.TID 0000.0001)                 9.691081015209354E+07,      /* J = 52 */
(PID.TID 0000.0001)                 9.753535962826957E+07,      /* J = 53 */
(PID.TID 0000.0001)                 9.815961199489628E+07,      /* J = 54 */
(PID.TID 0000.0001)                 9.878356535030043E+07,      /* J = 55 */
(PID.TID 0000.0001)                 9.940721779379947E+07,      /* J = 56 */
(PID.TID 0000.0001)                 1.000305674257251E+08,      /* J = 57 */
(PID.TID 0000.0001)                 1.006536123471403E+08,      /* J = 58 */
(PID.TID 0000.0001)                 1.012763506602401E+08,      /* J = 59 */
(PID.TID 0000.0001)                 1.018987804679982E+08,      /* J = 60 */
(PID.TID 0000.0001)                 1.025208998744024E+08,      /* J = 61 */
(PID.TID 0000.0001)                 1.031427069843603E+08,      /* J = 62 */
(PID.TID 0000.0001)                 1.037641999037469E+08,      /* J = 63 */
(PID.TID 0000.0001)                 1.043853767394042E+08,      /* J = 64 */
(PID.TID 0000.0001)                 1.050062355990467E+08,      /* J = 65 */
(PID.TID 0000.0001)                 1.056267745915686E+08,      /* J = 66 */
(PID.TID 0000.0001)                 1.062469918265245E+08,      /* J = 67 */
(PID.TID 0000.0001)                 1.068668854147899E+08,      /* J = 68 */
(PID.TID 0000.0001)                 1.074864534679241E+08,      /* J = 69 */
(PID.TID 0000.0001)                 1.081056940987605E+08,      /* J = 70 */
(PID.TID 0000.0001)                 1.087246054208165E+08,      /* J = 71 */
(PID.TID 0000.0001)                 1.093431855489537E+08,      /* J = 72 */
(PID.TID 0000.0001)                 1.099614325987181E+08,      /* J = 73 */
(PID.TID 0000.0001)                 1.105793446869293E+08,      /* J = 74 */
(PID.TID 0000.0001)                 1.111969199312560E+08,      /* J = 75 */
(PID.TID 0000.0001)                 1.118141564504991E+08,      /* J = 76 */
(PID.TID 0000.0001)                 1.124310523644033E+08,      /* J = 77 */
(PID.TID 0000.0001)                 1.130476057938687E+08,      /* J = 78 */
(PID.TID 0000.0001)                 1.136638148606683E+08,      /* J = 79 */
(PID.TID 0000.0001)                 1.142796776878255E+08,      /* J = 80 */
(PID.TID 0000.0001)                 1.148951923992126E+08,      /* J = 81 */
(PID.TID 0000.0001)                 1.155103571199756E+08,      /* J = 82 */
(PID.TID 0000.0001)                 1.161251699761098E+08,      /* J = 83 */
(PID.TID 0000.0001)                 1.167396290948606E+08,      /* J = 84 */
(PID.TID 0000.0001)                 1.173537326044641E+08,      /* J = 85 */
(PID.TID 0000.0001)                 1.179674786342178E+08,      /* J = 86 */
(PID.TID 0000.0001)                 1.185808653145988E+08,      /* J = 87 */
(PID.TID 0000.0001)                 1.191938907770982E+08,      /* J = 88 */
(PID.TID 0000.0001)                 1.198065531543159E+08,      /* J = 89 */
(PID.TID 0000.0001)                 1.204188505800075E+08,      /* J = 90 */
(PID.TID 0000.0001)                 1.210307811890137E+08,      /* J = 91 */
(PID.TID 0000.0001)                 1.216423431172366E+08,      /* J = 92 */
(PID.TID 0000.0001)                 1.222535345018050E+08,      /* J = 93 */
(PID.TID 0000.0001)                 1.228643534808854E+08,      /* J = 94 */
(PID.TID 0000.0001)                 1.234747981938710E+08,      /* J = 95 */
(PID.TID 0000.0001)                 1.240848667811927E+08,      /* J = 96 */
(PID.TID 0000.0001)                 1.246945573844846E+08,      /* J = 97 */
(PID.TID 0000.0001)                 1.253038681465364E+08,      /* J = 98 */
(PID.TID 0000.0001)                 1.259127972112936E+08,      /* J = 99 */
(PID.TID 0000.0001)                 1.265213427237870E+08       /* J =100 */
(PID.TID 0000.0001)     ;
(PID.TID 0000.0001) rAw =  /* rAw(:,1,:,1) ( units: m^2 ) */
(PID.TID 0000.0001)    50 @  6.470963377080289E+07              /* I =  1: 50 */
(PID.TID 0000.0001)     ;
(PID.TID 0000.0001) rAw =  /* rAw(1,:,1,:) ( units: m^2 ) */
(PID.TID 0000.0001)                 6.470963377080289E+07,      /* J =  1 */
(PID.TID 0000.0001)                 6.534679484410104E+07,      /* J =  2 */
(PID.TID 0000.0001)                 6.598375685977945E+07,      /* J =  3 */
(PID.TID 0000.0001)                 6.662051787745729E+07,      /* J =  4 */
(PID.TID 0000.0001)                 6.725707595748492E+07,      /* J =  5 */
(PID.TID 0000.0001)                 6.789342916077879E+07,      /* J =  6 */
(PID.TID 0000.0001)                 6.852957554896304E+07,      /* J =  7 */
(PID.TID 0000.0001)                 6.916551318413351E+07,      /* J =  8 */
(PID.TID 0000.0001)                 6.980124012916450E+07,      /* J =  9 */
(PID.TID 0000.0001)                 7.043675444751994E+07,      /* J = 10 */
(PID.TID 0000.0001)                 7.107205420332426E+07,      /* J = 11 */
(PID.TID 0000.0001)                 7.170713746129155E+07,      /* J = 12 */
(PID.TID 0000.0001)                 7.234200228686719E+07,      /* J = 13 */
(PID.TID 0000.0001)                 7.297664674622770E+07,      /* J = 14 */
(PID.TID 0000.0001)                 7.361106890599781E+07,      /* J = 15 */
(PID.TID 0000.0001)                 7.424526683372219E+07,      /* J = 16 */
(PID.TID 0000.0001)                 7.487923859746441E+07,      /* J = 17 */
(PID.TID 0000.0001)                 7.551298226611364E+07,      /* J = 18 */
(PID.TID 0000.0001)                 7.614649590905435E+07,      /* J = 19 */
(PID.TID 0000.0001)                 7.677977759659100E+07,      /* J = 20 */
(PID.TID 0000.0001)                 7.741282539961770E+07,      /* J = 21 */
(PID.TID 0000.0001)                 7.804563738973619E+07,      /* J = 22 */
(PID.TID 0000.0001)                 7.867821163932665E+07,      /* J = 23 */
(PID.TID 0000.0001)                 7.931054622142966E+07,      /* J = 24 */
(PID.TID 0000.0001)                 7.994263920984067E+07,      /* J = 25 */
(PID.TID 0000.0001)                 8.057448867913349E+07,      /* J = 26 */
(PID.TID 0000.0001)                 8.120609270456599E+07,      /* J = 27 */
(PID.TID 0000.0001)                 8.183744936212724E+07,      /* J = 28 */
(PID.TID 0000.0001)                 8.246855672863193E+07,      /* J = 29 */
(PID.TID 0000.0001)                 8.309941288162594E+07,      /* J = 30 */
(PID.TID 0000.0001)                 8.373001589938636E+07,      /* J = 31 */
(PID.TID 0000.0001)                 8.436036386101587E+07,      /* J = 32 */
(PID.TID 0000.0001)                 8.499045484630123E+07,      /* J = 33 */
(PID.TID 0000.0001)                 8.562028693597265E+07,      /* J = 34 */
(PID.TID 0000.0001)                 8.624985821137366E+07,      /* J = 35 */
(PID.TID 0000.0001)                 8.687916675476770E+07,      /* J = 36 */
(PID.TID 0000.0001)                 8.750821064912586E+07,      /* J = 37 */
(PID.TID 0000.0001)                 8.813698797831558E+07,      /* J = 38 */
(PID.TID 0000.0001)                 8.876549682695904E+07,      /* J = 39 */
(PID.TID 0000.0001)                 8.939373528048050E+07,      /* J = 40 */
(PID.TID 0000.0001)                 9.002170142522410E+07,      /* J = 41 */
(PID.TID 0000.0001)                 9.064939334821798E+07,      /* J = 42 */
(PID.TID 0000.0001)                 9.127680913743389E+07,      /* J = 43 */
(PID.TID 0000.0001)                 9.190394688169266E+07,      /* J = 44 */
(PID.TID 0000.0001)                 9.253080467056999E+07,      /* J = 45 */
(PID.TID 0000.0001)                 9.315738059456144E+07,      /* J = 46 */
(PID.TID 0000.0001)                 9.378367274503537E+07,      /* J = 47 */
(PID.TID 0000.0001)                 9.440967921416211E+07,      /* J = 48 */
(PID.TID 0000.0001)                 9.503539809503193E+07,      /* J = 49 */
(PID.TID 0000.0001)                 9.566082748163140E+07,      /* J = 50 */
(PID.TID 0000.0001)                 9.628596546870193E+07,      /* J = 51 */
(PID.TID 0000.0001)                 9.691081015209354E+07,      /* J = 52 */
(PID.TID 0000.0001)                 9.753535962826957E+07,      /* J = 53 */
(PID.TID 0000.0001)                 9.815961199489628E+07,      /* J = 54 */
(PID.TID 0000.0001)                 9.878356535030043E+07,      /* J = 55 */
(PID.TID 0000.0001)                 9.940721779379947E+07,      /* J = 56 */
(PID.TID 0000.0001)                 1.000305674257251E+08,      /* J = 57 */
(PID.TID 0000.0001)                 1.006536123471403E+08,      /* J = 58 */
(PID.TID 0000.0001)                 1.012763506602401E+08,      /* J = 59 */
(PID.TID 0000.0001)                 1.018987804679982E+08,      /* J = 60 */
(PID.TID 0000.0001)                 1.025208998744024E+08,      /* J = 61 */
(PID.TID 0000.0001)                 1.031427069843603E+08,      /* J = 62 */
(PID.TID 0000.0001)                 1.037641999037469E+08,      /* J = 63 */
(PID.TID 0000.0001)                 1.043853767394042E+08,      /* J = 64 */
(PID.TID 0000.0001)                 1.050062355990467E+08,      /* J = 65 */
(PID.TID 0000.0001)                 1.056267745915686E+08,      /* J = 66 */
(PID.TID 0000.0001)                 1.062469918265245E+08,      /* J = 67 */
(PID.TID 0000.0001)                 1.068668854147899E+08,      /* J = 68 */
(PID.TID 0000.0001)                 1.074864534679241E+08,      /* J = 69 */
(PID.TID 0000.0001)                 1.081056940987605E+08,      /* J = 70 */
(PID.TID 0000.0001)                 1.087246054208165E+08,      /* J = 71 */
(PID.TID 0000.0001)                 1.093431855489537E+08,      /* J = 72 */
(PID.TID 0000.0001)                 1.099614325987181E+08,      /* J = 73 */
(PID.TID 0000.0001)                 1.105793446869293E+08,      /* J = 74 */
(PID.TID 0000.0001)                 1.111969199312560E+08,      /* J = 75 */
(PID.TID 0000.0001)                 1.118141564504991E+08,      /* J = 76 */
(PID.TID 0000.0001)                 1.124310523644033E+08,      /* J = 77 */
(PID.TID 0000.0001)                 1.130476057938687E+08,      /* J = 78 */
(PID.TID 0000.0001)                 1.136638148606683E+08,      /* J = 79 */
(PID.TID 0000.0001)                 1.142796776878255E+08,      /* J = 80 */
(PID.TID 0000.0001)                 1.148951923992126E+08,      /* J = 81 */
(PID.TID 0000.0001)                 1.155103571199756E+08,      /* J = 82 */
(PID.TID 0000.0001)                 1.161251699761098E+08,      /* J = 83 */
(PID.TID 0000.0001)                 1.167396290948606E+08,      /* J = 84 */
(PID.TID 0000.0001)                 1.173537326044641E+08,      /* J = 85 */
(PID.TID 0000.0001)                 1.179674786342178E+08,      /* J = 86 */
(PID.TID 0000.0001)                 1.185808653145988E+08,      /* J = 87 */
(PID.TID 0000.0001)                 1.191938907770982E+08,      /* J = 88 */
(PID.TID 0000.0001)                 1.198065531543159E+08,      /* J = 89 */
(PID.TID 0000.0001)                 1.204188505800075E+08,      /* J = 90 */
(PID.TID 0000.0001)                 1.210307811890137E+08,      /* J = 91 */
(PID.TID 0000.0001)                 1.216423431172366E+08,      /* J = 92 */
(PID.TID 0000.0001)                 1.222535345018050E+08,      /* J = 93 */
(PID.TID 0000.0001)                 1.228643534808854E+08,      /* J = 94 */
(PID.TID 0000.0001)                 1.234747981938710E+08,      /* J = 95 */
(PID.TID 0000.0001)                 1.240848667811927E+08,      /* J = 96 */
(PID.TID 0000.0001)                 1.246945573844846E+08,      /* J = 97 */
(PID.TID 0000.0001)                 1.253038681465364E+08,      /* J = 98 */
(PID.TID 0000.0001)                 1.259127972112936E+08,      /* J = 99 */
(PID.TID 0000.0001)                 1.265213427237870E+08       /* J =100 */
(PID.TID 0000.0001)     ;
(PID.TID 0000.0001) rAs =  /* rAs(:,1,:,1) ( units: m^2 ) */
(PID.TID 0000.0001)    50 @  6.439097919401864E+07              /* I =  1: 50 */
(PID.TID 0000.0001)     ;
(PID.TID 0000.0001) rAs =  /* rAs(1,:,1,:) ( units: m^2 ) */
(PID.TID 0000.0001)                 6.439097919401864E+07,      /* J =  1 */
(PID.TID 0000.0001)                 6.502823906837179E+07,      /* J =  2 */
(PID.TID 0000.0001)                 6.566530085543716E+07,      /* J =  3 */
(PID.TID 0000.0001)                 6.630216261459803E+07,      /* J =  4 */
(PID.TID 0000.0001)                 6.693882240587452E+07,      /* J =  5 */
(PID.TID 0000.0001)                 6.757527828990008E+07,      /* J =  6 */
(PID.TID 0000.0001)                 6.821152832789779E+07,      /* J =  7 */
(PID.TID 0000.0001)                 6.884757058175126E+07,      /* J =  8 */
(PID.TID 0000.0001)                 6.948340311398090E+07,      /* J =  9 */
(PID.TID 0000.0001)                 7.011902398769690E+07,      /* J = 10 */
(PID.TID 0000.0001)                 7.075443126669341E+07,      /* J = 11 */
(PID.TID 0000.0001)                 7.138962301544867E+07,      /* J = 12 */
(PID.TID 0000.0001)                 7.202459729903063E+07,      /* J = 13 */
(PID.TID 0000.0001)                 7.265935218316765E+07,      /* J = 14 */
(PID.TID 0000.0001)                 7.329388573434296E+07,      /* J = 15 */
(PID.TID 0000.0001)                 7.392819601962943E+07,      /* J = 16 */
(PID.TID 0000.0001)                 7.456228110680762E+07,      /* J = 17 */
(PID.TID 0000.0001)                 7.519613906436566E+07,      /* J = 18 */
(PID.TID 0000.0001)                 7.582976796140501E+07,      /* J = 19 */
(PID.TID 0000.0001)                 7.646316586782910E+07,      /* J = 20 */
(PID.TID 0000.0001)                 7.709633085422541E+07,      /* J = 21 */
(PID.TID 0000.0001)                 7.772926099177113E+07,      /* J = 22 */
(PID.TID 0000.0001)                 7.836195435256335E+07,      /* J = 23 */
(PID.TID 0000.0001)                 7.899440900921808E+07,      /* J = 24 */
(PID.TID 0000.0001)                 7.962662303520055E+07,      /* J = 25 */
(PID.TID 0000.0001)                 8.025859450470714E+07,      /* J = 26 */
(PID.TID 0000.0001)                 8.089032149259475E+07,      /* J = 27 */
(PID.TID 0000.0001)                 8.152180207452223E+07,      /* J = 28 */
(PID.TID 0000.0001)                 8.215303432695043E+07,      /* J = 29 */
(PID.TID 0000.0001)                 8.278401632695346E+07,      /* J = 30 */
(PID.TID 0000.0001)                 8.341474615247822E+07,      /* J = 31 */
(PID.TID 0000.0001)                 8.404522188224998E+07,      /* J = 32 */
(PID.TID 0000.0001)                 8.467544159567805E+07,      /* J = 33 */
(PID.TID 0000.0001)                 8.530540337302092E+07,      /* J = 34 */
(PID.TID 0000.0001)                 8.593510529533908E+07,      /* J = 35 */
(PID.TID 0000.0001)                 8.656454544440059E+07,      /* J = 36 */
(PID.TID 0000.0001)                 8.719372190284635E+07,      /* J = 37 */
(PID.TID 0000.0001)                 8.782263275409557E+07,      /* J = 38 */
(PID.TID 0000.0001)                 8.845127608236952E+07,      /* J = 39 */
(PID.TID 0000.0001)                 8.907964997273858E+07,      /* J = 40 */
(PID.TID 0000.0001)                 8.970775251102796E+07,      /* J = 41 */
(PID.TID 0000.0001)                 9.033558178395921E+07,      /* J = 42 */
(PID.TID 0000.0001)                 9.096313587903227E+07,      /* J = 43 */
(PID.TID 0000.0001)                 9.159041288459623E+07,      /* J = 44 */
(PID.TID 0000.0001)                 9.221741088992015E+07,      /* J = 45 */
(PID.TID 0000.0001)                 9.284412798498066E+07,      /* J = 46 */
(PID.TID 0000.0001)                 9.347056226076873E+07,      /* J = 47 */
(PID.TID 0000.0001)                 9.409671180895932E+07,      /* J = 48 */
(PID.TID 0000.0001)                 9.472257472228888E+07,      /* J = 49 */
(PID.TID 0000.0001)                 9.534814909420149E+07,      /* J = 50 */
(PID.TID 0000.0001)                 9.597343301913190E+07,      /* J = 51 */
(PID.TID 0000.0001)                 9.659842459236403E+07,      /* J = 52 */
(PID.TID 0000.0001)                 9.722312190998378E+07,      /* J = 53 */
(PID.TID 0000.0001)                 9.784752306916212E+07,      /* J = 54 */
(PID.TID 0000.0001)                 9.847162616780120E+07,      /* J = 55 */
(PID.TID 0000.0001)                 9.909542930479389E+07,      /* J = 56 */
(PID.TID 0000.0001)                 9.971893057990581E+07,      /* J = 57 */
(PID.TID 0000.0001)                 1.003421280938932E+08,      /* J = 58 */
(PID.TID 0000.0001)                 1.009650199483144E+08,      /* J = 59 */
(PID.TID 0000.0001)                 1.015876042458127E+08,      /* J = 60 */
(PID.TID 0000.0001)                 1.022098790898334E+08,      /* J = 61 */
(PID.TID 0000.0001)                 1.028318425848597E+08,      /* J = 62 */
(PID.TID 0000.0001)                 1.034534928362239E+08,      /* J = 63 */
(PID.TID 0000.0001)                 1.040748279503199E+08,      /* J = 64 */
(PID.TID 0000.0001)                 1.046958460344376E+08,      /* J = 65 */
(PID.TID 0000.0001)                 1.053165451968815E+08,      /* J = 66 */
(PID.TID 0000.0001)                 1.059369235468288E+08,      /* J = 67 */
(PID.TID 0000.0001)                 1.065569791945417E+08,      /* J = 68 */
(PID.TID 0000.0001)                 1.071767102512258E+08,      /* J = 69 */
(PID.TID 0000.0001)                 1.077961148290539E+08,      /* J = 70 */
(PID.TID 0000.0001)                 1.084151910412367E+08,      /* J = 71 */
(PID.TID 0000.0001)                 1.090339370019284E+08,      /* J = 72 */
(PID.TID 0000.0001)                 1.096523508263446E+08,      /* J = 73 */
(PID.TID 0000.0001)                 1.102704306306916E+08,      /* J = 74 */
(PID.TID 0000.0001)                 1.108881745321664E+08,      /* J = 75 */
(PID.TID 0000.0001)                 1.115055806490511E+08,      /* J = 76 */
(PID.TID 0000.0001)                 1.121226471005947E+08,      /* J = 77 */
(PID.TID 0000.0001)                 1.127393720071080E+08,      /* J = 78 */
(PID.TID 0000.0001)                 1.133557534899393E+08,      /* J = 79 */
(PID.TID 0000.0001)                 1.139717896714750E+08,      /* J = 80 */
(PID.TID 0000.0001)                 1.145874786751864E+08,      /* J = 81 */
(PID.TID 0000.0001)                 1.152028186255828E+08,      /* J = 82 */
(PID.TID 0000.0001)                 1.158178076481876E+08,      /* J = 83 */
(PID.TID 0000.0001)                 1.164324438696802E+08,      /* J = 84 */
(PID.TID 0000.0001)                 1.170467254177541E+08,      /* J = 85 */
(PID.TID 0000.0001)                 1.176606504211880E+08,      /* J = 86 */
(PID.TID 0000.0001)                 1.182742170098927E+08,      /* J = 87 */
(PID.TID 0000.0001)                 1.188874233148169E+08,      /* J = 88 */
(PID.TID 0000.0001)                 1.195002674680178E+08,      /* J = 89 */
(PID.TID 0000.0001)                 1.201127476027324E+08,      /* J = 90 */
(PID.TID 0000.0001)                 1.207248618531171E+08,      /* J = 91 */
(PID.TID 0000.0001)                 1.213366083546731E+08,      /* J = 92 */
(PID.TID 0000.0001)                 1.219479852438687E+08,      /* J = 93 */
(PID.TID 0000.0001)                 1.225589906583516E+08,      /* J = 94 */
(PID.TID 0000.0001)                 1.231696227369014E+08,      /* J = 95 */
(PID.TID 0000.0001)                 1.237798796194069E+08,      /* J = 96 */
(PID.TID 0000.0001)                 1.243897594469357E+08,      /* J = 97 */
(PID.TID 0000.0001)                 1.249992603617116E+08,      /* J = 98 */
(PID.TID 0000.0001)                 1.256083805070198E+08,      /* J = 99 */
(PID.TID 0000.0001)                 1.262171180274426E+08       /* J =100 */
(PID.TID 0000.0001)     ;
(PID.TID 0000.0001) globalArea = /* Integrated horizontal Area (m^2) */
(PID.TID 0000.0001)                 4.665024516720103E+11
(PID.TID 0000.0001)     ;
(PID.TID 0000.0001) // =======================================================
(PID.TID 0000.0001) // End of Model config. summary
(PID.TID 0000.0001) // =======================================================
(PID.TID 0000.0001) 
(PID.TID 0000.0001) == Packages configuration : Check & print summary ==
(PID.TID 0000.0001) 
(PID.TID 0000.0001) GAD_CHECK: #define ALLOW_GENERIC_ADVDIFF
(PID.TID 0000.0001) SHELFICE_CHECK: #define ALLOW_SHELFICE
(PID.TID 0000.0001) // =======================================================
(PID.TID 0000.0001) // CONFIG_CHECK : Normal End
(PID.TID 0000.0001) // =======================================================
(PID.TID 0000.0001) 
(PID.TID 0000.0001) // =======================================================
(PID.TID 0000.0001) // Field Initial Temperature at iteration          1
(PID.TID 0000.0001) // CMIN =          1.000000000000000E+32
(PID.TID 0000.0001) // CMAX =         -1.000000000000000E+32
(PID.TID 0000.0001) // CINT =          0.000000000000000E+00
(PID.TID 0000.0001) // SYMBOLS (CMIN->CMAX): -abcdefghijklmnopqrstuvwxyz+
(PID.TID 0000.0001) //                  0.0: .
(PID.TID 0000.0001) // RANGE I (Lo:Hi:Step):(   1:  50:   1)
(PID.TID 0000.0001) // RANGE J (Lo:Hi:Step):( 100:   1:  -1)
(PID.TID 0000.0001) // RANGE K (Lo:Hi:Step):(   1:   1:   1)
(PID.TID 0000.0001) // =======================================================
(PID.TID 0000.0001) // =======================================================
(PID.TID 0000.0001) // END OF FIELD                                          =
(PID.TID 0000.0001) // =======================================================
(PID.TID 0000.0001) 
(PID.TID 0000.0001) // =======================================================
(PID.TID 0000.0001) // Field Initial Salinity at iteration          1
(PID.TID 0000.0001) // CMIN =          1.000000000000000E+32
(PID.TID 0000.0001) // CMAX =         -1.000000000000000E+32
(PID.TID 0000.0001) // CINT =          0.000000000000000E+00
(PID.TID 0000.0001) // SYMBOLS (CMIN->CMAX): -abcdefghijklmnopqrstuvwxyz+
(PID.TID 0000.0001) //                  0.0: .
(PID.TID 0000.0001) // RANGE I (Lo:Hi:Step):(   1:  50:   1)
(PID.TID 0000.0001) // RANGE J (Lo:Hi:Step):( 100:   1:  -1)
(PID.TID 0000.0001) // RANGE K (Lo:Hi:Step):(   1:   1:   1)
(PID.TID 0000.0001) // =======================================================
(PID.TID 0000.0001) // =======================================================
(PID.TID 0000.0001) // END OF FIELD                                          =
(PID.TID 0000.0001) // =======================================================
(PID.TID 0000.0001) 
(PID.TID 0000.0001) Start initial hydrostatic pressure computation
(PID.TID 0000.0001) Pressure is predetermined for buoyancyRelation OCEANIC
(PID.TID 0000.0001) 
(PID.TID 0000.0001)  MDS_READ_FIELD: opening global file: phi0surf.exp1.jmd95z
(PID.TID 0000.0001) // =======================================================
(PID.TID 0000.0001) // Model current state
(PID.TID 0000.0001) // =======================================================
(PID.TID 0000.0001) 
(PID.TID 0000.0001) // =======================================================
(PID.TID 0000.0001) // Begin MONITOR dynamic field statistics
(PID.TID 0000.0001) // =======================================================
(PID.TID 0000.0001) %MON time_tsnumber                =                     0
(PID.TID 0000.0001) %MON time_secondsf                =   0.0000000000000E+00
(PID.TID 0000.0001) %MON dynstat_eta_max              =   0.0000000000000E+00
(PID.TID 0000.0001) %MON dynstat_eta_min              =   0.0000000000000E+00
(PID.TID 0000.0001) %MON dynstat_eta_mean             =   0.0000000000000E+00
(PID.TID 0000.0001) %MON dynstat_eta_sd               =   0.0000000000000E+00
(PID.TID 0000.0001) %MON dynstat_eta_del2             =   0.0000000000000E+00
(PID.TID 0000.0001) %MON dynstat_uvel_max             =   0.0000000000000E+00
(PID.TID 0000.0001) %MON dynstat_uvel_min             =   0.0000000000000E+00
(PID.TID 0000.0001) %MON dynstat_uvel_mean            =   0.0000000000000E+00
(PID.TID 0000.0001) %MON dynstat_uvel_sd              =   0.0000000000000E+00
(PID.TID 0000.0001) %MON dynstat_uvel_del2            =   0.0000000000000E+00
(PID.TID 0000.0001) %MON dynstat_vvel_max             =   0.0000000000000E+00
(PID.TID 0000.0001) %MON dynstat_vvel_min             =   0.0000000000000E+00
(PID.TID 0000.0001) %MON dynstat_vvel_mean            =   0.0000000000000E+00
(PID.TID 0000.0001) %MON dynstat_vvel_sd              =   0.0000000000000E+00
(PID.TID 0000.0001) %MON dynstat_vvel_del2            =   0.0000000000000E+00
(PID.TID 0000.0001) %MON dynstat_wvel_max             =   0.0000000000000E+00
(PID.TID 0000.0001) %MON dynstat_wvel_min             =   0.0000000000000E+00
(PID.TID 0000.0001) %MON dynstat_wvel_mean            =   0.0000000000000E+00
(PID.TID 0000.0001) %MON dynstat_wvel_sd              =   0.0000000000000E+00
(PID.TID 0000.0001) %MON dynstat_wvel_del2            =   0.0000000000000E+00
(PID.TID 0000.0001) %MON dynstat_theta_max            =  -1.9000000000000E+00
(PID.TID 0000.0001) %MON dynstat_theta_min            =  -1.9000000000000E+00
(PID.TID 0000.0001) %MON dynstat_theta_mean           =  -1.9000000000000E+00
(PID.TID 0000.0001) %MON dynstat_theta_sd             =   0.0000000000000E+00
(PID.TID 0000.0001) %MON dynstat_theta_del2           =   0.0000000000000E+00
(PID.TID 0000.0001) %MON dynstat_salt_max             =   3.4400000000000E+01
(PID.TID 0000.0001) %MON dynstat_salt_min             =   3.4400000000000E+01
(PID.TID 0000.0001) %MON dynstat_salt_mean            =   3.4400000000002E+01
(PID.TID 0000.0001) %MON dynstat_salt_sd              =   2.0961010704923E-12
(PID.TID 0000.0001) %MON dynstat_salt_del2            =   0.0000000000000E+00
(PID.TID 0000.0001) %MON extforcing_qnet_max          =   0.0000000000000E+00
(PID.TID 0000.0001) %MON extforcing_qnet_min          =   0.0000000000000E+00
(PID.TID 0000.0001) %MON extforcing_qnet_mean         =   0.0000000000000E+00
(PID.TID 0000.0001) %MON extforcing_qnet_sd           =   0.0000000000000E+00
(PID.TID 0000.0001) %MON extforcing_qnet_del2         =   0.0000000000000E+00
(PID.TID 0000.0001) %MON extforcing_qsw_max           =   0.0000000000000E+00
(PID.TID 0000.0001) %MON extforcing_qsw_min           =   0.0000000000000E+00
(PID.TID 0000.0001) %MON extforcing_qsw_mean          =   0.0000000000000E+00
(PID.TID 0000.0001) %MON extforcing_qsw_sd            =   0.0000000000000E+00
(PID.TID 0000.0001) %MON extforcing_qsw_del2          =   0.0000000000000E+00
(PID.TID 0000.0001) %MON extforcing_empmr_max         =   0.0000000000000E+00
(PID.TID 0000.0001) %MON extforcing_empmr_min         =   0.0000000000000E+00
(PID.TID 0000.0001) %MON extforcing_empmr_mean        =   0.0000000000000E+00
(PID.TID 0000.0001) %MON extforcing_empmr_sd          =   0.0000000000000E+00
(PID.TID 0000.0001) %MON extforcing_empmr_del2        =   0.0000000000000E+00
(PID.TID 0000.0001) %MON advcfl_uvel_max              =   0.0000000000000E+00
(PID.TID 0000.0001) %MON advcfl_vvel_max              =   0.0000000000000E+00
(PID.TID 0000.0001) %MON advcfl_wvel_max              =   0.0000000000000E+00
(PID.TID 0000.0001) %MON advcfl_W_hf_max              =   0.0000000000000E+00
(PID.TID 0000.0001) %MON pe_b_mean                    =   0.0000000000000E+00
(PID.TID 0000.0001) %MON ke_max                       =   0.0000000000000E+00
(PID.TID 0000.0001) %MON ke_mean                      =   0.0000000000000E+00
(PID.TID 0000.0001) %MON ke_vol                       =   2.9241705273104E+14
(PID.TID 0000.0001) %MON vort_r_min                   =   0.0000000000000E+00
(PID.TID 0000.0001) %MON vort_r_max                   =   0.0000000000000E+00
(PID.TID 0000.0001) %MON vort_a_mean                  =  -1.4007437277915E-04
(PID.TID 0000.0001) %MON vort_a_sd                    =   1.7682771465337E-06
(PID.TID 0000.0001) %MON vort_p_mean                  =  -1.5039772194955E-04
(PID.TID 0000.0001) %MON vort_p_sd                    =   8.7081213929711E-05
(PID.TID 0000.0001) %MON surfExpan_theta_mean         =   0.0000000000000E+00
(PID.TID 0000.0001) %MON surfExpan_salt_mean          =   0.0000000000000E+00
(PID.TID 0000.0001) // =======================================================
(PID.TID 0000.0001) // End MONITOR dynamic field statistics
(PID.TID 0000.0001) // =======================================================
 cg2d: Sum(rhs),rhsMax =  -1.83186799063151E-14  3.88700162323895E-14
(PID.TID 0000.0001)                    cg2d_init_res =    2.18953287600515E+01
(PID.TID 0000.0001)                       cg2d_iters =   216
(PID.TID 0000.0001)                         cg2d_res =    9.20750847985007E-14
(PID.TID 0000.0001) // =======================================================
(PID.TID 0000.0001) // Begin MONITOR dynamic field statistics
(PID.TID 0000.0001) // =======================================================
(PID.TID 0000.0001) %MON time_tsnumber                =                     1
(PID.TID 0000.0001) %MON time_secondsf                =   1.8000000000000E+03
(PID.TID 0000.0001) %MON dynstat_eta_max              =   2.9172428893540E-14
(PID.TID 0000.0001) %MON dynstat_eta_min              =  -1.8475101007472E-14
(PID.TID 0000.0001) %MON dynstat_eta_mean             =   2.9748584938996E-30
(PID.TID 0000.0001) %MON dynstat_eta_sd               =   7.3556156094534E-15
(PID.TID 0000.0001) %MON dynstat_eta_del2             =   5.3829126889289E-16
(PID.TID 0000.0001) %MON dynstat_uvel_max             =   1.0788672123772E-15
(PID.TID 0000.0001) %MON dynstat_uvel_min             =  -1.2238471730638E-15
(PID.TID 0000.0001) %MON dynstat_uvel_mean            =   9.9170813469251E-17
(PID.TID 0000.0001) %MON dynstat_uvel_sd              =   3.5676722034974E-16
(PID.TID 0000.0001) %MON dynstat_uvel_del2            =   7.1220547327556E-17
(PID.TID 0000.0001) %MON dynstat_vvel_max             =   9.6860214043329E-17
(PID.TID 0000.0001) %MON dynstat_vvel_min             =  -4.1124222343785E-15
(PID.TID 0000.0001) %MON dynstat_vvel_mean            =  -9.0699308283666E-16
(PID.TID 0000.0001) %MON dynstat_vvel_sd              =   1.1550308930280E-15
(PID.TID 0000.0001) %MON dynstat_vvel_del2            =   7.8928935467701E-18
(PID.TID 0000.0001) %MON dynstat_wvel_max             =   1.6206904940856E-17
(PID.TID 0000.0001) %MON dynstat_wvel_min             =  -1.3159813703832E-17
(PID.TID 0000.0001) %MON dynstat_wvel_mean            =  -7.2632899150968E-19
(PID.TID 0000.0001) %MON dynstat_wvel_sd              =   2.0036033020317E-18
(PID.TID 0000.0001) %MON dynstat_wvel_del2            =   1.3952463819852E-19
(PID.TID 0000.0001) %MON dynstat_theta_max            =  -1.9000000000000E+00
(PID.TID 0000.0001) %MON dynstat_theta_min            =  -1.9006851721692E+00
(PID.TID 0000.0001) %MON dynstat_theta_mean           =  -1.9000114590763E+00
(PID.TID 0000.0001) %MON dynstat_theta_sd             =   5.3541545558264E-05
(PID.TID 0000.0001) %MON dynstat_theta_del2           =   7.2730306538435E-07
(PID.TID 0000.0001) %MON dynstat_salt_max             =   3.4400000000000E+01
(PID.TID 0000.0001) %MON dynstat_salt_min             =   3.4399720387688E+01
(PID.TID 0000.0001) %MON dynstat_salt_mean            =   3.4399995374964E+01
(PID.TID 0000.0001) %MON dynstat_salt_sd              =   2.1724392826835E-05
(PID.TID 0000.0001) %MON dynstat_salt_del2            =   2.9617781733378E-07
(PID.TID 0000.0001) %MON extforcing_qnet_max          =   0.0000000000000E+00
(PID.TID 0000.0001) %MON extforcing_qnet_min          =   0.0000000000000E+00
(PID.TID 0000.0001) %MON extforcing_qnet_mean         =   0.0000000000000E+00
(PID.TID 0000.0001) %MON extforcing_qnet_sd           =   0.0000000000000E+00
(PID.TID 0000.0001) %MON extforcing_qnet_del2         =   0.0000000000000E+00
(PID.TID 0000.0001) %MON extforcing_qsw_max           =   0.0000000000000E+00
(PID.TID 0000.0001) %MON extforcing_qsw_min           =   0.0000000000000E+00
(PID.TID 0000.0001) %MON extforcing_qsw_mean          =   0.0000000000000E+00
(PID.TID 0000.0001) %MON extforcing_qsw_sd            =   0.0000000000000E+00
(PID.TID 0000.0001) %MON extforcing_qsw_del2          =   0.0000000000000E+00
(PID.TID 0000.0001) %MON extforcing_empmr_max         =   0.0000000000000E+00
(PID.TID 0000.0001) %MON extforcing_empmr_min         =   0.0000000000000E+00
(PID.TID 0000.0001) %MON extforcing_empmr_mean        =   0.0000000000000E+00
(PID.TID 0000.0001) %MON extforcing_empmr_sd          =   0.0000000000000E+00
(PID.TID 0000.0001) %MON extforcing_empmr_del2        =   0.0000000000000E+00
(PID.TID 0000.0001) %MON advcfl_uvel_max              =   3.4650666880849E-16
(PID.TID 0000.0001) %MON advcfl_vvel_max              =   6.6581473734719E-16
(PID.TID 0000.0001) %MON advcfl_wvel_max              =   9.7241429645133E-16
(PID.TID 0000.0001) %MON advcfl_W_hf_max              =   1.0607925590322E-14
(PID.TID 0000.0001) %MON pe_b_mean                    =  -5.9508927605322E-18
(PID.TID 0000.0001) %MON ke_max                       =   7.9251101869563E-30
(PID.TID 0000.0001) %MON ke_mean                      =   1.1328472119094E-30
(PID.TID 0000.0001) %MON ke_vol                       =   2.9241705273104E+14
(PID.TID 0000.0001) %MON vort_r_min                   =  -5.7096094687164E-19
(PID.TID 0000.0001) %MON vort_r_max                   =   6.0802152751963E-19
(PID.TID 0000.0001) %MON vort_a_mean                  =  -1.4007437277915E-04
(PID.TID 0000.0001) %MON vort_a_sd                    =   1.7682771465365E-06
(PID.TID 0000.0001) %MON vort_p_mean                  =  -1.5039772194955E-04
(PID.TID 0000.0001) %MON vort_p_sd                    =   8.7081213929711E-05
(PID.TID 0000.0001) %MON surfExpan_theta_mean         =  -4.8326284403734E-22
(PID.TID 0000.0001) %MON surfExpan_salt_mean          =  -1.9870582436315E-22
(PID.TID 0000.0001) // =======================================================
(PID.TID 0000.0001) // End MONITOR dynamic field statistics
(PID.TID 0000.0001) // =======================================================
 cg2d: Sum(rhs),rhsMax =   5.94258859678429E-14  1.62496708499001E-05
(PID.TID 0000.0001)                    cg2d_init_res =    3.48149259995461E+01
(PID.TID 0000.0001)                       cg2d_iters =   212
(PID.TID 0000.0001)                         cg2d_res =    9.32894706961858E-14
(PID.TID 0000.0001) // =======================================================
(PID.TID 0000.0001) // Begin MONITOR dynamic field statistics
(PID.TID 0000.0001) // =======================================================
(PID.TID 0000.0001) %MON time_tsnumber                =                     2
(PID.TID 0000.0001) %MON time_secondsf                =   3.6000000000000E+03
(PID.TID 0000.0001) %MON dynstat_eta_max              =   4.1140018679368E-06
(PID.TID 0000.0001) %MON dynstat_eta_min              =  -3.2534335505915E-06
(PID.TID 0000.0001) %MON dynstat_eta_mean             =   3.4936890465111E-22
(PID.TID 0000.0001) %MON dynstat_eta_sd               =   9.7177935022165E-07
(PID.TID 0000.0001) %MON dynstat_eta_del2             =   4.5093554251817E-07
(PID.TID 0000.0001) %MON dynstat_uvel_max             =   9.5692794374609E-07
(PID.TID 0000.0001) %MON dynstat_uvel_min             =  -1.0601779211851E-06
(PID.TID 0000.0001) %MON dynstat_uvel_mean            =   2.7532964908725E-09
(PID.TID 0000.0001) %MON dynstat_uvel_sd              =   1.2690340786923E-07
(PID.TID 0000.0001) %MON dynstat_uvel_del2            =   3.3729001357581E-08
(PID.TID 0000.0001) %MON dynstat_vvel_max             =   5.8337975771610E-06
(PID.TID 0000.0001) %MON dynstat_vvel_min             =  -1.2792988787442E-06
(PID.TID 0000.0001) %MON dynstat_vvel_mean            =  -4.2395282173104E-08
(PID.TID 0000.0001) %MON dynstat_vvel_sd              =   3.3958307115825E-07
(PID.TID 0000.0001) %MON dynstat_vvel_del2            =   1.8047456152401E-08
(PID.TID 0000.0001) %MON dynstat_wvel_max             =   1.3450911162465E-08
(PID.TID 0000.0001) %MON dynstat_wvel_min             =  -1.1579476484653E-08
(PID.TID 0000.0001) %MON dynstat_wvel_mean            =  -2.9399032700491E-11
(PID.TID 0000.0001) %MON dynstat_wvel_sd              =   9.1598016705372E-10
(PID.TID 0000.0001) %MON dynstat_wvel_del2            =   3.2244854965543E-10
(PID.TID 0000.0001) %MON dynstat_theta_max            =  -1.9000000000000E+00
(PID.TID 0000.0001) %MON dynstat_theta_min            =  -1.9013688224855E+00
(PID.TID 0000.0001) %MON dynstat_theta_mean           =  -1.9000228986931E+00
(PID.TID 0000.0001) %MON dynstat_theta_sd             =   1.0695883254265E-04
(PID.TID 0000.0001) %MON dynstat_theta_del2           =   1.4511452016614E-06
(PID.TID 0000.0001) %MON dynstat_salt_max             =   3.4400000000000E+01
(PID.TID 0000.0001) %MON dynstat_salt_min             =   3.4399441399459E+01
(PID.TID 0000.0001) %MON dynstat_salt_mean            =   3.4399990757902E+01
(PID.TID 0000.0001) %MON dynstat_salt_sd              =   4.3397842638797E-05
(PID.TID 0000.0001) %MON dynstat_salt_del2            =   5.9094773161889E-07
(PID.TID 0000.0001) %MON extforcing_qnet_max          =   0.0000000000000E+00
(PID.TID 0000.0001) %MON extforcing_qnet_min          =   0.0000000000000E+00
(PID.TID 0000.0001) %MON extforcing_qnet_mean         =   0.0000000000000E+00
(PID.TID 0000.0001) %MON extforcing_qnet_sd           =   0.0000000000000E+00
(PID.TID 0000.0001) %MON extforcing_qnet_del2         =   0.0000000000000E+00
(PID.TID 0000.0001) %MON extforcing_qsw_max           =   0.0000000000000E+00
(PID.TID 0000.0001) %MON extforcing_qsw_min           =   0.0000000000000E+00
(PID.TID 0000.0001) %MON extforcing_qsw_mean          =   0.0000000000000E+00
(PID.TID 0000.0001) %MON extforcing_qsw_sd            =   0.0000000000000E+00
(PID.TID 0000.0001) %MON extforcing_qsw_del2          =   0.0000000000000E+00
(PID.TID 0000.0001) %MON extforcing_empmr_max         =   0.0000000000000E+00
(PID.TID 0000.0001) %MON extforcing_empmr_min         =   0.0000000000000E+00
(PID.TID 0000.0001) %MON extforcing_empmr_mean        =   0.0000000000000E+00
(PID.TID 0000.0001) %MON extforcing_empmr_sd          =   0.0000000000000E+00
(PID.TID 0000.0001) %MON extforcing_empmr_del2        =   0.0000000000000E+00
(PID.TID 0000.0001) %MON advcfl_uvel_max              =   3.2153700821883E-07
(PID.TID 0000.0001) %MON advcfl_vvel_max              =   9.4451108864827E-07
(PID.TID 0000.0001) %MON advcfl_wvel_max              =   8.0705466974789E-07
(PID.TID 0000.0001) %MON advcfl_W_hf_max              =   3.4860484805214E-06
(PID.TID 0000.0001) %MON pe_b_mean                    =  -3.2224873394569E-10
(PID.TID 0000.0001) %MON ke_max                       =   8.9853429996130E-12
(PID.TID 0000.0001) %MON ke_mean                      =   6.5760147010299E-14
(PID.TID 0000.0001) %MON ke_vol                       =   2.9241705273104E+14
(PID.TID 0000.0001) %MON vort_r_min                   =  -9.8771629190259E-10
(PID.TID 0000.0001) %MON vort_r_max                   =   9.6301085124114E-10
(PID.TID 0000.0001) %MON vort_a_mean                  =  -1.4007437277915E-04
(PID.TID 0000.0001) %MON vort_a_sd                    =   1.7682771510628E-06
(PID.TID 0000.0001) %MON vort_p_mean                  =  -1.5039772194954E-04
(PID.TID 0000.0001) %MON vort_p_sd                    =   8.7081213427108E-05
(PID.TID 0000.0001) %MON surfExpan_theta_mean         =  -4.3395185693012E-14
(PID.TID 0000.0001) %MON surfExpan_salt_mean          =  -1.7854244786032E-14
(PID.TID 0000.0001) // =======================================================
(PID.TID 0000.0001) // End MONITOR dynamic field statistics
(PID.TID 0000.0001) // =======================================================
 cg2d: Sum(rhs),rhsMax =  -2.41473507855972E-14  2.63770141735370E-05
(PID.TID 0000.0001)                    cg2d_init_res =    1.34717437646798E+01
(PID.TID 0000.0001)                       cg2d_iters =   211
(PID.TID 0000.0001)                         cg2d_res =    9.08721028370547E-14
(PID.TID 0000.0001) // =======================================================
(PID.TID 0000.0001) // Begin MONITOR dynamic field statistics
(PID.TID 0000.0001) // =======================================================
(PID.TID 0000.0001) %MON time_tsnumber                =                     3
(PID.TID 0000.0001) %MON time_secondsf                =   5.4000000000000E+03
(PID.TID 0000.0001) %MON dynstat_eta_max              =   7.8666519424719E-06
(PID.TID 0000.0001) %MON dynstat_eta_min              =  -4.4405977548062E-06
(PID.TID 0000.0001) %MON dynstat_eta_mean             =  -1.0314700994461E-21
(PID.TID 0000.0001) %MON dynstat_eta_sd               =   1.7817079595620E-06
(PID.TID 0000.0001) %MON dynstat_eta_del2             =   7.3420263959432E-07
(PID.TID 0000.0001) %MON dynstat_uvel_max             =   1.5323300570425E-06
(PID.TID 0000.0001) %MON dynstat_uvel_min             =  -3.4593803463923E-06
(PID.TID 0000.0001) %MON dynstat_uvel_mean            =   5.8341832683918E-09
(PID.TID 0000.0001) %MON dynstat_uvel_sd              =   2.6970527768811E-07
(PID.TID 0000.0001) %MON dynstat_uvel_del2            =   4.8060968348689E-08
(PID.TID 0000.0001) %MON dynstat_vvel_max             =   1.4424344846394E-05
(PID.TID 0000.0001) %MON dynstat_vvel_min             =  -2.5351521554381E-06
(PID.TID 0000.0001) %MON dynstat_vvel_mean            =  -1.0075610593959E-07
(PID.TID 0000.0001) %MON dynstat_vvel_sd              =   8.5952911335578E-07
(PID.TID 0000.0001) %MON dynstat_vvel_del2            =   4.4350121384065E-08
(PID.TID 0000.0001) %MON dynstat_wvel_max             =   3.4538734596092E-08
(PID.TID 0000.0001) %MON dynstat_wvel_min             =  -3.0307024982808E-08
(PID.TID 0000.0001) %MON dynstat_wvel_mean            =  -6.5995100784960E-11
(PID.TID 0000.0001) %MON dynstat_wvel_sd              =   2.2401825780038E-09
(PID.TID 0000.0001) %MON dynstat_wvel_del2            =   7.8619624210209E-10
(PID.TID 0000.0001) %MON dynstat_theta_max            =  -1.9000000000000E+00
(PID.TID 0000.0001) %MON dynstat_theta_min            =  -1.9020515256609E+00
(PID.TID 0000.0001) %MON dynstat_theta_mean           =  -1.9000343261923E+00
(PID.TID 0000.0001) %MON dynstat_theta_sd             =   1.6029883338013E-04
(PID.TID 0000.0001) %MON dynstat_theta_del2           =   2.1732130283837E-06
(PID.TID 0000.0001) %MON dynstat_salt_max             =   3.4400000000000E+01
(PID.TID 0000.0001) %MON dynstat_salt_min             =   3.4399162799627E+01
(PID.TID 0000.0001) %MON dynstat_salt_mean            =   3.4399986145807E+01
(PID.TID 0000.0001) %MON dynstat_salt_sd              =   6.5039607406404E-05
(PID.TID 0000.0001) %MON dynstat_salt_del2            =   8.8498943464462E-07
(PID.TID 0000.0001) %MON extforcing_qnet_max          =   0.0000000000000E+00
(PID.TID 0000.0001) %MON extforcing_qnet_min          =   0.0000000000000E+00
(PID.TID 0000.0001) %MON extforcing_qnet_mean         =   0.0000000000000E+00
(PID.TID 0000.0001) %MON extforcing_qnet_sd           =   0.0000000000000E+00
(PID.TID 0000.0001) %MON extforcing_qnet_del2         =   0.0000000000000E+00
(PID.TID 0000.0001) %MON extforcing_qsw_max           =   0.0000000000000E+00
(PID.TID 0000.0001) %MON extforcing_qsw_min           =   0.0000000000000E+00
(PID.TID 0000.0001) %MON extforcing_qsw_mean          =   0.0000000000000E+00
(PID.TID 0000.0001) %MON extforcing_qsw_sd            =   0.0000000000000E+00
(PID.TID 0000.0001) %MON extforcing_qsw_del2          =   0.0000000000000E+00
(PID.TID 0000.0001) %MON extforcing_empmr_max         =   0.0000000000000E+00
(PID.TID 0000.0001) %MON extforcing_empmr_min         =   0.0000000000000E+00
(PID.TID 0000.0001) %MON extforcing_empmr_mean        =   0.0000000000000E+00
(PID.TID 0000.0001) %MON extforcing_empmr_sd          =   0.0000000000000E+00
(PID.TID 0000.0001) %MON extforcing_empmr_del2        =   0.0000000000000E+00
(PID.TID 0000.0001) %MON advcfl_uvel_max              =   1.0491812597140E-06
(PID.TID 0000.0001) %MON advcfl_vvel_max              =   2.3353490541466E-06
(PID.TID 0000.0001) %MON advcfl_wvel_max              =   2.0723240757655E-06
(PID.TID 0000.0001) %MON advcfl_W_hf_max              =   4.6163315958027E-06
(PID.TID 0000.0001) %MON pe_b_mean                    =  -9.6793845919657E-10
(PID.TID 0000.0001) %MON ke_max                       =   5.6916881037135E-11
(PID.TID 0000.0001) %MON ke_mean                      =   4.0571309102069E-13
(PID.TID 0000.0001) %MON ke_vol                       =   2.9241705273104E+14
(PID.TID 0000.0001) %MON vort_r_min                   =  -2.4421759953725E-09
(PID.TID 0000.0001) %MON vort_r_max                   =   2.3742531130814E-09
(PID.TID 0000.0001) %MON vort_a_mean                  =  -1.4007437277889E-04
(PID.TID 0000.0001) %MON vort_a_sd                    =   1.7682771443997E-06
(PID.TID 0000.0001) %MON vort_p_mean                  =  -1.5039772194926E-04
(PID.TID 0000.0001) %MON vort_p_sd                    =   8.7081191555502E-05
(PID.TID 0000.0001) %MON surfExpan_theta_mean         =  -1.3510975281225E-13
(PID.TID 0000.0001) %MON surfExpan_salt_mean          =  -5.5582507644900E-14
(PID.TID 0000.0001) // =======================================================
(PID.TID 0000.0001) // End MONITOR dynamic field statistics
(PID.TID 0000.0001) // =======================================================
 cg2d: Sum(rhs),rhsMax =   3.99680288865056E-15  3.65063298218979E-05
(PID.TID 0000.0001)                    cg2d_init_res =    9.65581449389491E+00
(PID.TID 0000.0001)                       cg2d_iters =   210
(PID.TID 0000.0001)                         cg2d_res =    8.96454725855103E-14
(PID.TID 0000.0001) // =======================================================
(PID.TID 0000.0001) // Begin MONITOR dynamic field statistics
(PID.TID 0000.0001) // =======================================================
(PID.TID 0000.0001) %MON time_tsnumber                =                     4
(PID.TID 0000.0001) %MON time_secondsf                =   7.2000000000000E+03
(PID.TID 0000.0001) %MON dynstat_eta_max              =   1.2079596978949E-05
(PID.TID 0000.0001) %MON dynstat_eta_min              =  -4.8466099303080E-06
(PID.TID 0000.0001) %MON dynstat_eta_mean             =  -8.6510395437419E-22
(PID.TID 0000.0001) %MON dynstat_eta_sd               =   2.7609480016422E-06
(PID.TID 0000.0001) %MON dynstat_eta_del2             =   1.0149540985027E-06
(PID.TID 0000.0001) %MON dynstat_uvel_max             =   2.1262791716536E-06
(PID.TID 0000.0001) %MON dynstat_uvel_min             =  -7.8757638998960E-06
(PID.TID 0000.0001) %MON dynstat_uvel_mean            =   8.1962417359538E-09
(PID.TID 0000.0001) %MON dynstat_uvel_sd              =   5.6701983671537E-07
(PID.TID 0000.0001) %MON dynstat_uvel_del2            =   5.8801828328474E-08
(PID.TID 0000.0001) %MON dynstat_vvel_max             =   2.5258561417947E-05
(PID.TID 0000.0001) %MON dynstat_vvel_min             =  -3.8953677828335E-06
(PID.TID 0000.0001) %MON dynstat_vvel_mean            =  -1.6492831333098E-07
(PID.TID 0000.0001) %MON dynstat_vvel_sd              =   1.5260620149858E-06
(PID.TID 0000.0001) %MON dynstat_vvel_del2            =   7.7684180902292E-08
(PID.TID 0000.0001) %MON dynstat_wvel_max             =   6.4837979676880E-08
(PID.TID 0000.0001) %MON dynstat_wvel_min             =  -6.1023805051113E-08
(PID.TID 0000.0001) %MON dynstat_wvel_mean            =  -9.6390881856351E-11
(PID.TID 0000.0001) %MON dynstat_wvel_sd              =   4.0123498245777E-09
(PID.TID 0000.0001) %MON dynstat_wvel_del2            =   1.3837146784930E-09
(PID.TID 0000.0001) %MON dynstat_theta_max            =  -1.9000000000000E+00
(PID.TID 0000.0001) %MON dynstat_theta_min            =  -1.9027332827261E+00
(PID.TID 0000.0001) %MON dynstat_theta_mean           =  -1.9000457415863E+00
(PID.TID 0000.0001) %MON dynstat_theta_sd             =   2.1356165618634E-04
(PID.TID 0000.0001) %MON dynstat_theta_del2           =   2.8933444667639E-06
(PID.TID 0000.0001) %MON dynstat_salt_max             =   3.4400000000000E+01
(PID.TID 0000.0001) %MON dynstat_salt_min             =   3.4398884587766E+01
(PID.TID 0000.0001) %MON dynstat_salt_mean            =   3.4399981538674E+01
(PID.TID 0000.0001) %MON dynstat_salt_sd              =   8.6649731612896E-05
(PID.TID 0000.0001) %MON dynstat_salt_del2            =   1.1782398759244E-06
(PID.TID 0000.0001) %MON extforcing_qnet_max          =   0.0000000000000E+00
(PID.TID 0000.0001) %MON extforcing_qnet_min          =   0.0000000000000E+00
(PID.TID 0000.0001) %MON extforcing_qnet_mean         =   0.0000000000000E+00
(PID.TID 0000.0001) %MON extforcing_qnet_sd           =   0.0000000000000E+00
(PID.TID 0000.0001) %MON extforcing_qnet_del2         =   0.0000000000000E+00
(PID.TID 0000.0001) %MON extforcing_qsw_max           =   0.0000000000000E+00
(PID.TID 0000.0001) %MON extforcing_qsw_min           =   0.0000000000000E+00
(PID.TID 0000.0001) %MON extforcing_qsw_mean          =   0.0000000000000E+00
(PID.TID 0000.0001) %MON extforcing_qsw_sd            =   0.0000000000000E+00
(PID.TID 0000.0001) %MON extforcing_qsw_del2          =   0.0000000000000E+00
(PID.TID 0000.0001) %MON extforcing_empmr_max         =   0.0000000000000E+00
(PID.TID 0000.0001) %MON extforcing_empmr_min         =   0.0000000000000E+00
(PID.TID 0000.0001) %MON extforcing_empmr_mean        =   0.0000000000000E+00
(PID.TID 0000.0001) %MON extforcing_empmr_sd          =   0.0000000000000E+00
(PID.TID 0000.0001) %MON extforcing_empmr_del2        =   0.0000000000000E+00
(PID.TID 0000.0001) %MON advcfl_uvel_max              =   2.3886080922905E-06
(PID.TID 0000.0001) %MON advcfl_vvel_max              =   4.0894444874044E-06
(PID.TID 0000.0001) %MON advcfl_wvel_max              =   3.8902787806128E-06
(PID.TID 0000.0001) %MON advcfl_W_hf_max              =   6.9802092562312E-06
(PID.TID 0000.0001) %MON pe_b_mean                    =  -1.8926914779046E-09
(PID.TID 0000.0001) %MON ke_max                       =   1.9089433432686E-10
(PID.TID 0000.0001) %MON ke_mean                      =   1.3216905247094E-12
(PID.TID 0000.0001) %MON ke_vol                       =   2.9241705273104E+14
(PID.TID 0000.0001) %MON vort_r_min                   =  -4.2765098192984E-09
(PID.TID 0000.0001) %MON vort_r_max                   =   4.1567014047247E-09
(PID.TID 0000.0001) %MON vort_a_mean                  =  -1.4007437277758E-04
(PID.TID 0000.0001) %MON vort_a_sd                    =   1.7682771213489E-06
(PID.TID 0000.0001) %MON vort_p_mean                  =  -1.5039772194785E-04
(PID.TID 0000.0001) %MON vort_p_sd                    =   8.7081144732636E-05
(PID.TID 0000.0001) %MON surfExpan_theta_mean         =  -2.6015122066364E-13
(PID.TID 0000.0001) %MON surfExpan_salt_mean          =  -1.0702340267312E-13
(PID.TID 0000.0001) // =======================================================
(PID.TID 0000.0001) // End MONITOR dynamic field statistics
(PID.TID 0000.0001) // =======================================================
 cg2d: Sum(rhs),rhsMax =  -1.99840144432528E-14  4.65538513669503E-05
(PID.TID 0000.0001)                    cg2d_init_res =    7.57171960263294E+00
(PID.TID 0000.0001)                       cg2d_iters =   209
(PID.TID 0000.0001)                         cg2d_res =    8.99994501161472E-14
(PID.TID 0000.0001) // =======================================================
(PID.TID 0000.0001) // Begin MONITOR dynamic field statistics
(PID.TID 0000.0001) // =======================================================
(PID.TID 0000.0001) %MON time_tsnumber                =                     5
(PID.TID 0000.0001) %MON time_secondsf                =   9.0000000000000E+03
(PID.TID 0000.0001) %MON dynstat_eta_max              =   1.6542597338896E-05
(PID.TID 0000.0001) %MON dynstat_eta_min              =  -6.0690981229371E-06
(PID.TID 0000.0001) %MON dynstat_eta_mean             =   1.3309291605757E-22
(PID.TID 0000.0001) %MON dynstat_eta_sd               =   3.8831310765863E-06
(PID.TID 0000.0001) %MON dynstat_eta_del2             =   1.2956948252309E-06
(PID.TID 0000.0001) %MON dynstat_uvel_max             =   2.8363663567364E-06
(PID.TID 0000.0001) %MON dynstat_uvel_min             =  -1.4822329002932E-05
(PID.TID 0000.0001) %MON dynstat_uvel_mean            =   8.7269910738342E-09
(PID.TID 0000.0001) %MON dynstat_uvel_sd              =   1.0656302575367E-06
(PID.TID 0000.0001) %MON dynstat_uvel_del2            =   6.7705664154378E-08
(PID.TID 0000.0001) %MON dynstat_vvel_max             =   3.7620920249399E-05
(PID.TID 0000.0001) %MON dynstat_vvel_min             =  -5.2933518104470E-06
(PID.TID 0000.0001) %MON dynstat_vvel_mean            =  -2.2436763050036E-07
(PID.TID 0000.0001) %MON dynstat_vvel_sd              =   2.2950275136311E-06
(PID.TID 0000.0001) %MON dynstat_vvel_del2            =   1.1578227592806E-07
(PID.TID 0000.0001) %MON dynstat_wvel_max             =   1.0321775073338E-07
(PID.TID 0000.0001) %MON dynstat_wvel_min             =  -1.0449148649395E-07
(PID.TID 0000.0001) %MON dynstat_wvel_mean            =  -1.1779287128642E-10
(PID.TID 0000.0001) %MON dynstat_wvel_sd              =   6.1448624338110E-09
(PID.TID 0000.0001) %MON dynstat_wvel_del2            =   2.0684807183133E-09
(PID.TID 0000.0001) %MON dynstat_theta_max            =  -1.9000000000000E+00
(PID.TID 0000.0001) %MON dynstat_theta_min            =  -1.9034140952797E+00
(PID.TID 0000.0001) %MON dynstat_theta_mean           =  -1.9000571448934E+00
(PID.TID 0000.0001) %MON dynstat_theta_sd             =   2.6674745649140E-04
(PID.TID 0000.0001) %MON dynstat_theta_del2           =   3.6115452554285E-06
(PID.TID 0000.0001) %MON dynstat_salt_max             =   3.4400000000000E+01
(PID.TID 0000.0001) %MON dynstat_salt_min             =   3.4398606763216E+01
(PID.TID 0000.0001) %MON dynstat_salt_mean            =   3.4399976936495E+01
(PID.TID 0000.0001) %MON dynstat_salt_sd              =   1.0822827921569E-04
(PID.TID 0000.0001) %MON dynstat_salt_del2            =   1.4707014055193E-06
(PID.TID 0000.0001) %MON extforcing_qnet_max          =   0.0000000000000E+00
(PID.TID 0000.0001) %MON extforcing_qnet_min          =   0.0000000000000E+00
(PID.TID 0000.0001) %MON extforcing_qnet_mean         =   0.0000000000000E+00
(PID.TID 0000.0001) %MON extforcing_qnet_sd           =   0.0000000000000E+00
(PID.TID 0000.0001) %MON extforcing_qnet_del2         =   0.0000000000000E+00
(PID.TID 0000.0001) %MON extforcing_qsw_max           =   0.0000000000000E+00
(PID.TID 0000.0001) %MON extforcing_qsw_min           =   0.0000000000000E+00
(PID.TID 0000.0001) %MON extforcing_qsw_mean          =   0.0000000000000E+00
(PID.TID 0000.0001) %MON extforcing_qsw_sd            =   0.0000000000000E+00
(PID.TID 0000.0001) %MON extforcing_qsw_del2          =   0.0000000000000E+00
(PID.TID 0000.0001) %MON extforcing_empmr_max         =   0.0000000000000E+00
(PID.TID 0000.0001) %MON extforcing_empmr_min         =   0.0000000000000E+00
(PID.TID 0000.0001) %MON extforcing_empmr_mean        =   0.0000000000000E+00
(PID.TID 0000.0001) %MON extforcing_empmr_sd          =   0.0000000000000E+00
(PID.TID 0000.0001) %MON extforcing_empmr_del2        =   0.0000000000000E+00
(PID.TID 0000.0001) %MON advcfl_uvel_max              =   4.4954032971279E-06
(PID.TID 0000.0001) %MON advcfl_vvel_max              =   6.0909511978648E-06
(PID.TID 0000.0001) %MON advcfl_wvel_max              =   6.2694891896372E-06
(PID.TID 0000.0001) %MON advcfl_W_hf_max              =   9.8019225299580E-06
(PID.TID 0000.0001) %MON pe_b_mean                    =  -3.0337313797070E-09
(PID.TID 0000.0001) %MON ke_max                       =   4.7529993314195E-10
(PID.TID 0000.0001) %MON ke_mean                      =   3.1837197204056E-12
(PID.TID 0000.0001) %MON ke_vol                       =   2.9241705273104E+14
(PID.TID 0000.0001) %MON vort_r_min                   =  -6.3695723677788E-09
(PID.TID 0000.0001) %MON vort_r_max                   =   6.1951382521245E-09
(PID.TID 0000.0001) %MON vort_a_mean                  =  -1.4007437277375E-04
(PID.TID 0000.0001) %MON vort_a_sd                    =   1.7682770848744E-06
(PID.TID 0000.0001) %MON vort_p_mean                  =  -1.5039772194374E-04
(PID.TID 0000.0001) %MON vort_p_sd                    =   8.7081068196828E-05
(PID.TID 0000.0001) %MON surfExpan_theta_mean         =  -3.9484526497618E-13
(PID.TID 0000.0001) %MON surfExpan_salt_mean          =  -1.6244864988824E-13
(PID.TID 0000.0001) // =======================================================
(PID.TID 0000.0001) // End MONITOR dynamic field statistics
(PID.TID 0000.0001) // =======================================================
 cg2d: Sum(rhs),rhsMax =  -4.66293670342566E-14  5.66235704419886E-05
(PID.TID 0000.0001)                    cg2d_init_res =    6.21659533482055E+00
(PID.TID 0000.0001)                       cg2d_iters =   208
(PID.TID 0000.0001)                         cg2d_res =    9.99566761845886E-14
(PID.TID 0000.0001) // =======================================================
(PID.TID 0000.0001) // Begin MONITOR dynamic field statistics
(PID.TID 0000.0001) // =======================================================
(PID.TID 0000.0001) %MON time_tsnumber                =                     6
(PID.TID 0000.0001) %MON time_secondsf                =   1.0800000000000E+04
(PID.TID 0000.0001) %MON dynstat_eta_max              =   2.0985842979355E-05
(PID.TID 0000.0001) %MON dynstat_eta_min              =  -6.9662352253742E-06
(PID.TID 0000.0001) %MON dynstat_eta_mean             =  -1.3309291605757E-21
(PID.TID 0000.0001) %MON dynstat_eta_sd               =   5.0932222132537E-06
(PID.TID 0000.0001) %MON dynstat_eta_del2             =   1.5759755619141E-06
(PID.TID 0000.0001) %MON dynstat_uvel_max             =   3.7552613432668E-06
(PID.TID 0000.0001) %MON dynstat_uvel_min             =  -2.5350730090043E-05
(PID.TID 0000.0001) %MON dynstat_uvel_mean            =   7.0279311659672E-09
(PID.TID 0000.0001) %MON dynstat_uvel_sd              =   1.7839392661800E-06
(PID.TID 0000.0001) %MON dynstat_uvel_del2            =   7.8343889899567E-08
(PID.TID 0000.0001) %MON dynstat_vvel_max             =   5.0702831883227E-05
(PID.TID 0000.0001) %MON dynstat_vvel_min             =  -7.2026288881531E-06
(PID.TID 0000.0001) %MON dynstat_vvel_mean            =  -2.6976872044544E-07
(PID.TID 0000.0001) %MON dynstat_vvel_sd              =   3.1159573334916E-06
(PID.TID 0000.0001) %MON dynstat_vvel_del2            =   1.5611990198723E-07
(PID.TID 0000.0001) %MON dynstat_wvel_max             =   1.5922231701317E-07
(PID.TID 0000.0001) %MON dynstat_wvel_min             =  -1.6089398371700E-07
(PID.TID 0000.0001) %MON dynstat_wvel_mean            =  -1.2901513313353E-10
(PID.TID 0000.0001) %MON dynstat_wvel_sd              =   8.5685534920190E-09
(PID.TID 0000.0001) %MON dynstat_wvel_del2            =   2.7969934390770E-09
(PID.TID 0000.0001) %MON dynstat_theta_max            =  -1.9000000000000E+00
(PID.TID 0000.0001) %MON dynstat_theta_min            =  -1.9040939650691E+00
(PID.TID 0000.0001) %MON dynstat_theta_mean           =  -1.9000685361318E+00
(PID.TID 0000.0001) %MON dynstat_theta_sd             =   3.1985639000964E-04
(PID.TID 0000.0001) %MON dynstat_theta_del2           =   4.3278213306395E-06
(PID.TID 0000.0001) %MON dynstat_salt_max             =   3.4400000000000E+01
(PID.TID 0000.0001) %MON dynstat_salt_min             =   3.4398329325256E+01
(PID.TID 0000.0001) %MON dynstat_salt_mean            =   3.4399972339262E+01
(PID.TID 0000.0001) %MON dynstat_salt_sd              =   1.2977531424709E-04
(PID.TID 0000.0001) %MON dynstat_salt_del2            =   1.7623764539904E-06
(PID.TID 0000.0001) %MON extforcing_qnet_max          =   0.0000000000000E+00
(PID.TID 0000.0001) %MON extforcing_qnet_min          =   0.0000000000000E+00
(PID.TID 0000.0001) %MON extforcing_qnet_mean         =   0.0000000000000E+00
(PID.TID 0000.0001) %MON extforcing_qnet_sd           =   0.0000000000000E+00
(PID.TID 0000.0001) %MON extforcing_qnet_del2         =   0.0000000000000E+00
(PID.TID 0000.0001) %MON extforcing_qsw_max           =   0.0000000000000E+00
(PID.TID 0000.0001) %MON extforcing_qsw_min           =   0.0000000000000E+00
(PID.TID 0000.0001) %MON extforcing_qsw_mean          =   0.0000000000000E+00
(PID.TID 0000.0001) %MON extforcing_qsw_sd            =   0.0000000000000E+00
(PID.TID 0000.0001) %MON extforcing_qsw_del2          =   0.0000000000000E+00
(PID.TID 0000.0001) %MON extforcing_empmr_max         =   0.0000000000000E+00
(PID.TID 0000.0001) %MON extforcing_empmr_min         =   0.0000000000000E+00
(PID.TID 0000.0001) %MON extforcing_empmr_mean        =   0.0000000000000E+00
(PID.TID 0000.0001) %MON extforcing_empmr_sd          =   0.0000000000000E+00
(PID.TID 0000.0001) %MON extforcing_empmr_del2        =   0.0000000000000E+00
(PID.TID 0000.0001) %MON advcfl_uvel_max              =   7.5429588606742E-06
(PID.TID 0000.0001) %MON advcfl_vvel_max              =   8.2089558827103E-06
(PID.TID 0000.0001) %MON advcfl_wvel_max              =   9.6536390230198E-06
(PID.TID 0000.0001) %MON advcfl_W_hf_max              =   1.3071097954136E-05
(PID.TID 0000.0001) %MON pe_b_mean                    =  -4.3120547253361E-09
(PID.TID 0000.0001) %MON ke_max                       =   1.0026558134106E-09
(PID.TID 0000.0001) %MON ke_mean                      =   6.3922470709860E-12
(PID.TID 0000.0001) %MON ke_vol                       =   2.9241705273104E+14
(PID.TID 0000.0001) %MON vort_r_min                   =  -8.5844619108352E-09
(PID.TID 0000.0001) %MON vort_r_max                   =   8.4320388769032E-09
(PID.TID 0000.0001) %MON vort_a_mean                  =  -1.4007437276596E-04
(PID.TID 0000.0001) %MON vort_a_sd                    =   1.7682770388496E-06
(PID.TID 0000.0001) %MON vort_p_mean                  =  -1.5039772193538E-04
(PID.TID 0000.0001) %MON vort_p_sd                    =   8.7080959226976E-05
(PID.TID 0000.0001) %MON surfExpan_theta_mean         =  -5.1642519538705E-13
(PID.TID 0000.0001) %MON surfExpan_salt_mean          =  -2.1249538238930E-13
(PID.TID 0000.0001) // =======================================================
(PID.TID 0000.0001) // End MONITOR dynamic field statistics
(PID.TID 0000.0001) // =======================================================
 cg2d: Sum(rhs),rhsMax =   4.44089209850063E-15  6.66596154996020E-05
(PID.TID 0000.0001)                    cg2d_init_res =    5.27272706163482E+00
(PID.TID 0000.0001)                       cg2d_iters =   208
(PID.TID 0000.0001)                         cg2d_res =    9.50554306708313E-14
(PID.TID 0000.0001) // =======================================================
(PID.TID 0000.0001) // Begin MONITOR dynamic field statistics
(PID.TID 0000.0001) // =======================================================
(PID.TID 0000.0001) %MON time_tsnumber                =                     7
(PID.TID 0000.0001) %MON time_secondsf                =   1.2600000000000E+04
(PID.TID 0000.0001) %MON dynstat_eta_max              =   2.6003802706593E-05
(PID.TID 0000.0001) %MON dynstat_eta_min              =  -7.5471826168449E-06
(PID.TID 0000.0001) %MON dynstat_eta_mean             =   1.0115061620375E-20
(PID.TID 0000.0001) %MON dynstat_eta_sd               =   6.3348805244227E-06
(PID.TID 0000.0001) %MON dynstat_eta_del2             =   1.8557421036275E-06
(PID.TID 0000.0001) %MON dynstat_uvel_max             =   5.9203684462213E-06
(PID.TID 0000.0001) %MON dynstat_uvel_min             =  -3.9522396622547E-05
(PID.TID 0000.0001) %MON dynstat_uvel_mean            =   3.3971103103535E-09
(PID.TID 0000.0001) %MON dynstat_uvel_sd              =   2.7259803676601E-06
(PID.TID 0000.0001) %MON dynstat_uvel_del2            =   1.0415350507800E-07
(PID.TID 0000.0001) %MON dynstat_vvel_max             =   6.3664792170459E-05
(PID.TID 0000.0001) %MON dynstat_vvel_min             =  -9.1171212534197E-06
(PID.TID 0000.0001) %MON dynstat_vvel_mean            =  -2.9448161943977E-07
(PID.TID 0000.0001) %MON dynstat_vvel_sd              =   3.9351710865994E-06
(PID.TID 0000.0001) %MON dynstat_vvel_del2            =   1.9597945434467E-07
(PID.TID 0000.0001) %MON dynstat_wvel_max             =   2.3058306181114E-07
(PID.TID 0000.0001) %MON dynstat_wvel_min             =  -2.2962321813819E-07
(PID.TID 0000.0001) %MON dynstat_wvel_mean            =  -1.3063645961832E-10
(PID.TID 0000.0001) %MON dynstat_wvel_sd              =   1.1214797086605E-08
(PID.TID 0000.0001) %MON dynstat_wvel_del2            =   3.5263631233111E-09
(PID.TID 0000.0001) %MON dynstat_theta_max            =  -1.9000000000000E+00
(PID.TID 0000.0001) %MON dynstat_theta_min            =  -1.9047728940357E+00
(PID.TID 0000.0001) %MON dynstat_theta_mean           =  -1.9000799153199E+00
(PID.TID 0000.0001) %MON dynstat_theta_sd             =   3.7288861243656E-04
(PID.TID 0000.0001) %MON dynstat_theta_del2           =   5.0421785878896E-06
(PID.TID 0000.0001) %MON dynstat_salt_max             =   3.4400000000000E+01
(PID.TID 0000.0001) %MON dynstat_salt_min             =   3.4398052273089E+01
(PID.TID 0000.0001) %MON dynstat_salt_mean            =   3.4399967746969E+01
(PID.TID 0000.0001) %MON dynstat_salt_sd              =   1.5129090073123E-04
(PID.TID 0000.0001) %MON dynstat_salt_del2            =   2.0532674352338E-06
(PID.TID 0000.0001) %MON extforcing_qnet_max          =   0.0000000000000E+00
(PID.TID 0000.0001) %MON extforcing_qnet_min          =   0.0000000000000E+00
(PID.TID 0000.0001) %MON extforcing_qnet_mean         =   0.0000000000000E+00
(PID.TID 0000.0001) %MON extforcing_qnet_sd           =   0.0000000000000E+00
(PID.TID 0000.0001) %MON extforcing_qnet_del2         =   0.0000000000000E+00
(PID.TID 0000.0001) %MON extforcing_qsw_max           =   0.0000000000000E+00
(PID.TID 0000.0001) %MON extforcing_qsw_min           =   0.0000000000000E+00
(PID.TID 0000.0001) %MON extforcing_qsw_mean          =   0.0000000000000E+00
(PID.TID 0000.0001) %MON extforcing_qsw_sd            =   0.0000000000000E+00
(PID.TID 0000.0001) %MON extforcing_qsw_del2          =   0.0000000000000E+00
(PID.TID 0000.0001) %MON extforcing_empmr_max         =   0.0000000000000E+00
(PID.TID 0000.0001) %MON extforcing_empmr_min         =   0.0000000000000E+00
(PID.TID 0000.0001) %MON extforcing_empmr_mean        =   0.0000000000000E+00
(PID.TID 0000.0001) %MON extforcing_empmr_sd          =   0.0000000000000E+00
(PID.TID 0000.0001) %MON extforcing_empmr_del2        =   0.0000000000000E+00
(PID.TID 0000.0001) %MON advcfl_uvel_max              =   1.1759653893211E-05
(PID.TID 0000.0001) %MON advcfl_vvel_max              =   1.0307540048510E-05
(PID.TID 0000.0001) %MON advcfl_wvel_max              =   1.3834983708669E-05
(PID.TID 0000.0001) %MON advcfl_W_hf_max              =   1.8345051175773E-05
(PID.TID 0000.0001) %MON pe_b_mean                    =  -5.6402620544216E-09
(PID.TID 0000.0001) %MON ke_max                       =   1.8671691554439E-09
(PID.TID 0000.0001) %MON ke_mean                      =   1.1334264220614E-11
(PID.TID 0000.0001) %MON ke_vol                       =   2.9241705273104E+14
(PID.TID 0000.0001) %MON vort_r_min                   =  -1.0779042573150E-08
(PID.TID 0000.0001) %MON vort_r_max                   =   1.0658816059118E-08
(PID.TID 0000.0001) %MON vort_a_mean                  =  -1.4007437275380E-04
(PID.TID 0000.0001) %MON vort_a_sd                    =   1.7682769865658E-06
(PID.TID 0000.0001) %MON vort_p_mean                  =  -1.5039772192232E-04
(PID.TID 0000.0001) %MON vort_p_sd                    =   8.7080817258012E-05
(PID.TID 0000.0001) %MON surfExpan_theta_mean         =  -6.0783947483417E-13
(PID.TID 0000.0001) %MON surfExpan_salt_mean          =  -2.5014197031459E-13
(PID.TID 0000.0001) // =======================================================
(PID.TID 0000.0001) // End MONITOR dynamic field statistics
(PID.TID 0000.0001) // =======================================================
 cg2d: Sum(rhs),rhsMax =  -1.02140518265514E-14  7.66555800500566E-05
(PID.TID 0000.0001)                    cg2d_init_res =    4.57808589634455E+00
(PID.TID 0000.0001)                       cg2d_iters =   207
(PID.TID 0000.0001)                         cg2d_res =    9.47280293284907E-14
(PID.TID 0000.0001) // =======================================================
(PID.TID 0000.0001) // Begin MONITOR dynamic field statistics
(PID.TID 0000.0001) // =======================================================
(PID.TID 0000.0001) %MON time_tsnumber                =                     8
(PID.TID 0000.0001) %MON time_secondsf                =   1.4400000000000E+04
(PID.TID 0000.0001) %MON dynstat_eta_max              =   3.0997448375808E-05
(PID.TID 0000.0001) %MON dynstat_eta_min              =  -7.8879456389968E-06
(PID.TID 0000.0001) %MON dynstat_eta_mean             =  -4.5251591459573E-21
(PID.TID 0000.0001) %MON dynstat_eta_sd               =   7.5540236790828E-06
(PID.TID 0000.0001) %MON dynstat_eta_del2             =   2.1349673250403E-06
(PID.TID 0000.0001) %MON dynstat_uvel_max             =   8.6355120793090E-06
(PID.TID 0000.0001) %MON dynstat_uvel_min             =  -5.6794881752698E-05
(PID.TID 0000.0001) %MON dynstat_uvel_mean            =  -1.3644265385432E-09
(PID.TID 0000.0001) %MON dynstat_uvel_sd              =   3.8821809698043E-06
(PID.TID 0000.0001) %MON dynstat_uvel_del2            =   1.6534988253990E-07
(PID.TID 0000.0001) %MON dynstat_vvel_max             =   7.5694894793570E-05
(PID.TID 0000.0001) %MON dynstat_vvel_min             =  -1.1114111811548E-05
(PID.TID 0000.0001) %MON dynstat_vvel_mean            =  -2.9553914299828E-07
(PID.TID 0000.0001) %MON dynstat_vvel_sd              =   4.6993649758232E-06
(PID.TID 0000.0001) %MON dynstat_vvel_del2            =   2.3284383350210E-07
(PID.TID 0000.0001) %MON dynstat_wvel_max             =   3.1410151467487E-07
(PID.TID 0000.0001) %MON dynstat_wvel_min             =  -3.0928959456028E-07
(PID.TID 0000.0001) %MON dynstat_wvel_mean            =  -1.2419338757715E-10
(PID.TID 0000.0001) %MON dynstat_wvel_sd              =   1.4016875317665E-08
(PID.TID 0000.0001) %MON dynstat_wvel_del2            =   4.2156077797960E-09
(PID.TID 0000.0001) %MON dynstat_theta_max            =  -1.9000000000000E+00
(PID.TID 0000.0001) %MON dynstat_theta_min            =  -1.9054508843429E+00
(PID.TID 0000.0001) %MON dynstat_theta_mean           =  -1.9000912824759E+00
(PID.TID 0000.0001) %MON dynstat_theta_sd             =   4.2584427922927E-04
(PID.TID 0000.0001) %MON dynstat_theta_del2           =   5.7546228980817E-06
(PID.TID 0000.0001) %MON dynstat_salt_max             =   3.4400000000000E+01
(PID.TID 0000.0001) %MON dynstat_salt_min             =   3.4397775605823E+01
(PID.TID 0000.0001) %MON dynstat_salt_mean            =   3.4399963159607E+01
(PID.TID 0000.0001) %MON dynstat_salt_sd              =   1.7277510259385E-04
(PID.TID 0000.0001) %MON dynstat_salt_del2            =   2.3433767530832E-06
(PID.TID 0000.0001) %MON extforcing_qnet_max          =   0.0000000000000E+00
(PID.TID 0000.0001) %MON extforcing_qnet_min          =   0.0000000000000E+00
(PID.TID 0000.0001) %MON extforcing_qnet_mean         =   0.0000000000000E+00
(PID.TID 0000.0001) %MON extforcing_qnet_sd           =   0.0000000000000E+00
(PID.TID 0000.0001) %MON extforcing_qnet_del2         =   0.0000000000000E+00
(PID.TID 0000.0001) %MON extforcing_qsw_max           =   0.0000000000000E+00
(PID.TID 0000.0001) %MON extforcing_qsw_min           =   0.0000000000000E+00
(PID.TID 0000.0001) %MON extforcing_qsw_mean          =   0.0000000000000E+00
(PID.TID 0000.0001) %MON extforcing_qsw_sd            =   0.0000000000000E+00
(PID.TID 0000.0001) %MON extforcing_qsw_del2          =   0.0000000000000E+00
(PID.TID 0000.0001) %MON extforcing_empmr_max         =   0.0000000000000E+00
(PID.TID 0000.0001) %MON extforcing_empmr_min         =   0.0000000000000E+00
(PID.TID 0000.0001) %MON extforcing_empmr_mean        =   0.0000000000000E+00
(PID.TID 0000.0001) %MON extforcing_empmr_sd          =   0.0000000000000E+00
(PID.TID 0000.0001) %MON extforcing_empmr_del2        =   0.0000000000000E+00
(PID.TID 0000.0001) %MON advcfl_uvel_max              =   1.6898979044620E-05
(PID.TID 0000.0001) %MON advcfl_vvel_max              =   1.2255253381860E-05
(PID.TID 0000.0001) %MON advcfl_wvel_max              =   1.8846090880492E-05
(PID.TID 0000.0001) %MON advcfl_W_hf_max              =   2.4315243339950E-05
(PID.TID 0000.0001) %MON pe_b_mean                    =  -6.9335056849449E-09
(PID.TID 0000.0001) %MON ke_max                       =   3.1594098416577E-09
(PID.TID 0000.0001) %MON ke_mean                      =   1.8337224616287E-11
(PID.TID 0000.0001) %MON ke_vol                       =   2.9241705273104E+14
(PID.TID 0000.0001) %MON vort_r_min                   =  -1.2815851049437E-08
(PID.TID 0000.0001) %MON vort_r_max                   =   1.2732517933287E-08
(PID.TID 0000.0001) %MON vort_a_mean                  =  -1.4007437273851E-04
(PID.TID 0000.0001) %MON vort_a_sd                    =   1.7682769256362E-06
(PID.TID 0000.0001) %MON vort_p_mean                  =  -1.5039772190591E-04
(PID.TID 0000.0001) %MON vort_p_sd                    =   8.7080643833572E-05
(PID.TID 0000.0001) %MON surfExpan_theta_mean         =  -6.5889657296916E-13
(PID.TID 0000.0001) %MON surfExpan_salt_mean          =  -2.7118415267750E-13
(PID.TID 0000.0001) // =======================================================
(PID.TID 0000.0001) // End MONITOR dynamic field statistics
(PID.TID 0000.0001) // =======================================================
 cg2d: Sum(rhs),rhsMax =  -1.33226762955019E-14  8.66218762025299E-05
(PID.TID 0000.0001)                    cg2d_init_res =    4.04496629335622E+00
(PID.TID 0000.0001)                       cg2d_iters =   206
(PID.TID 0000.0001)                         cg2d_res =    9.46975103589405E-14
(PID.TID 0000.0001) // =======================================================
(PID.TID 0000.0001) // Begin MONITOR dynamic field statistics
(PID.TID 0000.0001) // =======================================================
(PID.TID 0000.0001) %MON time_tsnumber                =                     9
(PID.TID 0000.0001) %MON time_secondsf                =   1.6200000000000E+04
(PID.TID 0000.0001) %MON dynstat_eta_max              =   3.5752652542812E-05
(PID.TID 0000.0001) %MON dynstat_eta_min              =  -8.1180853218284E-06
(PID.TID 0000.0001) %MON dynstat_eta_mean             =  -1.5971149926908E-21
(PID.TID 0000.0001) %MON dynstat_eta_sd               =   8.7012944359083E-06
(PID.TID 0000.0001) %MON dynstat_eta_del2             =   2.4136427641828E-06
(PID.TID 0000.0001) %MON dynstat_uvel_max             =   1.1791257892400E-05
(PID.TID 0000.0001) %MON dynstat_uvel_min             =  -7.6790729449455E-05
(PID.TID 0000.0001) %MON dynstat_uvel_mean            =  -6.1716789122703E-09
(PID.TID 0000.0001) %MON dynstat_uvel_sd              =   5.2297102259373E-06
(PID.TID 0000.0001) %MON dynstat_uvel_del2            =   2.3660962815759E-07
(PID.TID 0000.0001) %MON dynstat_vvel_max             =   8.6173093875704E-05
(PID.TID 0000.0001) %MON dynstat_vvel_min             =  -1.3226363743022E-05
(PID.TID 0000.0001) %MON dynstat_vvel_mean            =  -2.7395177461776E-07
(PID.TID 0000.0001) %MON dynstat_vvel_sd              =   5.3592307099365E-06
(PID.TID 0000.0001) %MON dynstat_vvel_del2            =   2.6459022401767E-07
(PID.TID 0000.0001) %MON dynstat_wvel_max             =   4.0769746386071E-07
(PID.TID 0000.0001) %MON dynstat_wvel_min             =  -3.9783283249631E-07
(PID.TID 0000.0001) %MON dynstat_wvel_mean            =  -1.1161824571284E-10
(PID.TID 0000.0001) %MON dynstat_wvel_sd              =   1.6911558119363E-08
(PID.TID 0000.0001) %MON dynstat_wvel_del2            =   4.8328249641175E-09
(PID.TID 0000.0001) %MON dynstat_theta_max            =  -1.9000000000000E+00
(PID.TID 0000.0001) %MON dynstat_theta_min            =  -1.9061279383859E+00
(PID.TID 0000.0001) %MON dynstat_theta_mean           =  -1.9001026376180E+00
(PID.TID 0000.0001) %MON dynstat_theta_sd             =   4.7872354545653E-04
(PID.TID 0000.0001) %MON dynstat_theta_del2           =   6.4651600988435E-06
(PID.TID 0000.0001) %MON dynstat_salt_max             =   3.4400000000000E+01
(PID.TID 0000.0001) %MON dynstat_salt_min             =   3.4397499322474E+01
(PID.TID 0000.0001) %MON dynstat_salt_mean            =   3.4399958577170E+01
(PID.TID 0000.0001) %MON dynstat_salt_sd              =   1.9422798360059E-04
(PID.TID 0000.0001) %MON dynstat_salt_del2            =   2.6327067977953E-06
(PID.TID 0000.0001) %MON extforcing_qnet_max          =   0.0000000000000E+00
(PID.TID 0000.0001) %MON extforcing_qnet_min          =   0.0000000000000E+00
(PID.TID 0000.0001) %MON extforcing_qnet_mean         =   0.0000000000000E+00
(PID.TID 0000.0001) %MON extforcing_qnet_sd           =   0.0000000000000E+00
(PID.TID 0000.0001) %MON extforcing_qnet_del2         =   0.0000000000000E+00
(PID.TID 0000.0001) %MON extforcing_qsw_max           =   0.0000000000000E+00
(PID.TID 0000.0001) %MON extforcing_qsw_min           =   0.0000000000000E+00
(PID.TID 0000.0001) %MON extforcing_qsw_mean          =   0.0000000000000E+00
(PID.TID 0000.0001) %MON extforcing_qsw_sd            =   0.0000000000000E+00
(PID.TID 0000.0001) %MON extforcing_qsw_del2          =   0.0000000000000E+00
(PID.TID 0000.0001) %MON extforcing_empmr_max         =   0.0000000000000E+00
(PID.TID 0000.0001) %MON extforcing_empmr_min         =   0.0000000000000E+00
(PID.TID 0000.0001) %MON extforcing_empmr_mean        =   0.0000000000000E+00
(PID.TID 0000.0001) %MON extforcing_empmr_sd          =   0.0000000000000E+00
(PID.TID 0000.0001) %MON extforcing_empmr_del2        =   0.0000000000000E+00
(PID.TID 0000.0001) %MON advcfl_uvel_max              =   2.2848624519335E-05
(PID.TID 0000.0001) %MON advcfl_vvel_max              =   1.3951708408151E-05
(PID.TID 0000.0001) %MON advcfl_wvel_max              =   2.4461847831643E-05
(PID.TID 0000.0001) %MON advcfl_W_hf_max              =   3.0801925525626E-05
(PID.TID 0000.0001) %MON pe_b_mean                    =  -8.1194629744034E-09
(PID.TID 0000.0001) %MON ke_max                       =   4.9553367514620E-09
(PID.TID 0000.0001) %MON ke_mean                      =   2.7624789398073E-11
(PID.TID 0000.0001) %MON ke_vol                       =   2.9241705273104E+14
(PID.TID 0000.0001) %MON vort_r_min                   =  -1.4571503088922E-08
(PID.TID 0000.0001) %MON vort_r_max                   =   1.4524961707176E-08
(PID.TID 0000.0001) %MON vort_a_mean                  =  -1.4007437272282E-04
(PID.TID 0000.0001) %MON vort_a_sd                    =   1.7682768484305E-06
(PID.TID 0000.0001) %MON vort_p_mean                  =  -1.5039772188906E-04
(PID.TID 0000.0001) %MON vort_p_sd                    =   8.7080442465871E-05
(PID.TID 0000.0001) %MON surfExpan_theta_mean         =  -6.6575253038636E-13
(PID.TID 0000.0001) %MON surfExpan_salt_mean          =  -2.7403018076150E-13
(PID.TID 0000.0001) // =======================================================
(PID.TID 0000.0001) // End MONITOR dynamic field statistics
(PID.TID 0000.0001) // =======================================================
 cg2d: Sum(rhs),rhsMax =  -1.59872115546023E-14  9.65656696394883E-05
(PID.TID 0000.0001)                    cg2d_init_res =    3.62264314334667E+00
(PID.TID 0000.0001)                       cg2d_iters =   206
(PID.TID 0000.0001)                         cg2d_res =    7.74678634939901E-14
(PID.TID 0000.0001) // =======================================================
(PID.TID 0000.0001) // Begin MONITOR dynamic field statistics
(PID.TID 0000.0001) // =======================================================
(PID.TID 0000.0001) %MON time_tsnumber                =                    10
(PID.TID 0000.0001) %MON time_secondsf                =   1.8000000000000E+04
(PID.TID 0000.0001) %MON dynstat_eta_max              =   4.0148464583656E-05
(PID.TID 0000.0001) %MON dynstat_eta_min              =  -8.4699653774606E-06
(PID.TID 0000.0001) %MON dynstat_eta_mean             =   4.2589733138421E-21
(PID.TID 0000.0001) %MON dynstat_eta_sd               =   9.7375488884043E-06
(PID.TID 0000.0001) %MON dynstat_eta_del2             =   2.6917768216920E-06
(PID.TID 0000.0001) %MON dynstat_uvel_max             =   1.5298266836601E-05
(PID.TID 0000.0001) %MON dynstat_uvel_min             =  -9.8962432550177E-05
(PID.TID 0000.0001) %MON dynstat_uvel_mean            =  -9.8998088431130E-09
(PID.TID 0000.0001) %MON dynstat_uvel_sd              =   6.7338032440263E-06
(PID.TID 0000.0001) %MON dynstat_uvel_del2            =   3.1407907441061E-07
(PID.TID 0000.0001) %MON dynstat_vvel_max             =   9.4409278996811E-05
(PID.TID 0000.0001) %MON dynstat_vvel_min             =  -1.5096784938346E-05
(PID.TID 0000.0001) %MON dynstat_vvel_mean            =  -2.3422269363506E-07
(PID.TID 0000.0001) %MON dynstat_vvel_sd              =   5.8727487506557E-06
(PID.TID 0000.0001) %MON dynstat_vvel_del2            =   2.8942778969971E-07
(PID.TID 0000.0001) %MON dynstat_wvel_max             =   5.0867979487352E-07
(PID.TID 0000.0001) %MON dynstat_wvel_min             =  -4.9267636174182E-07
(PID.TID 0000.0001) %MON dynstat_wvel_mean            =  -9.4973016620137E-11
(PID.TID 0000.0001) %MON dynstat_wvel_sd              =   1.9840227827526E-08
(PID.TID 0000.0001) %MON dynstat_wvel_del2            =   5.3479172079337E-09
(PID.TID 0000.0001) %MON dynstat_theta_max            =  -1.9000000000000E+00
(PID.TID 0000.0001) %MON dynstat_theta_min            =  -1.9068040587783E+00
(PID.TID 0000.0001) %MON dynstat_theta_mean           =  -1.9001139807647E+00
(PID.TID 0000.0001) %MON dynstat_theta_sd             =   5.3152656570422E-04
(PID.TID 0000.0001) %MON dynstat_theta_del2           =   7.1737959853823E-06
(PID.TID 0000.0001) %MON dynstat_salt_max             =   3.4400000000000E+01
(PID.TID 0000.0001) %MON dynstat_salt_min             =   3.4397223421968E+01
(PID.TID 0000.0001) %MON dynstat_salt_mean            =   3.4399953999649E+01
(PID.TID 0000.0001) %MON dynstat_salt_sd              =   2.1564960731817E-04
(PID.TID 0000.0001) %MON dynstat_salt_del2            =   2.9212599423190E-06
(PID.TID 0000.0001) %MON extforcing_qnet_max          =   0.0000000000000E+00
(PID.TID 0000.0001) %MON extforcing_qnet_min          =   0.0000000000000E+00
(PID.TID 0000.0001) %MON extforcing_qnet_mean         =   0.0000000000000E+00
(PID.TID 0000.0001) %MON extforcing_qnet_sd           =   0.0000000000000E+00
(PID.TID 0000.0001) %MON extforcing_qnet_del2         =   0.0000000000000E+00
(PID.TID 0000.0001) %MON extforcing_qsw_max           =   0.0000000000000E+00
(PID.TID 0000.0001) %MON extforcing_qsw_min           =   0.0000000000000E+00
(PID.TID 0000.0001) %MON extforcing_qsw_mean          =   0.0000000000000E+00
(PID.TID 0000.0001) %MON extforcing_qsw_sd            =   0.0000000000000E+00
(PID.TID 0000.0001) %MON extforcing_qsw_del2          =   0.0000000000000E+00
(PID.TID 0000.0001) %MON extforcing_empmr_max         =   0.0000000000000E+00
(PID.TID 0000.0001) %MON extforcing_empmr_min         =   0.0000000000000E+00
(PID.TID 0000.0001) %MON extforcing_empmr_mean        =   0.0000000000000E+00
(PID.TID 0000.0001) %MON extforcing_empmr_sd          =   0.0000000000000E+00
(PID.TID 0000.0001) %MON extforcing_empmr_del2        =   0.0000000000000E+00
(PID.TID 0000.0001) %MON advcfl_uvel_max              =   2.9445682819661E-05
(PID.TID 0000.0001) %MON advcfl_vvel_max              =   1.5285173971904E-05
(PID.TID 0000.0001) %MON advcfl_wvel_max              =   3.0520787692411E-05
(PID.TID 0000.0001) %MON advcfl_W_hf_max              =   3.7594935114342E-05
(PID.TID 0000.0001) %MON pe_b_mean                    =  -9.1453256080096E-09
(PID.TID 0000.0001) %MON ke_max                       =   7.3003958024092E-09
(PID.TID 0000.0001) %MON ke_mean                      =   3.9278352219697E-11
(PID.TID 0000.0001) %MON ke_vol                       =   2.9241705273104E+14
(PID.TID 0000.0001) %MON vort_r_min                   =  -1.5944625267187E-08
(PID.TID 0000.0001) %MON vort_r_max                   =   1.5930711075132E-08
(PID.TID 0000.0001) %MON vort_a_mean                  =  -1.4007437271000E-04
(PID.TID 0000.0001) %MON vort_a_sd                    =   1.7682767456432E-06
(PID.TID 0000.0001) %MON vort_p_mean                  =  -1.5039772187529E-04
(PID.TID 0000.0001) %MON vort_p_sd                    =   8.7080218399435E-05
(PID.TID 0000.0001) %MON surfExpan_theta_mean         =  -6.3026326245897E-13
(PID.TID 0000.0001) %MON surfExpan_salt_mean          =  -2.5943785236551E-13
(PID.TID 0000.0001) // =======================================================
(PID.TID 0000.0001) // End MONITOR dynamic field statistics
(PID.TID 0000.0001) // =======================================================
 cg2d: Sum(rhs),rhsMax =   2.66453525910038E-15  1.06492144301409E-04
(PID.TID 0000.0001)                    cg2d_init_res =    3.27969847990397E+00
(PID.TID 0000.0001)                       cg2d_iters =   205
(PID.TID 0000.0001)                         cg2d_res =    8.19655407507180E-14
(PID.TID 0000.0001) // =======================================================
(PID.TID 0000.0001) // Begin MONITOR dynamic field statistics
(PID.TID 0000.0001) // =======================================================
(PID.TID 0000.0001) %MON time_tsnumber                =                    11
(PID.TID 0000.0001) %MON time_secondsf                =   1.9800000000000E+04
(PID.TID 0000.0001) %MON dynstat_eta_max              =   4.4120577751115E-05
(PID.TID 0000.0001) %MON dynstat_eta_min              =  -9.1527346556912E-06
(PID.TID 0000.0001) %MON dynstat_eta_mean             =   8.5179466276843E-21
(PID.TID 0000.0001) %MON dynstat_eta_sd               =   1.0640227045054E-05
(PID.TID 0000.0001) %MON dynstat_eta_del2             =   2.9693883288085E-06
(PID.TID 0000.0001) %MON dynstat_uvel_max             =   1.9044865683122E-05
(PID.TID 0000.0001) %MON dynstat_uvel_min             =  -1.2262946767439E-04
(PID.TID 0000.0001) %MON dynstat_uvel_mean            =  -1.1637568490912E-08
(PID.TID 0000.0001) %MON dynstat_uvel_sd              =   8.3499861905144E-06
(PID.TID 0000.0001) %MON dynstat_uvel_del2            =   3.9448045480843E-07
(PID.TID 0000.0001) %MON dynstat_vvel_max             =   1.0003925606765E-04
(PID.TID 0000.0001) %MON dynstat_vvel_min             =  -1.6620436084195E-05
(PID.TID 0000.0001) %MON dynstat_vvel_mean            =  -1.8329594881667E-07
(PID.TID 0000.0001) %MON dynstat_vvel_sd              =   6.2079267799338E-06
(PID.TID 0000.0001) %MON dynstat_vvel_del2            =   3.0620329888900E-07
(PID.TID 0000.0001) %MON dynstat_wvel_max             =   6.1395816113655E-07
(PID.TID 0000.0001) %MON dynstat_wvel_min             =  -5.9091038647771E-07
(PID.TID 0000.0001) %MON dynstat_wvel_mean            =  -7.6367851819562E-11
(PID.TID 0000.0001) %MON dynstat_wvel_sd              =   2.2749451611080E-08
(PID.TID 0000.0001) %MON dynstat_wvel_del2            =   5.7453163018241E-09
(PID.TID 0000.0001) %MON dynstat_theta_max            =  -1.9000000000000E+00
(PID.TID 0000.0001) %MON dynstat_theta_min            =  -1.9074792483151E+00
(PID.TID 0000.0001) %MON dynstat_theta_mean           =  -1.9001253119339E+00
(PID.TID 0000.0001) %MON dynstat_theta_sd             =   5.8425349400041E-04
(PID.TID 0000.0001) %MON dynstat_theta_del2           =   7.8805363030162E-06
(PID.TID 0000.0001) %MON dynstat_salt_max             =   3.4400000000000E+01
(PID.TID 0000.0001) %MON dynstat_salt_min             =   3.4396947903159E+01
(PID.TID 0000.0001) %MON dynstat_salt_mean            =   3.4399949427037E+01
(PID.TID 0000.0001) %MON dynstat_salt_sd              =   2.3704003708353E-04
(PID.TID 0000.0001) %MON dynstat_salt_del2            =   3.2090385393001E-06
(PID.TID 0000.0001) %MON extforcing_qnet_max          =   0.0000000000000E+00
(PID.TID 0000.0001) %MON extforcing_qnet_min          =   0.0000000000000E+00
(PID.TID 0000.0001) %MON extforcing_qnet_mean         =   0.0000000000000E+00
(PID.TID 0000.0001) %MON extforcing_qnet_sd           =   0.0000000000000E+00
(PID.TID 0000.0001) %MON extforcing_qnet_del2         =   0.0000000000000E+00
(PID.TID 0000.0001) %MON extforcing_qsw_max           =   0.0000000000000E+00
(PID.TID 0000.0001) %MON extforcing_qsw_min           =   0.0000000000000E+00
(PID.TID 0000.0001) %MON extforcing_qsw_mean          =   0.0000000000000E+00
(PID.TID 0000.0001) %MON extforcing_qsw_sd            =   0.0000000000000E+00
(PID.TID 0000.0001) %MON extforcing_qsw_del2          =   0.0000000000000E+00
(PID.TID 0000.0001) %MON extforcing_empmr_max         =   0.0000000000000E+00
(PID.TID 0000.0001) %MON extforcing_empmr_min         =   0.0000000000000E+00
(PID.TID 0000.0001) %MON extforcing_empmr_mean        =   0.0000000000000E+00
(PID.TID 0000.0001) %MON extforcing_empmr_sd          =   0.0000000000000E+00
(PID.TID 0000.0001) %MON extforcing_empmr_del2        =   0.0000000000000E+00
(PID.TID 0000.0001) %MON advcfl_uvel_max              =   3.6487668263945E-05
(PID.TID 0000.0001) %MON advcfl_vvel_max              =   1.6196685847643E-05
(PID.TID 0000.0001) %MON advcfl_wvel_max              =   3.6837489668193E-05
(PID.TID 0000.0001) %MON advcfl_W_hf_max              =   4.4470917247991E-05
(PID.TID 0000.0001) %MON pe_b_mean                    =  -9.9818426120242E-09
(PID.TID 0000.0001) %MON ke_max                       =   1.0197242395409E-08
(PID.TID 0000.0001) %MON ke_mean                      =   5.3208974897939E-11
(PID.TID 0000.0001) %MON ke_vol                       =   2.9241705273104E+14
(PID.TID 0000.0001) %MON vort_r_min                   =  -1.6861934428119E-08
(PID.TID 0000.0001) %MON vort_r_max                   =   1.6873286199498E-08
(PID.TID 0000.0001) %MON vort_a_mean                  =  -1.4007437270280E-04
(PID.TID 0000.0001) %MON vort_a_sd                    =   1.7682766110032E-06
(PID.TID 0000.0001) %MON vort_p_mean                  =  -1.5039772186757E-04
(PID.TID 0000.0001) %MON vort_p_sd                    =   8.7079978276367E-05
(PID.TID 0000.0001) %MON surfExpan_theta_mean         =  -5.5976162569268E-13
(PID.TID 0000.0001) %MON surfExpan_salt_mean          =  -2.3042360237892E-13
(PID.TID 0000.0001) // =======================================================
(PID.TID 0000.0001) // End MONITOR dynamic field statistics
(PID.TID 0000.0001) // =======================================================
 cg2d: Sum(rhs),rhsMax =   1.68753899743024E-14  1.16406333381029E-04
(PID.TID 0000.0001)                    cg2d_init_res =    2.99558391488181E+00
(PID.TID 0000.0001)                       cg2d_iters =   198
(PID.TID 0000.0001)                         cg2d_res =    9.53923864503157E-14
(PID.TID 0000.0001) // =======================================================
(PID.TID 0000.0001) // Begin MONITOR dynamic field statistics
(PID.TID 0000.0001) // =======================================================
(PID.TID 0000.0001) %MON time_tsnumber                =                    12
(PID.TID 0000.0001) %MON time_secondsf                =   2.1600000000000E+04
(PID.TID 0000.0001) %MON dynstat_eta_max              =   4.7655980495198E-05
(PID.TID 0000.0001) %MON dynstat_eta_min              =  -1.0065759098138E-05
(PID.TID 0000.0001) %MON dynstat_eta_mean             =   4.7913449780724E-21
(PID.TID 0000.0001) %MON dynstat_eta_sd               =   1.1407204744124E-05
(PID.TID 0000.0001) %MON dynstat_eta_del2             =   3.2464975139220E-06
(PID.TID 0000.0001) %MON dynstat_uvel_max             =   2.2904929410651E-05
(PID.TID 0000.0001) %MON dynstat_uvel_min             =  -1.4702373218980E-04
(PID.TID 0000.0001) %MON dynstat_uvel_mean            =  -1.0888644399529E-08
(PID.TID 0000.0001) %MON dynstat_uvel_sd              =   1.0026992472652E-05
(PID.TID 0000.0001) %MON dynstat_uvel_del2            =   4.7441995542651E-07
(PID.TID 0000.0001) %MON dynstat_vvel_max             =   1.0273573611282E-04
(PID.TID 0000.0001) %MON dynstat_vvel_min             =  -1.7715605204827E-05
(PID.TID 0000.0001) %MON dynstat_vvel_mean            =  -1.2924243812751E-07
(PID.TID 0000.0001) %MON dynstat_vvel_sd              =   6.3448348018952E-06
(PID.TID 0000.0001) %MON dynstat_vvel_del2            =   3.1406253828716E-07
(PID.TID 0000.0001) %MON dynstat_wvel_max             =   7.2026849641276E-07
(PID.TID 0000.0001) %MON dynstat_wvel_min             =  -6.8948971353270E-07
(PID.TID 0000.0001) %MON dynstat_wvel_mean            =  -5.7930150539465E-11
(PID.TID 0000.0001) %MON dynstat_wvel_sd              =   2.5591029964909E-08
(PID.TID 0000.0001) %MON dynstat_wvel_del2            =   6.0095843572469E-09
(PID.TID 0000.0001) %MON dynstat_theta_max            =  -1.9000000000000E+00
(PID.TID 0000.0001) %MON dynstat_theta_min            =  -1.9081535099179E+00
(PID.TID 0000.0001) %MON dynstat_theta_mean           =  -1.9001366311440E+00
(PID.TID 0000.0001) %MON dynstat_theta_sd             =   6.3690448373649E-04
(PID.TID 0000.0001) %MON dynstat_theta_del2           =   8.5853867424617E-06
(PID.TID 0000.0001) %MON dynstat_salt_max             =   3.4400000000000E+01
(PID.TID 0000.0001) %MON dynstat_salt_min             =   3.4396672764847E+01
(PID.TID 0000.0001) %MON dynstat_salt_mean            =   3.4399944859327E+01
(PID.TID 0000.0001) %MON dynstat_salt_sd              =   2.5839933597133E-04
(PID.TID 0000.0001) %MON dynstat_salt_del2            =   3.4960449191409E-06
(PID.TID 0000.0001) %MON extforcing_qnet_max          =   0.0000000000000E+00
(PID.TID 0000.0001) %MON extforcing_qnet_min          =   0.0000000000000E+00
(PID.TID 0000.0001) %MON extforcing_qnet_mean         =   0.0000000000000E+00
(PID.TID 0000.0001) %MON extforcing_qnet_sd           =   0.0000000000000E+00
(PID.TID 0000.0001) %MON extforcing_qnet_del2         =   0.0000000000000E+00
(PID.TID 0000.0001) %MON extforcing_qsw_max           =   0.0000000000000E+00
(PID.TID 0000.0001) %MON extforcing_qsw_min           =   0.0000000000000E+00
(PID.TID 0000.0001) %MON extforcing_qsw_mean          =   0.0000000000000E+00
(PID.TID 0000.0001) %MON extforcing_qsw_sd            =   0.0000000000000E+00
(PID.TID 0000.0001) %MON extforcing_qsw_del2          =   0.0000000000000E+00
(PID.TID 0000.0001) %MON extforcing_empmr_max         =   0.0000000000000E+00
(PID.TID 0000.0001) %MON extforcing_empmr_min         =   0.0000000000000E+00
(PID.TID 0000.0001) %MON extforcing_empmr_mean        =   0.0000000000000E+00
(PID.TID 0000.0001) %MON extforcing_empmr_sd          =   0.0000000000000E+00
(PID.TID 0000.0001) %MON extforcing_empmr_del2        =   0.0000000000000E+00
(PID.TID 0000.0001) %MON advcfl_uvel_max              =   4.3746036485396E-05
(PID.TID 0000.0001) %MON advcfl_vvel_max              =   1.6633254869674E-05
(PID.TID 0000.0001) %MON advcfl_wvel_max              =   4.3216109784766E-05
(PID.TID 0000.0001) %MON advcfl_W_hf_max              =   5.1210176068597E-05
(PID.TID 0000.0001) %MON pe_b_mean                    =  -1.0624906348880E-08
(PID.TID 0000.0001) %MON ke_max                       =   1.3597732788865E-08
(PID.TID 0000.0001) %MON ke_mean                      =   6.9144486574292E-11
(PID.TID 0000.0001) %MON ke_vol                       =   2.9241705273104E+14
(PID.TID 0000.0001) %MON vort_r_min                   =  -1.7282235284369E-08
(PID.TID 0000.0001) %MON vort_r_max                   =   1.7309275841420E-08
(PID.TID 0000.0001) %MON vort_a_mean                  =  -1.4007437270270E-04
(PID.TID 0000.0001) %MON vort_a_sd                    =   1.7682764449951E-06
(PID.TID 0000.0001) %MON vort_p_mean                  =  -1.5039772186746E-04
(PID.TID 0000.0001) %MON vort_p_sd                    =   8.7079729711671E-05
(PID.TID 0000.0001) %MON surfExpan_theta_mean         =  -4.6699996704910E-13
(PID.TID 0000.0001) %MON surfExpan_salt_mean          =  -1.9223790555792E-13
(PID.TID 0000.0001) // =======================================================
(PID.TID 0000.0001) // End MONITOR dynamic field statistics
(PID.TID 0000.0001) // =======================================================
 cg2d: Sum(rhs),rhsMax =   6.83897383169096E-14  1.26424432284157E-04
(PID.TID 0000.0001)                    cg2d_init_res =    2.75386522671953E+00
(PID.TID 0000.0001)                       cg2d_iters =   203
(PID.TID 0000.0001)                         cg2d_res =    7.91358293076530E-14
(PID.TID 0000.0001) // =======================================================
(PID.TID 0000.0001) // Begin MONITOR dynamic field statistics
(PID.TID 0000.0001) // =======================================================
(PID.TID 0000.0001) %MON time_tsnumber                =                    13
(PID.TID 0000.0001) %MON time_secondsf                =   2.3400000000000E+04
(PID.TID 0000.0001) %MON dynstat_eta_max              =   5.0784854998373E-05
(PID.TID 0000.0001) %MON dynstat_eta_min              =  -1.1118241278901E-05
(PID.TID 0000.0001) %MON dynstat_eta_mean             =   7.4532032992238E-21
(PID.TID 0000.0001) %MON dynstat_eta_sd               =   1.2056503384036E-05
(PID.TID 0000.0001) %MON dynstat_eta_del2             =   3.5231229447026E-06
(PID.TID 0000.0001) %MON dynstat_uvel_max             =   2.6754532444908E-05
(PID.TID 0000.0001) %MON dynstat_uvel_min             =  -1.7134036697959E-04
(PID.TID 0000.0001) %MON dynstat_uvel_mean            =  -7.6592080462330E-09
(PID.TID 0000.0001) %MON dynstat_uvel_sd              =   1.1710135863962E-05
(PID.TID 0000.0001) %MON dynstat_uvel_del2            =   5.5071700217847E-07
(PID.TID 0000.0001) %MON dynstat_vvel_max             =   1.0241170181293E-04
(PID.TID 0000.0001) %MON dynstat_vvel_min             =  -1.8328072899593E-05
(PID.TID 0000.0001) %MON dynstat_vvel_mean            =  -7.9958965027164E-08
(PID.TID 0000.0001) %MON dynstat_vvel_sd              =   6.2768339151875E-06
(PID.TID 0000.0001) %MON dynstat_vvel_del2            =   3.1278132874515E-07
(PID.TID 0000.0001) %MON dynstat_wvel_max             =   8.2439453454372E-07
(PID.TID 0000.0001) %MON dynstat_wvel_min             =  -7.8543253594780E-07
(PID.TID 0000.0001) %MON dynstat_wvel_mean            =  -4.1729359391295E-11
(PID.TID 0000.0001) %MON dynstat_wvel_sd              =   2.8321644783276E-08
(PID.TID 0000.0001) %MON dynstat_wvel_del2            =   6.1275825933628E-09
(PID.TID 0000.0001) %MON dynstat_theta_max            =  -1.9000000000000E+00
(PID.TID 0000.0001) %MON dynstat_theta_min            =  -1.9088268465649E+00
(PID.TID 0000.0001) %MON dynstat_theta_mean           =  -1.9001479384128E+00
(PID.TID 0000.0001) %MON dynstat_theta_sd             =   6.8947968758174E-04
(PID.TID 0000.0001) %MON dynstat_theta_del2           =   9.2883529386688E-06
(PID.TID 0000.0001) %MON dynstat_salt_max             =   3.4400000000000E+01
(PID.TID 0000.0001) %MON dynstat_salt_min             =   3.4396398005809E+01
(PID.TID 0000.0001) %MON dynstat_salt_mean            =   3.4399940296511E+01
(PID.TID 0000.0001) %MON dynstat_salt_sd              =   2.7972756675883E-04
(PID.TID 0000.0001) %MON dynstat_salt_del2            =   3.7822813895153E-06
(PID.TID 0000.0001) %MON extforcing_qnet_max          =   0.0000000000000E+00
(PID.TID 0000.0001) %MON extforcing_qnet_min          =   0.0000000000000E+00
(PID.TID 0000.0001) %MON extforcing_qnet_mean         =   0.0000000000000E+00
(PID.TID 0000.0001) %MON extforcing_qnet_sd           =   0.0000000000000E+00
(PID.TID 0000.0001) %MON extforcing_qnet_del2         =   0.0000000000000E+00
(PID.TID 0000.0001) %MON extforcing_qsw_max           =   0.0000000000000E+00
(PID.TID 0000.0001) %MON extforcing_qsw_min           =   0.0000000000000E+00
(PID.TID 0000.0001) %MON extforcing_qsw_mean          =   0.0000000000000E+00
(PID.TID 0000.0001) %MON extforcing_qsw_sd            =   0.0000000000000E+00
(PID.TID 0000.0001) %MON extforcing_qsw_del2          =   0.0000000000000E+00
(PID.TID 0000.0001) %MON extforcing_empmr_max         =   0.0000000000000E+00
(PID.TID 0000.0001) %MON extforcing_empmr_min         =   0.0000000000000E+00
(PID.TID 0000.0001) %MON extforcing_empmr_mean        =   0.0000000000000E+00
(PID.TID 0000.0001) %MON extforcing_empmr_sd          =   0.0000000000000E+00
(PID.TID 0000.0001) %MON extforcing_empmr_del2        =   0.0000000000000E+00
(PID.TID 0000.0001) %MON advcfl_uvel_max              =   5.0981306444011E-05
(PID.TID 0000.0001) %MON advcfl_vvel_max              =   1.6580792646687E-05
(PID.TID 0000.0001) %MON advcfl_wvel_max              =   4.9463672072623E-05
(PID.TID 0000.0001) %MON advcfl_W_hf_max              =   5.7611689069682E-05
(PID.TID 0000.0001) %MON pe_b_mean                    =  -1.1094819653208E-08
(PID.TID 0000.0001) %MON ke_max                       =   1.7401605140190E-08
(PID.TID 0000.0001) %MON ke_mean                      =   8.6635286584339E-11
(PID.TID 0000.0001) %MON ke_vol                       =   2.9241705273104E+14
(PID.TID 0000.0001) %MON vort_r_min                   =  -1.7198208728218E-08
(PID.TID 0000.0001) %MON vort_r_max                   =   1.7230154284128E-08
(PID.TID 0000.0001) %MON vort_a_mean                  =  -1.4007437270961E-04
(PID.TID 0000.0001) %MON vort_a_sd                    =   1.7682762526140E-06
(PID.TID 0000.0001) %MON vort_p_mean                  =  -1.5039772187487E-04
(PID.TID 0000.0001) %MON vort_p_sd                    =   8.7079480801929E-05
(PID.TID 0000.0001) %MON surfExpan_theta_mean         =  -3.6963631775754E-13
(PID.TID 0000.0001) %MON surfExpan_salt_mean          =  -1.5215207574326E-13
(PID.TID 0000.0001) // =======================================================
(PID.TID 0000.0001) // End MONITOR dynamic field statistics
(PID.TID 0000.0001) // =======================================================
 cg2d: Sum(rhs),rhsMax =   1.33226762955019E-14  1.36460835349198E-04
(PID.TID 0000.0001)                    cg2d_init_res =    2.54738826883899E+00
(PID.TID 0000.0001)                       cg2d_iters =   202
(PID.TID 0000.0001)                         cg2d_res =    9.19028831016443E-14
(PID.TID 0000.0001) // =======================================================
(PID.TID 0000.0001) // Begin MONITOR dynamic field statistics
(PID.TID 0000.0001) // =======================================================
(PID.TID 0000.0001) %MON time_tsnumber                =                    14
(PID.TID 0000.0001) %MON time_secondsf                =   2.5200000000000E+04
(PID.TID 0000.0001) %MON dynstat_eta_max              =   5.3573149920176E-05
(PID.TID 0000.0001) %MON dynstat_eta_min              =  -1.2570575296119E-05
(PID.TID 0000.0001) %MON dynstat_eta_mean             =  -3.7266016496119E-21
(PID.TID 0000.0001) %MON dynstat_eta_sd               =   1.2622146763674E-05
(PID.TID 0000.0001) %MON dynstat_eta_del2             =   3.7992772937087E-06
(PID.TID 0000.0001) %MON dynstat_uvel_max             =   3.0477301262459E-05
(PID.TID 0000.0001) %MON dynstat_uvel_min             =  -1.9479232511025E-04
(PID.TID 0000.0001) %MON dynstat_uvel_mean            =  -2.4135081795115E-09
(PID.TID 0000.0001) %MON dynstat_uvel_sd              =   1.3344896232298E-05
(PID.TID 0000.0001) %MON dynstat_uvel_del2            =   6.2064864686527E-07
(PID.TID 0000.0001) %MON dynstat_vvel_max             =   9.9218122547973E-05
(PID.TID 0000.0001) %MON dynstat_vvel_min             =  -1.8435959101225E-05
(PID.TID 0000.0001) %MON dynstat_vvel_mean            =  -4.2077244005850E-08
(PID.TID 0000.0001) %MON dynstat_vvel_sd              =   6.0109391904948E-06
(PID.TID 0000.0001) %MON dynstat_vvel_del2            =   3.0276673663618E-07
(PID.TID 0000.0001) %MON dynstat_wvel_max             =   9.2337365987816E-07
(PID.TID 0000.0001) %MON dynstat_wvel_min             =  -8.7600814906199E-07
(PID.TID 0000.0001) %MON dynstat_wvel_mean            =  -2.9624776356480E-11
(PID.TID 0000.0001) %MON dynstat_wvel_sd              =   3.0902362495416E-08
(PID.TID 0000.0001) %MON dynstat_wvel_del2            =   6.1040503483674E-09
(PID.TID 0000.0001) %MON dynstat_theta_max            =  -1.9000000000000E+00
(PID.TID 0000.0001) %MON dynstat_theta_min            =  -1.9094992612129E+00
(PID.TID 0000.0001) %MON dynstat_theta_mean           =  -1.9001592337583E+00
(PID.TID 0000.0001) %MON dynstat_theta_sd             =   7.4197925740379E-04
(PID.TID 0000.0001) %MON dynstat_theta_del2           =   9.9894404720306E-06
(PID.TID 0000.0001) %MON dynstat_salt_max             =   3.4400000000000E+01
(PID.TID 0000.0001) %MON dynstat_salt_min             =   3.4396123624833E+01
(PID.TID 0000.0001) %MON dynstat_salt_mean            =   3.4399935738582E+01
(PID.TID 0000.0001) %MON dynstat_salt_sd              =   3.0102479189304E-04
(PID.TID 0000.0001) %MON dynstat_salt_del2            =   4.0677502358286E-06
(PID.TID 0000.0001) %MON extforcing_qnet_max          =   0.0000000000000E+00
(PID.TID 0000.0001) %MON extforcing_qnet_min          =   0.0000000000000E+00
(PID.TID 0000.0001) %MON extforcing_qnet_mean         =   0.0000000000000E+00
(PID.TID 0000.0001) %MON extforcing_qnet_sd           =   0.0000000000000E+00
(PID.TID 0000.0001) %MON extforcing_qnet_del2         =   0.0000000000000E+00
(PID.TID 0000.0001) %MON extforcing_qsw_max           =   0.0000000000000E+00
(PID.TID 0000.0001) %MON extforcing_qsw_min           =   0.0000000000000E+00
(PID.TID 0000.0001) %MON extforcing_qsw_mean          =   0.0000000000000E+00
(PID.TID 0000.0001) %MON extforcing_qsw_sd            =   0.0000000000000E+00
(PID.TID 0000.0001) %MON extforcing_qsw_del2          =   0.0000000000000E+00
(PID.TID 0000.0001) %MON extforcing_empmr_max         =   0.0000000000000E+00
(PID.TID 0000.0001) %MON extforcing_empmr_min         =   0.0000000000000E+00
(PID.TID 0000.0001) %MON extforcing_empmr_mean        =   0.0000000000000E+00
(PID.TID 0000.0001) %MON extforcing_empmr_sd          =   0.0000000000000E+00
(PID.TID 0000.0001) %MON extforcing_empmr_del2        =   0.0000000000000E+00
(PID.TID 0000.0001) %MON advcfl_uvel_max              =   5.7959297008918E-05
(PID.TID 0000.0001) %MON advcfl_vvel_max              =   1.6063741619748E-05
(PID.TID 0000.0001) %MON advcfl_wvel_max              =   5.5402419592690E-05
(PID.TID 0000.0001) %MON advcfl_W_hf_max              =   6.3505661190909E-05
(PID.TID 0000.0001) %MON pe_b_mean                    =  -1.1433146479578E-08
(PID.TID 0000.0001) %MON ke_max                       =   2.1463089246023E-08
(PID.TID 0000.0001) %MON ke_mean                      =   1.0508009734512E-10
(PID.TID 0000.0001) %MON ke_vol                       =   2.9241705273104E+14
(PID.TID 0000.0001) %MON vort_r_min                   =  -1.6635968515717E-08
(PID.TID 0000.0001) %MON vort_r_max                   =   1.6661768202430E-08
(PID.TID 0000.0001) %MON vort_a_mean                  =  -1.4007437272206E-04
(PID.TID 0000.0001) %MON vort_a_sd                    =   1.7682760462291E-06
(PID.TID 0000.0001) %MON vort_p_mean                  =  -1.5039772188824E-04
(PID.TID 0000.0001) %MON vort_p_sd                    =   8.7079239602363E-05
(PID.TID 0000.0001) %MON surfExpan_theta_mean         =  -2.8873133900615E-13
(PID.TID 0000.0001) %MON surfExpan_salt_mean          =  -1.1883791098114E-13
(PID.TID 0000.0001) // =======================================================
(PID.TID 0000.0001) // End MONITOR dynamic field statistics
(PID.TID 0000.0001) // =======================================================
 cg2d: Sum(rhs),rhsMax =  -1.42108547152020E-14  1.46500428891959E-04
(PID.TID 0000.0001)                    cg2d_init_res =    2.36925434631235E+00
(PID.TID 0000.0001)                       cg2d_iters =   202
(PID.TID 0000.0001)                         cg2d_res =    9.82748235698267E-14
(PID.TID 0000.0001) // =======================================================
(PID.TID 0000.0001) // Begin MONITOR dynamic field statistics
(PID.TID 0000.0001) // =======================================================
(PID.TID 0000.0001) %MON time_tsnumber                =                    15
(PID.TID 0000.0001) %MON time_secondsf                =   2.7000000000000E+04
(PID.TID 0000.0001) %MON dynstat_eta_max              =   5.6115928997604E-05
(PID.TID 0000.0001) %MON dynstat_eta_min              =  -1.4333261332940E-05
(PID.TID 0000.0001) %MON dynstat_eta_mean             =   0.0000000000000E+00
(PID.TID 0000.0001) %MON dynstat_eta_sd               =   1.3147557061526E-05
(PID.TID 0000.0001) %MON dynstat_eta_del2             =   4.0749720176619E-06
(PID.TID 0000.0001) %MON dynstat_uvel_max             =   3.3931438734109E-05
(PID.TID 0000.0001) %MON dynstat_uvel_min             =  -2.1666274020360E-04
(PID.TID 0000.0001) %MON dynstat_uvel_mean            =   4.0697452738419E-09
(PID.TID 0000.0001) %MON dynstat_uvel_sd              =   1.4880471676614E-05
(PID.TID 0000.0001) %MON dynstat_uvel_del2            =   6.8209926437074E-07
(PID.TID 0000.0001) %MON dynstat_vvel_max             =   9.3490950348971E-05
(PID.TID 0000.0001) %MON dynstat_vvel_min             =  -1.8171059399481E-05
(PID.TID 0000.0001) %MON dynstat_vvel_mean            =  -2.0196547033539E-08
(PID.TID 0000.0001) %MON dynstat_vvel_sd              =   5.5673122480841E-06
(PID.TID 0000.0001) %MON dynstat_vvel_del2            =   2.8515363369891E-07
(PID.TID 0000.0001) %MON dynstat_wvel_max             =   1.0146775237656E-06
(PID.TID 0000.0001) %MON dynstat_wvel_min             =  -9.5890339413913E-07
(PID.TID 0000.0001) %MON dynstat_wvel_mean            =  -2.3058504907589E-11
(PID.TID 0000.0001) %MON dynstat_wvel_sd              =   3.3298340301973E-08
(PID.TID 0000.0001) %MON dynstat_wvel_del2            =   5.9524982597049E-09
(PID.TID 0000.0001) %MON dynstat_theta_max            =  -1.9000000000000E+00
(PID.TID 0000.0001) %MON dynstat_theta_min            =  -1.9101707567159E+00
(PID.TID 0000.0001) %MON dynstat_theta_mean           =  -1.9001705171984E+00
(PID.TID 0000.0001) %MON dynstat_theta_sd             =   7.9440334422341E-04
(PID.TID 0000.0001) %MON dynstat_theta_del2           =   1.0688654874444E-05
(PID.TID 0000.0001) %MON dynstat_salt_max             =   3.4400000000000E+01
(PID.TID 0000.0001) %MON dynstat_salt_min             =   3.4395849620747E+01
(PID.TID 0000.0001) %MON dynstat_salt_mean            =   3.4399931185533E+01
(PID.TID 0000.0001) %MON dynstat_salt_sd              =   3.2229107347213E-04
(PID.TID 0000.0001) %MON dynstat_salt_del2            =   4.3524537236585E-06
(PID.TID 0000.0001) %MON extforcing_qnet_max          =   0.0000000000000E+00
(PID.TID 0000.0001) %MON extforcing_qnet_min          =   0.0000000000000E+00
(PID.TID 0000.0001) %MON extforcing_qnet_mean         =   0.0000000000000E+00
(PID.TID 0000.0001) %MON extforcing_qnet_sd           =   0.0000000000000E+00
(PID.TID 0000.0001) %MON extforcing_qnet_del2         =   0.0000000000000E+00
(PID.TID 0000.0001) %MON extforcing_qsw_max           =   0.0000000000000E+00
(PID.TID 0000.0001) %MON extforcing_qsw_min           =   0.0000000000000E+00
(PID.TID 0000.0001) %MON extforcing_qsw_mean          =   0.0000000000000E+00
(PID.TID 0000.0001) %MON extforcing_qsw_sd            =   0.0000000000000E+00
(PID.TID 0000.0001) %MON extforcing_qsw_del2          =   0.0000000000000E+00
(PID.TID 0000.0001) %MON extforcing_empmr_max         =   0.0000000000000E+00
(PID.TID 0000.0001) %MON extforcing_empmr_min         =   0.0000000000000E+00
(PID.TID 0000.0001) %MON extforcing_empmr_mean        =   0.0000000000000E+00
(PID.TID 0000.0001) %MON extforcing_empmr_sd          =   0.0000000000000E+00
(PID.TID 0000.0001) %MON extforcing_empmr_del2        =   0.0000000000000E+00
(PID.TID 0000.0001) %MON advcfl_uvel_max              =   6.4466708855799E-05
(PID.TID 0000.0001) %MON advcfl_vvel_max              =   1.5136493531858E-05
(PID.TID 0000.0001) %MON advcfl_wvel_max              =   6.0880651425938E-05
(PID.TID 0000.0001) %MON advcfl_W_hf_max              =   6.8763273316648E-05
(PID.TID 0000.0001) %MON pe_b_mean                    =  -1.1697211268306E-08
(PID.TID 0000.0001) %MON ke_max                       =   2.5604248585319E-08
(PID.TID 0000.0001) %MON ke_mean                      =   1.2377023939957E-10
(PID.TID 0000.0001) %MON ke_vol                       =   2.9241705273104E+14
(PID.TID 0000.0001) %MON vort_r_min                   =  -1.5652479684173E-08
(PID.TID 0000.0001) %MON vort_r_max                   =   1.5661605525760E-08
(PID.TID 0000.0001) %MON vort_a_mean                  =  -1.4007437273772E-04
(PID.TID 0000.0001) %MON vort_a_sd                    =   1.7682758393474E-06
(PID.TID 0000.0001) %MON vort_p_mean                  =  -1.5039772190506E-04
(PID.TID 0000.0001) %MON vort_p_sd                    =   8.7079013610175E-05
(PID.TID 0000.0001) %MON surfExpan_theta_mean         =  -2.4610118440064E-13
(PID.TID 0000.0001) %MON surfExpan_salt_mean          =  -1.0127699474767E-13
(PID.TID 0000.0001) // =======================================================
(PID.TID 0000.0001) // End MONITOR dynamic field statistics
(PID.TID 0000.0001) // =======================================================
 cg2d: Sum(rhs),rhsMax =   3.64153152077051E-14  1.56540495691785E-04
(PID.TID 0000.0001)                    cg2d_init_res =    2.21407430599392E+00
(PID.TID 0000.0001)                       cg2d_iters =   202
(PID.TID 0000.0001)                         cg2d_res =    9.77670099591352E-14
(PID.TID 0000.0001) // =======================================================
(PID.TID 0000.0001) // Begin MONITOR dynamic field statistics
(PID.TID 0000.0001) // =======================================================
(PID.TID 0000.0001) %MON time_tsnumber                =                    16
(PID.TID 0000.0001) %MON time_secondsf                =   2.8800000000000E+04
(PID.TID 0000.0001) %MON dynstat_eta_max              =   5.8529739947017E-05
(PID.TID 0000.0001) %MON dynstat_eta_min              =  -1.5996961498497E-05
(PID.TID 0000.0001) %MON dynstat_eta_mean             =  -2.0230123240750E-20
(PID.TID 0000.0001) %MON dynstat_eta_sd               =   1.3678306194062E-05
(PID.TID 0000.0001) %MON dynstat_eta_del2             =   4.3502210816532E-06
(PID.TID 0000.0001) %MON dynstat_uvel_max             =   3.7014699906962E-05
(PID.TID 0000.0001) %MON dynstat_uvel_min             =  -2.3635118020834E-04
(PID.TID 0000.0001) %MON dynstat_uvel_mean            =   1.0880256784945E-08
(PID.TID 0000.0001) %MON dynstat_uvel_sd              =   1.6273059552153E-05
(PID.TID 0000.0001) %MON dynstat_uvel_del2            =   7.3343225650740E-07
(PID.TID 0000.0001) %MON dynstat_vvel_max             =   8.6458011883755E-05
(PID.TID 0000.0001) %MON dynstat_vvel_min             =  -1.7508284191059E-05
(PID.TID 0000.0001) %MON dynstat_vvel_mean            =  -1.6483524468101E-08
(PID.TID 0000.0001) %MON dynstat_vvel_sd              =   4.9779452241559E-06
(PID.TID 0000.0001) %MON dynstat_vvel_del2            =   2.6148959034935E-07
(PID.TID 0000.0001) %MON dynstat_wvel_max             =   1.0963587113595E-06
(PID.TID 0000.0001) %MON dynstat_wvel_min             =  -1.0323589052563E-06
(PID.TID 0000.0001) %MON dynstat_wvel_mean            =  -2.2848687432207E-11
(PID.TID 0000.0001) %MON dynstat_wvel_sd              =   3.5479062698759E-08
(PID.TID 0000.0001) %MON dynstat_wvel_del2            =   5.6944134877715E-09
(PID.TID 0000.0001) %MON dynstat_theta_max            =  -1.9000000000000E+00
(PID.TID 0000.0001) %MON dynstat_theta_min            =  -1.9108413357489E+00
(PID.TID 0000.0001) %MON dynstat_theta_mean           =  -1.9001817887508E+00
(PID.TID 0000.0001) %MON dynstat_theta_sd             =   8.4675209822471E-04
(PID.TID 0000.0001) %MON dynstat_theta_del2           =   1.1386001638154E-05
(PID.TID 0000.0001) %MON dynstat_salt_max             =   3.4400000000000E+01
(PID.TID 0000.0001) %MON dynstat_salt_min             =   3.4395575992453E+01
(PID.TID 0000.0001) %MON dynstat_salt_mean            =   3.4399926637356E+01
(PID.TID 0000.0001) %MON dynstat_salt_sd              =   3.4352647324992E-04
(PID.TID 0000.0001) %MON dynstat_salt_del2            =   4.6363941024474E-06
(PID.TID 0000.0001) %MON extforcing_qnet_max          =   0.0000000000000E+00
(PID.TID 0000.0001) %MON extforcing_qnet_min          =   0.0000000000000E+00
(PID.TID 0000.0001) %MON extforcing_qnet_mean         =   0.0000000000000E+00
(PID.TID 0000.0001) %MON extforcing_qnet_sd           =   0.0000000000000E+00
(PID.TID 0000.0001) %MON extforcing_qnet_del2         =   0.0000000000000E+00
(PID.TID 0000.0001) %MON extforcing_qsw_max           =   0.0000000000000E+00
(PID.TID 0000.0001) %MON extforcing_qsw_min           =   0.0000000000000E+00
(PID.TID 0000.0001) %MON extforcing_qsw_mean          =   0.0000000000000E+00
(PID.TID 0000.0001) %MON extforcing_qsw_sd            =   0.0000000000000E+00
(PID.TID 0000.0001) %MON extforcing_qsw_del2          =   0.0000000000000E+00
(PID.TID 0000.0001) %MON extforcing_empmr_max         =   0.0000000000000E+00
(PID.TID 0000.0001) %MON extforcing_empmr_min         =   0.0000000000000E+00
(PID.TID 0000.0001) %MON extforcing_empmr_mean        =   0.0000000000000E+00
(PID.TID 0000.0001) %MON extforcing_empmr_sd          =   0.0000000000000E+00
(PID.TID 0000.0001) %MON extforcing_empmr_del2        =   0.0000000000000E+00
(PID.TID 0000.0001) %MON advcfl_uvel_max              =   7.0324887001323E-05
(PID.TID 0000.0001) %MON advcfl_vvel_max              =   1.3997837574342E-05
(PID.TID 0000.0001) %MON advcfl_wvel_max              =   6.5781522681573E-05
(PID.TID 0000.0001) %MON advcfl_W_hf_max              =   7.3303342469543E-05
(PID.TID 0000.0001) %MON pe_b_mean                    =  -1.1952721751515E-08
(PID.TID 0000.0001) %MON ke_max                       =   2.9633946644160E-08
(PID.TID 0000.0001) %MON ke_mean                      =   1.4194856850972E-10
(PID.TID 0000.0001) %MON ke_vol                       =   2.9241705273104E+14
(PID.TID 0000.0001) %MON vort_r_min                   =  -1.4331052056073E-08
(PID.TID 0000.0001) %MON vort_r_max                   =   1.4314084164441E-08
(PID.TID 0000.0001) %MON vort_a_mean                  =  -1.4007437275391E-04
(PID.TID 0000.0001) %MON vort_a_sd                    =   1.7682756469783E-06
(PID.TID 0000.0001) %MON vort_p_mean                  =  -1.5039772192244E-04
(PID.TID 0000.0001) %MON vort_p_sd                    =   8.7078809290515E-05
(PID.TID 0000.0001) %MON surfExpan_theta_mean         =  -2.6084216130290E-13
(PID.TID 0000.0001) %MON surfExpan_salt_mean          =  -1.0732991858078E-13
(PID.TID 0000.0001) // =======================================================
(PID.TID 0000.0001) // End MONITOR dynamic field statistics
(PID.TID 0000.0001) // =======================================================
 cg2d: Sum(rhs),rhsMax =  -3.81916720471054E-14  1.66574894522232E-04
(PID.TID 0000.0001)                    cg2d_init_res =    2.07778313298846E+00
(PID.TID 0000.0001)                       cg2d_iters =   202
(PID.TID 0000.0001)                         cg2d_res =    8.60785196199415E-14
(PID.TID 0000.0001) // =======================================================
(PID.TID 0000.0001) // Begin MONITOR dynamic field statistics
(PID.TID 0000.0001) // =======================================================
(PID.TID 0000.0001) %MON time_tsnumber                =                    17
(PID.TID 0000.0001) %MON time_secondsf                =   3.0600000000000E+04
(PID.TID 0000.0001) %MON dynstat_eta_max              =   6.0942425456044E-05
(PID.TID 0000.0001) %MON dynstat_eta_min              =  -1.7460883346423E-05
(PID.TID 0000.0001) %MON dynstat_eta_mean             =   1.1712176613066E-20
(PID.TID 0000.0001) %MON dynstat_eta_sd               =   1.4255916190043E-05
(PID.TID 0000.0001) %MON dynstat_eta_del2             =   4.6250427322355E-06
(PID.TID 0000.0001) %MON dynstat_uvel_max             =   3.9649734348514E-05
(PID.TID 0000.0001) %MON dynstat_uvel_min             =  -2.5341113741676E-04
(PID.TID 0000.0001) %MON dynstat_uvel_mean            =   1.7142657167624E-08
(PID.TID 0000.0001) %MON dynstat_uvel_sd              =   1.7488650571985E-05
(PID.TID 0000.0001) %MON dynstat_uvel_del2            =   7.7387940929746E-07
(PID.TID 0000.0001) %MON dynstat_vvel_max             =   7.8069144650355E-05
(PID.TID 0000.0001) %MON dynstat_vvel_min             =  -1.6489504278417E-05
(PID.TID 0000.0001) %MON dynstat_vvel_mean            =  -3.0629400419357E-08
(PID.TID 0000.0001) %MON dynstat_vvel_sd              =   4.2846725006513E-06
(PID.TID 0000.0001) %MON dynstat_vvel_del2            =   2.3378014575520E-07
(PID.TID 0000.0001) %MON dynstat_wvel_max             =   1.1671560703340E-06
(PID.TID 0000.0001) %MON dynstat_wvel_min             =  -1.1057388644972E-06
(PID.TID 0000.0001) %MON dynstat_wvel_mean            =  -2.9045614159494E-11
(PID.TID 0000.0001) %MON dynstat_wvel_sd              =   3.7419307939403E-08
(PID.TID 0000.0001) %MON dynstat_wvel_del2            =   5.3575554732705E-09
(PID.TID 0000.0001) %MON dynstat_theta_max            =  -1.9000000000000E+00
(PID.TID 0000.0001) %MON dynstat_theta_min            =  -1.9115110007424E+00
(PID.TID 0000.0001) %MON dynstat_theta_mean           =  -1.9001930484332E+00
(PID.TID 0000.0001) %MON dynstat_theta_sd             =   8.9902566883948E-04
(PID.TID 0000.0001) %MON dynstat_theta_del2           =   1.2081486227575E-05
(PID.TID 0000.0001) %MON dynstat_salt_max             =   3.4400000000000E+01
(PID.TID 0000.0001) %MON dynstat_salt_min             =   3.4395302738952E+01
(PID.TID 0000.0001) %MON dynstat_salt_mean            =   3.4399922094044E+01
(PID.TID 0000.0001) %MON dynstat_salt_sd              =   3.6473105267002E-04
(PID.TID 0000.0001) %MON dynstat_salt_del2            =   4.9195736101940E-06
(PID.TID 0000.0001) %MON extforcing_qnet_max          =   0.0000000000000E+00
(PID.TID 0000.0001) %MON extforcing_qnet_min          =   0.0000000000000E+00
(PID.TID 0000.0001) %MON extforcing_qnet_mean         =   0.0000000000000E+00
(PID.TID 0000.0001) %MON extforcing_qnet_sd           =   0.0000000000000E+00
(PID.TID 0000.0001) %MON extforcing_qnet_del2         =   0.0000000000000E+00
(PID.TID 0000.0001) %MON extforcing_qsw_max           =   0.0000000000000E+00
(PID.TID 0000.0001) %MON extforcing_qsw_min           =   0.0000000000000E+00
(PID.TID 0000.0001) %MON extforcing_qsw_mean          =   0.0000000000000E+00
(PID.TID 0000.0001) %MON extforcing_qsw_sd            =   0.0000000000000E+00
(PID.TID 0000.0001) %MON extforcing_qsw_del2          =   0.0000000000000E+00
(PID.TID 0000.0001) %MON extforcing_empmr_max         =   0.0000000000000E+00
(PID.TID 0000.0001) %MON extforcing_empmr_min         =   0.0000000000000E+00
(PID.TID 0000.0001) %MON extforcing_empmr_mean        =   0.0000000000000E+00
(PID.TID 0000.0001) %MON extforcing_empmr_sd          =   0.0000000000000E+00
(PID.TID 0000.0001) %MON extforcing_empmr_del2        =   0.0000000000000E+00
(PID.TID 0000.0001) %MON advcfl_uvel_max              =   7.5400975734505E-05
(PID.TID 0000.0001) %MON advcfl_vvel_max              =   1.2639652272513E-05
(PID.TID 0000.0001) %MON advcfl_wvel_max              =   7.0029364220038E-05
(PID.TID 0000.0001) %MON advcfl_W_hf_max              =   7.7095683376883E-05
(PID.TID 0000.0001) %MON pe_b_mean                    =  -1.2265403930973E-08
(PID.TID 0000.0001) %MON ke_max                       =   3.3369479757017E-08
(PID.TID 0000.0001) %MON ke_mean                      =   1.5887741263792E-10
(PID.TID 0000.0001) %MON ke_vol                       =   2.9241705273104E+14
(PID.TID 0000.0001) %MON vort_r_min                   =  -1.2775235895521E-08
(PID.TID 0000.0001) %MON vort_r_max                   =   1.2724210787442E-08
(PID.TID 0000.0001) %MON vort_a_mean                  =  -1.4007437276804E-04
(PID.TID 0000.0001) %MON vort_a_sd                    =   1.7682754822631E-06
(PID.TID 0000.0001) %MON vort_p_mean                  =  -1.5039772193761E-04
(PID.TID 0000.0001) %MON vort_p_sd                    =   8.7078631674786E-05
(PID.TID 0000.0001) %MON surfExpan_theta_mean         =  -3.4572456237589E-13
(PID.TID 0000.0001) %MON surfExpan_salt_mean          =  -1.4225238026190E-13
(PID.TID 0000.0001) // =======================================================
(PID.TID 0000.0001) // End MONITOR dynamic field statistics
(PID.TID 0000.0001) // =======================================================
 cg2d: Sum(rhs),rhsMax =  -4.66293670342566E-14  1.76593705722100E-04
(PID.TID 0000.0001)                    cg2d_init_res =    1.95725828989194E+00
(PID.TID 0000.0001)                       cg2d_iters =   201
(PID.TID 0000.0001)                         cg2d_res =    9.97573090750222E-14
(PID.TID 0000.0001) // =======================================================
(PID.TID 0000.0001) // Begin MONITOR dynamic field statistics
(PID.TID 0000.0001) // =======================================================
(PID.TID 0000.0001) %MON time_tsnumber                =                    18
(PID.TID 0000.0001) %MON time_secondsf                =   3.2400000000000E+04
(PID.TID 0000.0001) %MON dynstat_eta_max              =   6.3480287211435E-05
(PID.TID 0000.0001) %MON dynstat_eta_min              =  -1.8655358740726E-05
(PID.TID 0000.0001) %MON dynstat_eta_mean             =  -7.4532032992238E-21
(PID.TID 0000.0001) %MON dynstat_eta_sd               =   1.4913725558232E-05
(PID.TID 0000.0001) %MON dynstat_eta_del2             =   4.8994583778321E-06
(PID.TID 0000.0001) %MON dynstat_uvel_max             =   4.1788892780093E-05
(PID.TID 0000.0001) %MON dynstat_uvel_min             =  -2.6757640618963E-04
(PID.TID 0000.0001) %MON dynstat_uvel_mean            =   2.2135105248654E-08
(PID.TID 0000.0001) %MON dynstat_uvel_sd              =   1.8505155037824E-05
(PID.TID 0000.0001) %MON dynstat_uvel_del2            =   8.0359781020567E-07
(PID.TID 0000.0001) %MON dynstat_vvel_max             =   6.8813547818909E-05
(PID.TID 0000.0001) %MON dynstat_vvel_min             =  -1.5196244018969E-05
(PID.TID 0000.0001) %MON dynstat_vvel_mean            =  -6.0116674240235E-08
(PID.TID 0000.0001) %MON dynstat_vvel_sd              =   3.5367352652006E-06
(PID.TID 0000.0001) %MON dynstat_vvel_del2            =   2.0418156343266E-07
(PID.TID 0000.0001) %MON dynstat_wvel_max             =   1.2271934861923E-06
(PID.TID 0000.0001) %MON dynstat_wvel_min             =  -1.1784748760409E-06
(PID.TID 0000.0001) %MON dynstat_wvel_mean            =  -4.0898277144140E-11
(PID.TID 0000.0001) %MON dynstat_wvel_sd              =   3.9100863363912E-08
(PID.TID 0000.0001) %MON dynstat_wvel_del2            =   4.9744054953678E-09
(PID.TID 0000.0001) %MON dynstat_theta_max            =  -1.9000000000000E+00
(PID.TID 0000.0001) %MON dynstat_theta_min            =  -1.9121797538365E+00
(PID.TID 0000.0001) %MON dynstat_theta_mean           =  -1.9002042962631E+00
(PID.TID 0000.0001) %MON dynstat_theta_sd             =   9.5122420489856E-04
(PID.TID 0000.0001) %MON dynstat_theta_del2           =   1.2775114431912E-05
(PID.TID 0000.0001) %MON dynstat_salt_max             =   3.4400000000000E+01
(PID.TID 0000.0001) %MON dynstat_salt_min             =   3.4395029859364E+01
(PID.TID 0000.0001) %MON dynstat_salt_mean            =   3.4399917555590E+01
(PID.TID 0000.0001) %MON dynstat_salt_sd              =   3.8590487292875E-04
(PID.TID 0000.0001) %MON dynstat_salt_del2            =   5.2019946167442E-06
(PID.TID 0000.0001) %MON extforcing_qnet_max          =   0.0000000000000E+00
(PID.TID 0000.0001) %MON extforcing_qnet_min          =   0.0000000000000E+00
(PID.TID 0000.0001) %MON extforcing_qnet_mean         =   0.0000000000000E+00
(PID.TID 0000.0001) %MON extforcing_qnet_sd           =   0.0000000000000E+00
(PID.TID 0000.0001) %MON extforcing_qnet_del2         =   0.0000000000000E+00
(PID.TID 0000.0001) %MON extforcing_qsw_max           =   0.0000000000000E+00
(PID.TID 0000.0001) %MON extforcing_qsw_min           =   0.0000000000000E+00
(PID.TID 0000.0001) %MON extforcing_qsw_mean          =   0.0000000000000E+00
(PID.TID 0000.0001) %MON extforcing_qsw_sd            =   0.0000000000000E+00
(PID.TID 0000.0001) %MON extforcing_qsw_del2          =   0.0000000000000E+00
(PID.TID 0000.0001) %MON extforcing_empmr_max         =   0.0000000000000E+00
(PID.TID 0000.0001) %MON extforcing_empmr_min         =   0.0000000000000E+00
(PID.TID 0000.0001) %MON extforcing_empmr_mean        =   0.0000000000000E+00
(PID.TID 0000.0001) %MON extforcing_empmr_sd          =   0.0000000000000E+00
(PID.TID 0000.0001) %MON extforcing_empmr_del2        =   0.0000000000000E+00
(PID.TID 0000.0001) %MON advcfl_uvel_max              =   7.9615767151739E-05
(PID.TID 0000.0001) %MON advcfl_vvel_max              =   1.1141140587161E-05
(PID.TID 0000.0001) %MON advcfl_wvel_max              =   7.3631609171535E-05
(PID.TID 0000.0001) %MON advcfl_W_hf_max              =   8.0161094911002E-05
(PID.TID 0000.0001) %MON pe_b_mean                    =  -1.2692788086839E-08
(PID.TID 0000.0001) %MON ke_max                       =   3.6657289259863E-08
(PID.TID 0000.0001) %MON ke_mean                      =   1.7390884885641E-10
(PID.TID 0000.0001) %MON ke_vol                       =   2.9241705273104E+14
(PID.TID 0000.0001) %MON vort_r_min                   =  -1.1101541975943E-08
(PID.TID 0000.0001) %MON vort_r_max                   =   1.2980472090931E-08
(PID.TID 0000.0001) %MON vort_a_mean                  =  -1.4007437277800E-04
(PID.TID 0000.0001) %MON vort_a_sd                    =   1.7682753552695E-06
(PID.TID 0000.0001) %MON vort_p_mean                  =  -1.5039772194831E-04
(PID.TID 0000.0001) %MON vort_p_sd                    =   8.7078484054857E-05
(PID.TID 0000.0001) %MON surfExpan_theta_mean         =  -5.0431021949500E-13
(PID.TID 0000.0001) %MON surfExpan_salt_mean          =  -2.0750955362406E-13
(PID.TID 0000.0001) // =======================================================
(PID.TID 0000.0001) // End MONITOR dynamic field statistics
(PID.TID 0000.0001) // =======================================================
 cg2d: Sum(rhs),rhsMax =   5.01820807130571E-14  1.86583756616042E-04
(PID.TID 0000.0001)                    cg2d_init_res =    1.85005469453331E+00
(PID.TID 0000.0001)                       cg2d_iters =   201
(PID.TID 0000.0001)                         cg2d_res =    9.05420491965355E-14
(PID.TID 0000.0001) // =======================================================
(PID.TID 0000.0001) // Begin MONITOR dynamic field statistics
(PID.TID 0000.0001) // =======================================================
(PID.TID 0000.0001) %MON time_tsnumber                =                    19
(PID.TID 0000.0001) %MON time_secondsf                =   3.4200000000000E+04
(PID.TID 0000.0001) %MON dynstat_eta_max              =   6.6254136157489E-05
(PID.TID 0000.0001) %MON dynstat_eta_min              =  -1.9569984704348E-05
(PID.TID 0000.0001) %MON dynstat_eta_mean             =  -7.9855749634540E-21
(PID.TID 0000.0001) %MON dynstat_eta_sd               =   1.5674821788283E-05
(PID.TID 0000.0001) %MON dynstat_eta_del2             =   5.1734889627196E-06
(PID.TID 0000.0001) %MON dynstat_uvel_max             =   4.3417100998415E-05
(PID.TID 0000.0001) %MON dynstat_uvel_min             =  -2.7877575169078E-04
(PID.TID 0000.0001) %MON dynstat_uvel_mean            =   2.5354550148084E-08
(PID.TID 0000.0001) %MON dynstat_uvel_sd              =   1.9313726250668E-05
(PID.TID 0000.0001) %MON dynstat_uvel_del2            =   8.2283583580416E-07
(PID.TID 0000.0001) %MON dynstat_vvel_max             =   5.9386169988668E-05
(PID.TID 0000.0001) %MON dynstat_vvel_min             =  -1.3723292100254E-05
(PID.TID 0000.0001) %MON dynstat_vvel_mean            =  -1.0072223872467E-07
(PID.TID 0000.0001) %MON dynstat_vvel_sd              =   2.7882413144835E-06
(PID.TID 0000.0001) %MON dynstat_vvel_del2            =   1.7469652889414E-07
(PID.TID 0000.0001) %MON dynstat_wvel_max             =   1.2834233841094E-06
(PID.TID 0000.0001) %MON dynstat_wvel_min             =  -1.2403444759887E-06
(PID.TID 0000.0001) %MON dynstat_wvel_mean            =  -5.6949372141412E-11
(PID.TID 0000.0001) %MON dynstat_wvel_sd              =   4.0514835092413E-08
(PID.TID 0000.0001) %MON dynstat_wvel_del2            =   4.5778654856594E-09
(PID.TID 0000.0001) %MON dynstat_theta_max            =  -1.9000000000000E+00
(PID.TID 0000.0001) %MON dynstat_theta_min            =  -1.9128475968566E+00
(PID.TID 0000.0001) %MON dynstat_theta_mean           =  -1.9002155322581E+00
(PID.TID 0000.0001) %MON dynstat_theta_sd             =   1.0033478548317E-03
(PID.TID 0000.0001) %MON dynstat_theta_del2           =   1.3466891589395E-05
(PID.TID 0000.0001) %MON dynstat_salt_max             =   3.4400000000000E+01
(PID.TID 0000.0001) %MON dynstat_salt_min             =   3.4394757352937E+01
(PID.TID 0000.0001) %MON dynstat_salt_mean            =   3.4399913021986E+01
(PID.TID 0000.0001) %MON dynstat_salt_sd              =   4.0704799505716E-04
(PID.TID 0000.0001) %MON dynstat_salt_del2            =   5.4836593095219E-06
(PID.TID 0000.0001) %MON extforcing_qnet_max          =   0.0000000000000E+00
(PID.TID 0000.0001) %MON extforcing_qnet_min          =   0.0000000000000E+00
(PID.TID 0000.0001) %MON extforcing_qnet_mean         =   0.0000000000000E+00
(PID.TID 0000.0001) %MON extforcing_qnet_sd           =   0.0000000000000E+00
(PID.TID 0000.0001) %MON extforcing_qnet_del2         =   0.0000000000000E+00
(PID.TID 0000.0001) %MON extforcing_qsw_max           =   0.0000000000000E+00
(PID.TID 0000.0001) %MON extforcing_qsw_min           =   0.0000000000000E+00
(PID.TID 0000.0001) %MON extforcing_qsw_mean          =   0.0000000000000E+00
(PID.TID 0000.0001) %MON extforcing_qsw_sd            =   0.0000000000000E+00
(PID.TID 0000.0001) %MON extforcing_qsw_del2          =   0.0000000000000E+00
(PID.TID 0000.0001) %MON extforcing_empmr_max         =   0.0000000000000E+00
(PID.TID 0000.0001) %MON extforcing_empmr_min         =   0.0000000000000E+00
(PID.TID 0000.0001) %MON extforcing_empmr_mean        =   0.0000000000000E+00
(PID.TID 0000.0001) %MON extforcing_empmr_sd          =   0.0000000000000E+00
(PID.TID 0000.0001) %MON extforcing_empmr_del2        =   0.0000000000000E+00
(PID.TID 0000.0001) %MON advcfl_uvel_max              =   8.2948065751487E-05
(PID.TID 0000.0001) %MON advcfl_vvel_max              =   9.6148169909496E-06
(PID.TID 0000.0001) %MON advcfl_wvel_max              =   7.7005403046564E-05
(PID.TID 0000.0001) %MON advcfl_W_hf_max              =   8.2568073450146E-05
(PID.TID 0000.0001) %MON pe_b_mean                    =  -1.3277298543337E-08
(PID.TID 0000.0001) %MON ke_max                       =   3.9390230110256E-08
(PID.TID 0000.0001) %MON ke_mean                      =   1.8655047669626E-10
(PID.TID 0000.0001) %MON ke_vol                       =   2.9241705273104E+14
(PID.TID 0000.0001) %MON vort_r_min                   =  -9.4314784372079E-09
(PID.TID 0000.0001) %MON vort_r_max                   =   1.3511897722423E-08
(PID.TID 0000.0001) %MON vort_a_mean                  =  -1.4007437278234E-04
(PID.TID 0000.0001) %MON vort_a_sd                    =   1.7682752721536E-06
(PID.TID 0000.0001) %MON vort_p_mean                  =  -1.5039772195296E-04
(PID.TID 0000.0001) %MON vort_p_sd                    =   8.7078367789579E-05
(PID.TID 0000.0001) %MON surfExpan_theta_mean         =  -7.2952986784895E-13
(PID.TID 0000.0001) %MON surfExpan_salt_mean          =  -3.0019129274807E-13
(PID.TID 0000.0001) // =======================================================
(PID.TID 0000.0001) // End MONITOR dynamic field statistics
(PID.TID 0000.0001) // =======================================================
 cg2d: Sum(rhs),rhsMax =   1.24344978758018E-14  1.96529912656285E-04
(PID.TID 0000.0001)                    cg2d_init_res =    1.75421808701901E+00
(PID.TID 0000.0001)                       cg2d_iters =   201
(PID.TID 0000.0001)                         cg2d_res =    7.49743194481735E-14
(PID.TID 0000.0001) // =======================================================
(PID.TID 0000.0001) // Begin MONITOR dynamic field statistics
(PID.TID 0000.0001) // =======================================================
(PID.TID 0000.0001) %MON time_tsnumber                =                    20
(PID.TID 0000.0001) %MON time_secondsf                =   3.6000000000000E+04
(PID.TID 0000.0001) %MON dynstat_eta_max              =   6.9346647967306E-05
(PID.TID 0000.0001) %MON dynstat_eta_min              =  -2.0280437444684E-05
(PID.TID 0000.0001) %MON dynstat_eta_mean             =   4.2589733138421E-21
(PID.TID 0000.0001) %MON dynstat_eta_sd               =   1.6551257650964E-05
(PID.TID 0000.0001) %MON dynstat_eta_del2             =   5.4471503834518E-06
(PID.TID 0000.0001) %MON dynstat_uvel_max             =   4.4552584092733E-05
(PID.TID 0000.0001) %MON dynstat_uvel_min             =  -2.8713235668832E-04
(PID.TID 0000.0001) %MON dynstat_uvel_mean            =   2.6539382989941E-08
(PID.TID 0000.0001) %MON dynstat_uvel_sd              =   1.9919200281844E-05
(PID.TID 0000.0001) %MON dynstat_uvel_del2            =   8.3281162737252E-07
(PID.TID 0000.0001) %MON dynstat_vvel_max             =   5.0479360245879E-05
(PID.TID 0000.0001) %MON dynstat_vvel_min             =  -1.2172638647119E-05
(PID.TID 0000.0001) %MON dynstat_vvel_mean            =  -1.4716968483574E-07
(PID.TID 0000.0001) %MON dynstat_vvel_sd              =   2.0959849095736E-06
(PID.TID 0000.0001) %MON dynstat_vvel_del2            =   1.4734657465636E-07
(PID.TID 0000.0001) %MON dynstat_wvel_max             =   1.3292263096805E-06
(PID.TID 0000.0001) %MON dynstat_wvel_min             =  -1.2915256129023E-06
(PID.TID 0000.0001) %MON dynstat_wvel_mean            =  -7.5243588503458E-11
(PID.TID 0000.0001) %MON dynstat_wvel_sd              =   4.1664264631006E-08
(PID.TID 0000.0001) %MON dynstat_wvel_del2            =   4.2006451509027E-09
(PID.TID 0000.0001) %MON dynstat_theta_max            =  -1.9000000000000E+00
(PID.TID 0000.0001) %MON dynstat_theta_min            =  -1.9135145313151E+00
(PID.TID 0000.0001) %MON dynstat_theta_mean           =  -1.9002267564358E+00
(PID.TID 0000.0001) %MON dynstat_theta_sd             =   1.0553967668793E-03
(PID.TID 0000.0001) %MON dynstat_theta_del2           =   1.4156822998207E-05
(PID.TID 0000.0001) %MON dynstat_salt_max             =   3.4400000000000E+01
(PID.TID 0000.0001) %MON dynstat_salt_min             =   3.4394485219049E+01
(PID.TID 0000.0001) %MON dynstat_salt_mean            =   3.4399908493226E+01
(PID.TID 0000.0001) %MON dynstat_salt_sd              =   4.2816048000783E-04
(PID.TID 0000.0001) %MON dynstat_salt_del2            =   5.7645698578371E-06
(PID.TID 0000.0001) %MON extforcing_qnet_max          =   0.0000000000000E+00
(PID.TID 0000.0001) %MON extforcing_qnet_min          =   0.0000000000000E+00
(PID.TID 0000.0001) %MON extforcing_qnet_mean         =   0.0000000000000E+00
(PID.TID 0000.0001) %MON extforcing_qnet_sd           =   0.0000000000000E+00
(PID.TID 0000.0001) %MON extforcing_qnet_del2         =   0.0000000000000E+00
(PID.TID 0000.0001) %MON extforcing_qsw_max           =   0.0000000000000E+00
(PID.TID 0000.0001) %MON extforcing_qsw_min           =   0.0000000000000E+00
(PID.TID 0000.0001) %MON extforcing_qsw_mean          =   0.0000000000000E+00
(PID.TID 0000.0001) %MON extforcing_qsw_sd            =   0.0000000000000E+00
(PID.TID 0000.0001) %MON extforcing_qsw_del2          =   0.0000000000000E+00
(PID.TID 0000.0001) %MON extforcing_empmr_max         =   0.0000000000000E+00
(PID.TID 0000.0001) %MON extforcing_empmr_min         =   0.0000000000000E+00
(PID.TID 0000.0001) %MON extforcing_empmr_mean        =   0.0000000000000E+00
(PID.TID 0000.0001) %MON extforcing_empmr_sd          =   0.0000000000000E+00
(PID.TID 0000.0001) %MON extforcing_empmr_del2        =   0.0000000000000E+00
(PID.TID 0000.0001) %MON advcfl_uvel_max              =   8.5434523833263E-05
(PID.TID 0000.0001) %MON advcfl_vvel_max              =   8.1727750868081E-06
(PID.TID 0000.0001) %MON advcfl_wvel_max              =   7.9753578580833E-05
(PID.TID 0000.0001) %MON advcfl_W_hf_max              =   8.4426547972602E-05
(PID.TID 0000.0001) %MON pe_b_mean                    =  -1.4041581291427E-08
(PID.TID 0000.0001) %MON ke_max                       =   4.1519253788389E-08
(PID.TID 0000.0001) %MON ke_mean                      =   1.9652037204000E-10
(PID.TID 0000.0001) %MON ke_vol                       =   2.9241705273104E+14
(PID.TID 0000.0001) %MON vort_r_min                   =  -8.7264359710688E-09
(PID.TID 0000.0001) %MON vort_r_max                   =   1.3934177892030E-08
(PID.TID 0000.0001) %MON vort_a_mean                  =  -1.4007437278032E-04
(PID.TID 0000.0001) %MON vort_a_sd                    =   1.7682752352207E-06
(PID.TID 0000.0001) %MON vort_p_mean                  =  -1.5039772195080E-04
(PID.TID 0000.0001) %MON vort_p_sd                    =   8.7078282233693E-05
(PID.TID 0000.0001) %MON surfExpan_theta_mean         =  -1.0041117550944E-12
(PID.TID 0000.0001) %MON surfExpan_salt_mean          =  -4.1318898166364E-13
(PID.TID 0000.0001) // =======================================================
(PID.TID 0000.0001) // End MONITOR dynamic field statistics
(PID.TID 0000.0001) // =======================================================
(PID.TID 0000.0001) %CHECKPOINT        20 ckptA
(PID.TID 0000.0001)   Seconds in section "ALL                    [THE_MODEL_MAIN]":
(PID.TID 0000.0001)           User time:  37.62128
(PID.TID 0000.0001)         System time:  1.17982099
(PID.TID 0000.0001)     Wall clock time:  52.5036988
(PID.TID 0000.0001)          No. starts: 1
(PID.TID 0000.0001)           No. stops: 1
(PID.TID 0000.0001)   Seconds in section "INITIALISE_FIXED       [THE_MODEL_MAIN]":
(PID.TID 0000.0001)           User time:  1.47177596
(PID.TID 0000.0001)         System time:  0.121981997
(PID.TID 0000.0001)     Wall clock time:  2.00759602
(PID.TID 0000.0001)          No. starts: 1
(PID.TID 0000.0001)           No. stops: 1
(PID.TID 0000.0001)   Seconds in section "THE_MAIN_LOOP          [THE_MODEL_MAIN]":
(PID.TID 0000.0001)           User time:  36.1445068
(PID.TID 0000.0001)         System time:  1.05283995
(PID.TID 0000.0001)     Wall clock time:  50.1561301
(PID.TID 0000.0001)          No. starts: 1
(PID.TID 0000.0001)           No. stops: 1
(PID.TID 0000.0001)   Seconds in section "INITIALISE_VARIA    [THE_MAIN_LOOP]":
(PID.TID 0000.0001)           User time:  0.765884042
(PID.TID 0000.0001)         System time:  0.0749880075
(PID.TID 0000.0001)     Wall clock time:  1.02088881
(PID.TID 0000.0001)          No. starts: 1
(PID.TID 0000.0001)           No. stops: 1
(PID.TID 0000.0001)   Seconds in section "MAIN LOOP           [THE_MAIN_LOOP]":
(PID.TID 0000.0001)           User time:  35.3786228
(PID.TID 0000.0001)         System time:  0.977851942
(PID.TID 0000.0001)     Wall clock time:  49.1351418
(PID.TID 0000.0001)          No. starts: 1
(PID.TID 0000.0001)           No. stops: 1
(PID.TID 0000.0001)   Seconds in section "FORWARD_STEP        [THE_MAIN_LOOP]":
(PID.TID 0000.0001)           User time:  35.3786228
(PID.TID 0000.0001)         System time:  0.977851942
(PID.TID 0000.0001)     Wall clock time:  49.1344812
(PID.TID 0000.0001)          No. starts: 20
(PID.TID 0000.0001)           No. stops: 20
(PID.TID 0000.0001)   Seconds in section "LOAD_FIELDS_DRIVER  [FORWARD_STEP]":
(PID.TID 0000.0001)           User time:  0.00199890137
(PID.TID 0000.0001)         System time:  0.
(PID.TID 0000.0001)     Wall clock time:  0.00191831589
(PID.TID 0000.0001)          No. starts: 20
(PID.TID 0000.0001)           No. stops: 20
(PID.TID 0000.0001)   Seconds in section "EXTERNAL_FLDS_LOAD [LOAD_FLDS_DRIVER]":
(PID.TID 0000.0001)           User time:  0.
(PID.TID 0000.0001)         System time:  0.
(PID.TID 0000.0001)     Wall clock time:  0.000644922256
(PID.TID 0000.0001)          No. starts: 20
(PID.TID 0000.0001)           No. stops: 20
(PID.TID 0000.0001)   Seconds in section "DO_ATMOSPHERIC_PHYS [FORWARD_STEP]":
(PID.TID 0000.0001)           User time:  0.
(PID.TID 0000.0001)         System time:  0.
(PID.TID 0000.0001)     Wall clock time:  0.000630617142
(PID.TID 0000.0001)          No. starts: 20
(PID.TID 0000.0001)           No. stops: 20
(PID.TID 0000.0001)   Seconds in section "DO_OCEANIC_PHYS     [FORWARD_STEP]":
(PID.TID 0000.0001)           User time:  1.65974593
(PID.TID 0000.0001)         System time:  0.00299999118
(PID.TID 0000.0001)     Wall clock time:  1.87516069
(PID.TID 0000.0001)          No. starts: 20
(PID.TID 0000.0001)           No. stops: 20
(PID.TID 0000.0001)   Seconds in section "SHELFICE_THERMODYNAMICS [DO_OCEANIC_PHYS]":
(PID.TID 0000.0001)           User time:  0.137976646
(PID.TID 0000.0001)         System time:  0.
(PID.TID 0000.0001)     Wall clock time:  0.141785383
(PID.TID 0000.0001)          No. starts: 20
(PID.TID 0000.0001)           No. stops: 20
(PID.TID 0000.0001)   Seconds in section "THERMODYNAMICS      [FORWARD_STEP]":
(PID.TID 0000.0001)           User time:  5.35218549
(PID.TID 0000.0001)         System time:  0.0149980038
(PID.TID 0000.0001)     Wall clock time:  6.53469372
(PID.TID 0000.0001)          No. starts: 20
(PID.TID 0000.0001)           No. stops: 20
(PID.TID 0000.0001)   Seconds in section "DYNAMICS            [FORWARD_STEP]":
(PID.TID 0000.0001)           User time:  12.5620975
(PID.TID 0000.0001)         System time:  0.155975044
(PID.TID 0000.0001)     Wall clock time:  14.9618762
(PID.TID 0000.0001)          No. starts: 20
(PID.TID 0000.0001)           No. stops: 20
(PID.TID 0000.0001)   Seconds in section "SOLVE_FOR_PRESSURE  [FORWARD_STEP]":
(PID.TID 0000.0001)           User time:  5.97608614
(PID.TID 0000.0001)         System time:  0.0159980059
(PID.TID 0000.0001)     Wall clock time:  6.96613097
(PID.TID 0000.0001)          No. starts: 20
(PID.TID 0000.0001)           No. stops: 20
(PID.TID 0000.0001)   Seconds in section "MOM_CORRECTION_STEP [FORWARD_STEP]":
(PID.TID 0000.0001)           User time:  1.08483624
(PID.TID 0000.0001)         System time:  0.
(PID.TID 0000.0001)     Wall clock time:  1.25133824
(PID.TID 0000.0001)          No. starts: 20
(PID.TID 0000.0001)           No. stops: 20
(PID.TID 0000.0001)   Seconds in section "UPDATE_ETAH         [FORWARD_STEP]":
(PID.TID 0000.0001)           User time:  0.00700092316
(PID.TID 0000.0001)         System time:  0.
(PID.TID 0000.0001)     Wall clock time:  0.00470423698
(PID.TID 0000.0001)          No. starts: 20
(PID.TID 0000.0001)           No. stops: 20
(PID.TID 0000.0001)   Seconds in section "TRC_CORRECTION_STEP [FORWARD_STEP]":
(PID.TID 0000.0001)           User time:  3.42547536
(PID.TID 0000.0001)         System time:  0.0039999783
(PID.TID 0000.0001)     Wall clock time:  4.22532964
(PID.TID 0000.0001)          No. starts: 20
(PID.TID 0000.0001)           No. stops: 20
(PID.TID 0000.0001)   Seconds in section "BLOCKING_EXCHANGES  [FORWARD_STEP]":
(PID.TID 0000.0001)           User time:  0.336951494
(PID.TID 0000.0001)         System time:  0.
(PID.TID 0000.0001)     Wall clock time:  0.368674278
(PID.TID 0000.0001)          No. starts: 20
(PID.TID 0000.0001)           No. stops: 20
(PID.TID 0000.0001)   Seconds in section "DO_STATEVARS_TAVE   [FORWARD_STEP]":
(PID.TID 0000.0001)           User time:  0.
(PID.TID 0000.0001)         System time:  0.
(PID.TID 0000.0001)     Wall clock time:  0.000632762909
(PID.TID 0000.0001)          No. starts: 20
(PID.TID 0000.0001)           No. stops: 20
(PID.TID 0000.0001)   Seconds in section "MONITOR             [FORWARD_STEP]":
(PID.TID 0000.0001)           User time:  4.30734301
(PID.TID 0000.0001)         System time:  0.00199997425
(PID.TID 0000.0001)     Wall clock time:  4.99686337
(PID.TID 0000.0001)          No. starts: 20
(PID.TID 0000.0001)           No. stops: 20
(PID.TID 0000.0001)   Seconds in section "DO_THE_MODEL_IO     [FORWARD_STEP]":
(PID.TID 0000.0001)           User time:  0.264961243
(PID.TID 0000.0001)         System time:  0.0149970055
(PID.TID 0000.0001)     Wall clock time:  0.84003377
(PID.TID 0000.0001)          No. starts: 20
(PID.TID 0000.0001)           No. stops: 20
(PID.TID 0000.0001)   Seconds in section "DO_WRITE_PICKUP     [FORWARD_STEP]":
(PID.TID 0000.0001)           User time:  0.394943237
(PID.TID 0000.0001)         System time:  0.76688394
(PID.TID 0000.0001)     Wall clock time:  7.09677982
(PID.TID 0000.0001)          No. starts: 20
(PID.TID 0000.0001)           No. stops: 20
(PID.TID 0000.0001) // ======================================================
(PID.TID 0000.0001) // Tile <-> Tile communication statistics
(PID.TID 0000.0001) // ======================================================
(PID.TID 0000.0001) // o Tile number: 000001
(PID.TID 0000.0001) //         No. X exchanges =              0
(PID.TID 0000.0001) //            Max. X spins =              0
(PID.TID 0000.0001) //            Min. X spins =     1000000000
(PID.TID 0000.0001) //          Total. X spins =              0
(PID.TID 0000.0001) //            Avg. X spins =       0.00E+00
(PID.TID 0000.0001) //         No. Y exchanges =              0
(PID.TID 0000.0001) //            Max. Y spins =              0
(PID.TID 0000.0001) //            Min. Y spins =     1000000000
(PID.TID 0000.0001) //          Total. Y spins =              0
(PID.TID 0000.0001) //            Avg. Y spins =       0.00E+00
(PID.TID 0000.0001) // o Tile number: 000002
(PID.TID 0000.0001) //         No. X exchanges =              0
(PID.TID 0000.0001) //            Max. X spins =              0
(PID.TID 0000.0001) //            Min. X spins =     1000000000
(PID.TID 0000.0001) //          Total. X spins =              0
(PID.TID 0000.0001) //            Avg. X spins =       0.00E+00
(PID.TID 0000.0001) //         No. Y exchanges =              0
(PID.TID 0000.0001) //            Max. Y spins =              0
(PID.TID 0000.0001) //            Min. Y spins =     1000000000
(PID.TID 0000.0001) //          Total. Y spins =              0
(PID.TID 0000.0001) //            Avg. Y spins =       0.00E+00
(PID.TID 0000.0001) // o Thread number: 000001
(PID.TID 0000.0001) //            No. barriers =          58224
(PID.TID 0000.0001) //      Max. barrier spins =              1
(PID.TID 0000.0001) //      Min. barrier spins =              1
(PID.TID 0000.0001) //     Total barrier spins =          58224
(PID.TID 0000.0001) //      Avg. barrier spins =       1.00E+00
