(PID.TID 0000.0001) 
(PID.TID 0000.0001) // ======================================================
(PID.TID 0000.0001) //                      MITgcm UV
(PID.TID 0000.0001) //                      =========
(PID.TID 0000.0001) // ======================================================
(PID.TID 0000.0001) // execution environment starting up...
(PID.TID 0000.0001) 
(PID.TID 0000.0001) // MITgcmUV version:  checkpoint62b
(PID.TID 0000.0001) // Build user:        dimitri
(PID.TID 0000.0001) // Build host:        skylla.jpl.nasa.gov
(PID.TID 0000.0001) // Build date:        Thu Feb 11 14:00:17 PST 2010
(PID.TID 0000.0001) 
(PID.TID 0000.0001) // =======================================================
(PID.TID 0000.0001) // Execution Environment parameter file "eedata"
(PID.TID 0000.0001) // =======================================================
(PID.TID 0000.0001) ># Example "eedata" file
(PID.TID 0000.0001) ># Lines beginning "#" are comments
(PID.TID 0000.0001) ># nTx - No. threads per process in X
(PID.TID 0000.0001) ># nTy - No. threads per process in Y
(PID.TID 0000.0001) > &EEPARMS
(PID.TID 0000.0001) > &
(PID.TID 0000.0001) ># Note: Some systems use & as the
(PID.TID 0000.0001) ># namelist terminator. Other systems
(PID.TID 0000.0001) ># use a / character (as shown here).
(PID.TID 0000.0001) 
(PID.TID 0000.0001) // =======================================================
(PID.TID 0000.0001) // Computational Grid Specification ( see files "SIZE.h" )
(PID.TID 0000.0001) //                                  ( and "eedata"       )
(PID.TID 0000.0001) // =======================================================
(PID.TID 0000.0001)      nPx =    1 ; /* No. processes in X */
(PID.TID 0000.0001)      nPy =    1 ; /* No. processes in Y */
(PID.TID 0000.0001)      nSx =    1 ; /* No. tiles in X per process */
(PID.TID 0000.0001)      nSy =    2 ; /* No. tiles in Y per process */
(PID.TID 0000.0001)      sNx =   50 ; /* Tile size in X */
(PID.TID 0000.0001)      sNy =   50 ; /* Tile size in Y */
(PID.TID 0000.0001)      OLx =    3 ; /* Tile overlap distance in X */
(PID.TID 0000.0001)      OLy =    3 ; /* Tile overlap distance in Y */
(PID.TID 0000.0001)      nTx =    1 ; /* No. threads in X per process */
(PID.TID 0000.0001)      nTy =    1 ; /* No. threads in Y per process */
(PID.TID 0000.0001)       Nr =   30 ; /* No. levels in the vertical   */
(PID.TID 0000.0001)       Nx =   50 ; /* Total domain size in X ( = nPx*nSx*sNx ) */
(PID.TID 0000.0001)       Ny =  100 ; /* Total domain size in Y ( = nPy*nSy*sNy ) */
(PID.TID 0000.0001)   nTiles =    2 ; /* Total no. tiles per process ( = nSx*nSy ) */
(PID.TID 0000.0001)   nProcs =    1 ; /* Total no. processes ( = nPx*nPy ) */
(PID.TID 0000.0001) nThreads =    1 ; /* Total no. threads per process ( = nTx*nTy ) */
(PID.TID 0000.0001) usingMPI =    F ; /* Flag used to control whether MPI is in use */
(PID.TID 0000.0001)                   /*  note: To execute a program with MPI calls */
(PID.TID 0000.0001)                   /*  it must be launched appropriately e.g     */
(PID.TID 0000.0001)                   /*  "mpirun -np 64 ......"                    */
(PID.TID 0000.0001) useCoupler=    F ;/* Flag used to control communications with   */
(PID.TID 0000.0001)                   /*  other model components, through a coupler */
(PID.TID 0000.0001) printMapIncludesZeros=    F ; /* print zeros in Std.Output maps */
(PID.TID 0000.0001) maxLengthPrt1D=   65 /* maxLength of 1D array printed to StdOut */
(PID.TID 0000.0001) 
(PID.TID 0000.0001) // ======================================================
(PID.TID 0000.0001) // Mapping of tiles to threads
(PID.TID 0000.0001) // ======================================================
(PID.TID 0000.0001) // -o- Thread   1, tiles (   1:   1,   1:   2)
(PID.TID 0000.0001) 
(PID.TID 0000.0001) // ======================================================
(PID.TID 0000.0001) // Tile <-> Tile connectvity table
(PID.TID 0000.0001) // ======================================================
(PID.TID 0000.0001) // Tile number: 000001 (process no. = 000001)
(PID.TID 0000.0001) //        WEST: Tile = 000001, Process = 000001, Comm = put
(PID.TID 0000.0001) //                bi = 000001, bj = 000001
(PID.TID 0000.0001) //        EAST: Tile = 000001, Process = 000001, Comm = put
(PID.TID 0000.0001) //                bi = 000001, bj = 000001
(PID.TID 0000.0001) //       SOUTH: Tile = 000002, Process = 000001, Comm = put
(PID.TID 0000.0001) //                bi = 000001, bj = 000002
(PID.TID 0000.0001) //       NORTH: Tile = 000002, Process = 000001, Comm = put
(PID.TID 0000.0001) //                bi = 000001, bj = 000002
(PID.TID 0000.0001) // Tile number: 000002 (process no. = 000001)
(PID.TID 0000.0001) //        WEST: Tile = 000002, Process = 000001, Comm = put
(PID.TID 0000.0001) //                bi = 000001, bj = 000002
(PID.TID 0000.0001) //        EAST: Tile = 000002, Process = 000001, Comm = put
(PID.TID 0000.0001) //                bi = 000001, bj = 000002
(PID.TID 0000.0001) //       SOUTH: Tile = 000001, Process = 000001, Comm = put
(PID.TID 0000.0001) //                bi = 000001, bj = 000001
(PID.TID 0000.0001) //       NORTH: Tile = 000001, Process = 000001, Comm = put
(PID.TID 0000.0001) //                bi = 000001, bj = 000001
(PID.TID 0000.0001) 
(PID.TID 0000.0001) DEBUG_MSG: ENTERED S/R THE_MODEL_MAIN
(PID.TID 0000.0001) DEBUG_MSG: CALLING S/R INITIALISE_FIXED
(PID.TID 0000.0001) // =======================================================
(PID.TID 0000.0001) // Model parameter file "data"
(PID.TID 0000.0001) // =======================================================
(PID.TID 0000.0001) ># ====================
(PID.TID 0000.0001) ># | Model parameters |
(PID.TID 0000.0001) ># ====================
(PID.TID 0000.0001) >#
(PID.TID 0000.0001) ># Continuous equation parameters
(PID.TID 0000.0001) > &PARM01
(PID.TID 0000.0001) > Tref = 30*-1.9,
(PID.TID 0000.0001) > Sref = 30*34.4,
(PID.TID 0000.0001) > viscAz=1.E-3,
(PID.TID 0000.0001) > viscAh=600.0,
(PID.TID 0000.0001) > no_slip_sides=.FALSE.,
(PID.TID 0000.0001) > no_slip_bottom=.FALSE.,
(PID.TID 0000.0001) > diffKhT=100.0,
(PID.TID 0000.0001) > diffKzT=5.E-5,
(PID.TID 0000.0001) > diffKhS=100.0,
(PID.TID 0000.0001) > diffKzS=5.E-5,
(PID.TID 0000.0001) > bottomDragQuadratic=2.5E-3,
(PID.TID 0000.0001) > eosType='JMD95Z',
(PID.TID 0000.0001) > HeatCapacity_cp = 3974.0,
(PID.TID 0000.0001) > rhoConst=1030.,
(PID.TID 0000.0001) > rhoNil=1030.,
(PID.TID 0000.0001) > gravity=9.81,
(PID.TID 0000.0001) > convertFW2Salt = 33.4,
(PID.TID 0000.0001) > rigidLid=.FALSE.,
(PID.TID 0000.0001) > implicitFreeSurface=.TRUE.,
(PID.TID 0000.0001) > exactConserv=.TRUE.,
(PID.TID 0000.0001) > hFacMin=0.05,
(PID.TID 0000.0001) > nonHydrostatic=.FALSE.,
(PID.TID 0000.0001) > readBinaryPrec=64,
(PID.TID 0000.0001) > useCDScheme = .TRUE.,
(PID.TID 0000.0001) > &
(PID.TID 0000.0001) >
(PID.TID 0000.0001) ># Elliptic solver parameters
(PID.TID 0000.0001) > &PARM02
(PID.TID 0000.0001) > cg2dMaxIters=1000,
(PID.TID 0000.0001) > cg2dTargetResidual=1.E-13,
(PID.TID 0000.0001) > cg3dMaxIters=400,
(PID.TID 0000.0001) > cg3dTargetResidual=1.E-13,
(PID.TID 0000.0001) > &
(PID.TID 0000.0001) >
(PID.TID 0000.0001) ># Time stepping parameters
(PID.TID 0000.0001) > &PARM03
(PID.TID 0000.0001) > nIter0=0,
(PID.TID 0000.0001) > nTimeSteps=20,
(PID.TID 0000.0001) > deltaT=1800.0,
(PID.TID 0000.0001) > abEps=0.1,
(PID.TID 0000.0001) > cAdjFreq = -1.,
(PID.TID 0000.0001) > tauCD = 400000.,
(PID.TID 0000.0001) > pChkptFreq=0.0,
(PID.TID 0000.0001) > chkptFreq=0.0,
(PID.TID 0000.0001) > dumpFreq=0.0,
(PID.TID 0000.0001) > taveFreq=0.0,
(PID.TID 0000.0001) > monitorFreq=1.,
(PID.TID 0000.0001) > monitorSelect=2,
(PID.TID 0000.0001) > &
(PID.TID 0000.0001) >
(PID.TID 0000.0001) ># Gridding parameters
(PID.TID 0000.0001) > &PARM04
(PID.TID 0000.0001) > usingSphericalPolarGrid=.TRUE.,
(PID.TID 0000.0001) > ygOrigin = -80.0,
(PID.TID 0000.0001) > delX=50*0.3,
(PID.TID 0000.0001) > delY=100*0.1,
(PID.TID 0000.0001) > delZ=30*30.0,
(PID.TID 0000.0001) > &
(PID.TID 0000.0001) >
(PID.TID 0000.0001) ># Input datasets
(PID.TID 0000.0001) > &PARM05
(PID.TID 0000.0001) > bathyFile='bathy.box',
(PID.TID 0000.0001) > &
(PID.TID 0000.0001) 
(PID.TID 0000.0001) S/R INI_PARMS ; starts to read PARM01
(PID.TID 0000.0001) S/R INI_PARMS ; read PARM01 : OK
(PID.TID 0000.0001) S/R INI_PARMS ; starts to read PARM02
(PID.TID 0000.0001) S/R INI_PARMS ; read PARM02 : OK
(PID.TID 0000.0001) S/R INI_PARMS ; starts to read PARM03
(PID.TID 0000.0001) S/R INI_PARMS ; read PARM03 : OK
(PID.TID 0000.0001) S/R INI_PARMS ; starts to read PARM04
(PID.TID 0000.0001) S/R INI_PARMS ; read PARM04 : OK
(PID.TID 0000.0001) S/R INI_PARMS ; starts to read PARM05
(PID.TID 0000.0001) S/R INI_PARMS ; read PARM05 : OK
(PID.TID 0000.0001)  PACKAGES_BOOT: opening data.pkg
(PID.TID 0000.0001)  OPEN_COPY_DATA_FILE: opening file data.pkg
(PID.TID 0000.0001) // =======================================================
(PID.TID 0000.0001) // Parameter file "data.pkg"
(PID.TID 0000.0001) // =======================================================
(PID.TID 0000.0001) ># Packages
(PID.TID 0000.0001) > &PACKAGES
(PID.TID 0000.0001) > useDiagnostics = .TRUE.,
(PID.TID 0000.0001) > useShelfIce=.true.,
(PID.TID 0000.0001) > useIcefront=.true.,
(PID.TID 0000.0001) > &
(PID.TID 0000.0001) 
(PID.TID 0000.0001)  PACKAGES_BOOT: finished reading data.pkg
(PID.TID 0000.0001)  SHELFICE_READPARMS: opening data.shelfice
(PID.TID 0000.0001)  OPEN_COPY_DATA_FILE: opening file data.shelfice
(PID.TID 0000.0001) // =======================================================
(PID.TID 0000.0001) // Parameter file "data.shelfice"
(PID.TID 0000.0001) // =======================================================
(PID.TID 0000.0001) ># ===================================
(PID.TID 0000.0001) ># | Parameters for SHELFICE package |
(PID.TID 0000.0001) ># ===================================
(PID.TID 0000.0001) > &SHELFICE_PARM01
(PID.TID 0000.0001) > SHELFICEboundaryLayer = .TRUE.,
(PID.TID 0000.0001) > SHELFICEtopoFile='icetopo.exp1',
(PID.TID 0000.0001) > SHELFICEloadAnomalyFile = 'phi0surf.exp1.jmd95z',
(PID.TID 0000.0001) > SHELFICEconserve = .true.,
(PID.TID 0000.0001) > useISOMIPTD = .FALSE.,
(PID.TID 0000.0001) > no_slip_shelfice = .false.,
(PID.TID 0000.0001) > SHELFICEwriteState = .TRUE.,
(PID.TID 0000.0001) > &
(PID.TID 0000.0001) 
(PID.TID 0000.0001)  SHELFICE_READPARMS: finished reading data.shelfice
(PID.TID 0000.0001)  ICEFRONT_READPARMS: opening data.icefront
(PID.TID 0000.0001)  OPEN_COPY_DATA_FILE: opening file data.icefront
(PID.TID 0000.0001) // =======================================================
(PID.TID 0000.0001) // Parameter file "data.icefront"
(PID.TID 0000.0001) // =======================================================
(PID.TID 0000.0001) ># ===================================
(PID.TID 0000.0001) ># | Parameters for ICEFRONT package |
(PID.TID 0000.0001) ># ===================================
(PID.TID 0000.0001) > &ICEFRONT_PARM01
(PID.TID 0000.0001) > ICEFRONTdepthFile='frontdepth.xuyun',
(PID.TID 0000.0001) > ICEFRONTlengthFile = 'frontcircum.xuyun',
(PID.TID 0000.0001) > ICEFRONTconserve   = .true.,
(PID.TID 0000.0001) > applyIcefrontTendT = .true.,
(PID.TID 0000.0001) > applyIcefrontTendS = .true.,
(PID.TID 0000.0001) > &
(PID.TID 0000.0001) 
(PID.TID 0000.0001)  ICEFRONT_READPARMS: finished reading data.icefront
(PID.TID 0000.0001)  DIAGNOSTICS_READPARMS: opening data.diagnostics
(PID.TID 0000.0001)  OPEN_COPY_DATA_FILE: opening file data.diagnostics
(PID.TID 0000.0001) // =======================================================
(PID.TID 0000.0001) // Parameter file "data.diagnostics"
(PID.TID 0000.0001) // =======================================================
(PID.TID 0000.0001) >#Diagnostic Package Choices
(PID.TID 0000.0001) > &diagnostics_list
(PID.TID 0000.0001) >  frequency(1) = 18000.,
(PID.TID 0000.0001) >   fields(1,1) = 'SHIfwFlx',
(PID.TID 0000.0001) >   filename(1) = 'SHIfwFlx',
(PID.TID 0000.0001) >  frequency(2) = 18000.,
(PID.TID 0000.0001) >   fields(1,2) = 'SHIhtFlx',
(PID.TID 0000.0001) >   filename(2) = 'SHIhtFlx',
(PID.TID 0000.0001) >  frequency(3) = 18000.,
(PID.TID 0000.0001) >   fields(1,3) = 'ICFfwFlx',
(PID.TID 0000.0001) >   filename(3) = 'ICFfwFlx',
(PID.TID 0000.0001) >  frequency(4) = 18000.,
(PID.TID 0000.0001) >   fields(1,4) = 'ICFhtFlx',
(PID.TID 0000.0001) >   filename(4) = 'ICFhtFlx',
(PID.TID 0000.0001) > &
(PID.TID 0000.0001) >
(PID.TID 0000.0001) ># Parameter for Diagnostics of per level statistics:
(PID.TID 0000.0001) > &DIAG_STATIS_PARMS
(PID.TID 0000.0001) > &
(PID.TID 0000.0001) 
(PID.TID 0000.0001) S/R DIAGNOSTICS_READPARMS, read namelist "diagnostics_list": start
(PID.TID 0000.0001) S/R DIAGNOSTICS_READPARMS, read namelist "diagnostics_list": OK
(PID.TID 0000.0001) S/R DIAGNOSTICS_READPARMS, read namelist "DIAG_STATIS_PARMS": start
(PID.TID 0000.0001) S/R DIAGNOSTICS_READPARMS, read namelist "DIAG_STATIS_PARMS": OK
(PID.TID 0000.0001) -----------------------------------------------------
(PID.TID 0000.0001)  DIAGNOSTICS_READPARMS: active diagnostics summary:
(PID.TID 0000.0001) -----------------------------------------------------
(PID.TID 0000.0001) Creating Output Stream: SHIfwFlx
(PID.TID 0000.0001) Output Frequency:      18000.000000 ; Phase:           0.000000
(PID.TID 0000.0001)  Averaging Freq.:      18000.000000 , Phase:           0.000000 , Cycle:   1
(PID.TID 0000.0001)  missing value:  1.234567000000E+05 ; for integers:   123456789
(PID.TID 0000.0001)  Levels:    will be set later
(PID.TID 0000.0001)  Fields:    SHIfwFlx
(PID.TID 0000.0001) Creating Output Stream: SHIhtFlx
(PID.TID 0000.0001) Output Frequency:      18000.000000 ; Phase:           0.000000
(PID.TID 0000.0001)  Averaging Freq.:      18000.000000 , Phase:           0.000000 , Cycle:   1
(PID.TID 0000.0001)  missing value:  1.234567000000E+05 ; for integers:   123456789
(PID.TID 0000.0001)  Levels:    will be set later
(PID.TID 0000.0001)  Fields:    SHIhtFlx
(PID.TID 0000.0001) Creating Output Stream: ICFfwFlx
(PID.TID 0000.0001) Output Frequency:      18000.000000 ; Phase:           0.000000
(PID.TID 0000.0001)  Averaging Freq.:      18000.000000 , Phase:           0.000000 , Cycle:   1
(PID.TID 0000.0001)  missing value:  1.234567000000E+05 ; for integers:   123456789
(PID.TID 0000.0001)  Levels:    will be set later
(PID.TID 0000.0001)  Fields:    ICFfwFlx
(PID.TID 0000.0001) Creating Output Stream: ICFhtFlx
(PID.TID 0000.0001) Output Frequency:      18000.000000 ; Phase:           0.000000
(PID.TID 0000.0001)  Averaging Freq.:      18000.000000 , Phase:           0.000000 , Cycle:   1
(PID.TID 0000.0001)  missing value:  1.234567000000E+05 ; for integers:   123456789
(PID.TID 0000.0001)  Levels:    will be set later
(PID.TID 0000.0001)  Fields:    ICFhtFlx
(PID.TID 0000.0001) -----------------------------------------------------
(PID.TID 0000.0001)  DIAGNOSTICS_READPARMS: statistics diags. summary:
(PID.TID 0000.0001) -----------------------------------------------------
(PID.TID 0000.0001) 
(PID.TID 0000.0001) SET_PARMS: done
(PID.TID 0000.0001) Enter INI_VERTICAL_GRID: setInterFDr=    T ; setCenterDr=    F
(PID.TID 0000.0001) %MON XC_max                       =   1.4850000000000E+01
(PID.TID 0000.0001) %MON XC_min                       =   1.5000000000000E-01
(PID.TID 0000.0001) %MON XC_mean                      =   7.5000000000000E+00
(PID.TID 0000.0001) %MON XC_sd                        =   4.3292609068985E+00
(PID.TID 0000.0001) %MON XG_max                       =   1.4700000000000E+01
(PID.TID 0000.0001) %MON XG_min                       =   1.1102230246252E-16
(PID.TID 0000.0001) %MON XG_mean                      =   7.3500000000000E+00
(PID.TID 0000.0001) %MON XG_sd                        =   4.3292609068985E+00
(PID.TID 0000.0001) %MON DXC_max                      =   1.1380125394806E+04
(PID.TID 0000.0001) %MON DXC_min                      =   5.8203914905589E+03
(PID.TID 0000.0001) %MON DXC_mean                     =   8.6215028627206E+03
(PID.TID 0000.0001) %MON DXC_sd                       =   1.6219001271572E+03
(PID.TID 0000.0001) %MON DXF_max                      =   1.1380125394806E+04
(PID.TID 0000.0001) %MON DXF_min                      =   5.8203914905589E+03
(PID.TID 0000.0001) %MON DXF_mean                     =   8.6215028627206E+03
(PID.TID 0000.0001) %MON DXF_sd                       =   1.6219001271572E+03
(PID.TID 0000.0001) %MON DXG_max                      =   1.1352761512017E+04
(PID.TID 0000.0001) %MON DXG_min                      =   5.7917296935586E+03
(PID.TID 0000.0001) %MON DXG_mean                     =   8.5934208253080E+03
(PID.TID 0000.0001) %MON DXG_sd                       =   1.6222785520817E+03
(PID.TID 0000.0001) %MON DXV_max                      =   1.1352761512017E+04
(PID.TID 0000.0001) %MON DXV_min                      =   5.7917296935586E+03
(PID.TID 0000.0001) %MON DXV_mean                     =   8.5934208253080E+03
(PID.TID 0000.0001) %MON DXV_sd                       =   1.6222785520817E+03
(PID.TID 0000.0001) %MON YC_max                       =  -7.0050000000001E+01
(PID.TID 0000.0001) %MON YC_min                       =  -7.9950000000000E+01
(PID.TID 0000.0001) %MON YC_mean                      =  -7.5000000000000E+01
(PID.TID 0000.0001) %MON YC_sd                        =   2.8866070047720E+00
(PID.TID 0000.0001) %MON YG_max                       =  -7.0100000000001E+01
(PID.TID 0000.0001) %MON YG_min                       =  -8.0000000000000E+01
(PID.TID 0000.0001) %MON YG_mean                      =  -7.5050000000000E+01
(PID.TID 0000.0001) %MON YG_sd                        =   2.8866070047720E+00
(PID.TID 0000.0001) %MON DYC_max                      =   1.1117747335204E+04
(PID.TID 0000.0001) %MON DYC_min                      =   1.1117747335204E+04
(PID.TID 0000.0001) %MON DYC_mean                     =   1.1117747335203E+04
(PID.TID 0000.0001) %MON DYC_sd                       =   6.0754246078432E-10
(PID.TID 0000.0001) %MON DYF_max                      =   1.1117747335204E+04
(PID.TID 0000.0001) %MON DYF_min                      =   1.1117747335204E+04
(PID.TID 0000.0001) %MON DYF_mean                     =   1.1117747335203E+04
(PID.TID 0000.0001) %MON DYF_sd                       =   6.0754246078432E-10
(PID.TID 0000.0001) %MON DYG_max                      =   1.1117747335204E+04
(PID.TID 0000.0001) %MON DYG_min                      =   1.1117747335204E+04
(PID.TID 0000.0001) %MON DYG_mean                     =   1.1117747335203E+04
(PID.TID 0000.0001) %MON DYG_sd                       =   6.0754246078432E-10
(PID.TID 0000.0001) %MON DYU_max                      =   1.1117747335204E+04
(PID.TID 0000.0001) %MON DYU_min                      =   1.1117747335204E+04
(PID.TID 0000.0001) %MON DYU_mean                     =   1.1117747335203E+04
(PID.TID 0000.0001) %MON DYU_sd                       =   6.0754246078432E-10
(PID.TID 0000.0001) %MON RA_max                       =   1.2652134272379E+08
(PID.TID 0000.0001) %MON RA_min                       =   6.4709633770803E+07
(PID.TID 0000.0001) %MON RA_mean                      =   9.5851678311588E+07
(PID.TID 0000.0001) %MON RA_sd                        =   1.8031873527991E+07
(PID.TID 0000.0001) %MON RAW_max                      =   1.2652134272379E+08
(PID.TID 0000.0001) %MON RAW_min                      =   6.4709633770803E+07
(PID.TID 0000.0001) %MON RAW_mean                     =   9.5851678311588E+07
(PID.TID 0000.0001) %MON RAW_sd                       =   1.8031873527991E+07
(PID.TID 0000.0001) %MON RAS_max                      =   1.2621711802744E+08
(PID.TID 0000.0001) %MON RAS_min                      =   6.4390979194019E+07
(PID.TID 0000.0001) %MON RAS_mean                     =   9.5539469354603E+07
(PID.TID 0000.0001) %MON RAS_sd                       =   1.8036080760153E+07
(PID.TID 0000.0001) %MON RAZ_max                      =   1.2621711802744E+08
(PID.TID 0000.0001) %MON RAZ_min                      =   6.4390979194019E+07
(PID.TID 0000.0001) %MON RAZ_mean                     =   9.5539469354603E+07
(PID.TID 0000.0001) %MON RAZ_sd                       =   1.8036080760153E+07
(PID.TID 0000.0001) %MON AngleCS_max                  =   1.0000000000000E+00
(PID.TID 0000.0001) %MON AngleCS_min                  =   1.0000000000000E+00
(PID.TID 0000.0001) %MON AngleCS_mean                 =   1.0000000000000E+00
(PID.TID 0000.0001) %MON AngleCS_sd                   =   0.0000000000000E+00
(PID.TID 0000.0001) %MON AngleSN_max                  =   0.0000000000000E+00
(PID.TID 0000.0001) %MON AngleSN_min                  =   0.0000000000000E+00
(PID.TID 0000.0001) %MON AngleSN_mean                 =   0.0000000000000E+00
(PID.TID 0000.0001) %MON AngleSN_sd                   =   0.0000000000000E+00
(PID.TID 0000.0001)  MDS_READ_FIELD: opening global file: bathy.box
(PID.TID 0000.0001)  MDS_READ_FIELD: opening global file: icetopo.exp1
(PID.TID 0000.0001) // =======================================================
(PID.TID 0000.0001) // Field Model R_low (ini_masks_etc) at iteration          1
(PID.TID 0000.0001) // CMIN =         -9.000000000000000E+02
(PID.TID 0000.0001) // CMAX =         -9.000000000000000E+02
(PID.TID 0000.0001) // CINT =          0.000000000000000E+00
(PID.TID 0000.0001) // SYMBOLS (CMIN->CMAX): -abcdefghijklmnopqrstuvwxyz+
(PID.TID 0000.0001) //                  0.0: .
(PID.TID 0000.0001) // RANGE I (Lo:Hi:Step):(  -2:  53:   1)
(PID.TID 0000.0001) // RANGE J (Lo:Hi:Step):( 103:  -2:  -1)
(PID.TID 0000.0001) // RANGE K (Lo:Hi:Step):(   1:   1:   1)
(PID.TID 0000.0001) // =======================================================
(PID.TID 0000.0001) // =======================================================
(PID.TID 0000.0001) // END OF FIELD                                          =
(PID.TID 0000.0001) // =======================================================
(PID.TID 0000.0001) 
(PID.TID 0000.0001) // =======================================================
(PID.TID 0000.0001) // Field Model Ro_surf (ini_masks_etc) at iteration          1
(PID.TID 0000.0001) // CMIN =         -6.812500000000010E+02
(PID.TID 0000.0001) // CMAX =         -2.000000000000000E+02
(PID.TID 0000.0001) // CINT =          1.782407407407411E+01
(PID.TID 0000.0001) // SYMBOLS (CMIN->CMAX): -abcdefghijklmnopqrstuvwxyz+
(PID.TID 0000.0001) //                  0.0: .
(PID.TID 0000.0001) // RANGE I (Lo:Hi:Step):(  -2:  53:   1)
(PID.TID 0000.0001) // RANGE J (Lo:Hi:Step):( 103:  -2:  -1)
(PID.TID 0000.0001) // RANGE K (Lo:Hi:Step):(   1:   1:   1)
(PID.TID 0000.0001) // =======================================================
(PID.TID 0000.0001) K =   1
(PID.TID 0000.0001) //                I=7       I=17      I=27      I=37      I=47
(PID.TID 0000.0001) // |--J--|210123456|890123456|890123456|890123456|890123456|890123
(PID.TID 0000.0001) //    103 aaa.aaaaaaaaaaaaaaaaaaaaaaaaaaaaaaaaaaaaaaaaaaaaaaaaa.aa
(PID.TID 0000.0001) //    102 ---.-------------------------------------------------.--
(PID.TID 0000.0001) //    101 ........................................................
(PID.TID 0000.0001) //    100 ........................................................
(PID.TID 0000.0001) //     99 ........................................................
(PID.TID 0000.0001) //     98 ........................................................
(PID.TID 0000.0001) //     97 ........................................................
(PID.TID 0000.0001) //     96 ........................................................
(PID.TID 0000.0001) //     95 ........................................................
(PID.TID 0000.0001) //     94 ........................................................
(PID.TID 0000.0001) //     93 ........................................................
(PID.TID 0000.0001) //     92 ........................................................
(PID.TID 0000.0001) //     91 ........................................................
(PID.TID 0000.0001) //     90 ........................................................
(PID.TID 0000.0001) //     89 ........................................................
(PID.TID 0000.0001) //     88 ........................................................
(PID.TID 0000.0001) //     87 ........................................................
(PID.TID 0000.0001) //     86 ........................................................
(PID.TID 0000.0001) //     85 ........................................................
(PID.TID 0000.0001) //     84 ........................................................
(PID.TID 0000.0001) //     83 ........................................................
(PID.TID 0000.0001) //     82 ........................................................
(PID.TID 0000.0001) //     81 ........................................................
(PID.TID 0000.0001) //     80 ........................................................
(PID.TID 0000.0001) //     79 ........................................................
(PID.TID 0000.0001) //     78 ........................................................
(PID.TID 0000.0001) //     77 ........................................................
(PID.TID 0000.0001) //     76 ........................................................
(PID.TID 0000.0001) //     75 ........................................................
(PID.TID 0000.0001) //     74 ........................................................
(PID.TID 0000.0001) //     73 ........................................................
(PID.TID 0000.0001) //     72 ........................................................
(PID.TID 0000.0001) //     71 ........................................................
(PID.TID 0000.0001) //     70 ........................................................
(PID.TID 0000.0001) //     69 ........................................................
(PID.TID 0000.0001) //     68 ........................................................
(PID.TID 0000.0001) //     67 ........................................................
(PID.TID 0000.0001) //     66 ........................................................
(PID.TID 0000.0001) //     65 ........................................................
(PID.TID 0000.0001) //     64 ........................................................
(PID.TID 0000.0001) //     63 ........................................................
(PID.TID 0000.0001) //     62 ........................................................
(PID.TID 0000.0001) //     61 ........................................................
(PID.TID 0000.0001) //     60 ........................................................
(PID.TID 0000.0001) //     59 ........................................................
(PID.TID 0000.0001) //     58 ........................................................
(PID.TID 0000.0001) //     57 ........................................................
(PID.TID 0000.0001) //     56 ........................................................
(PID.TID 0000.0001) //     55 ........................................................
(PID.TID 0000.0001) //     54 ........................................................
(PID.TID 0000.0001) //     53 ........................................................
(PID.TID 0000.0001) //     52 ........................................................
(PID.TID 0000.0001) //     51 ........................................................
(PID.TID 0000.0001) //     50 +++.+++++++++++++++++++++++++++++++++++++++++++++++++.++
(PID.TID 0000.0001) //     49 +++.+++++++++++++++++++++++++++++++++++++++++++++++++.++
(PID.TID 0000.0001) //     48 +++.+++++++++++++++++++++++++++++++++++++++++++++++++.++
(PID.TID 0000.0001) //     53 ........................................................
(PID.TID 0000.0001) //     52 ........................................................
(PID.TID 0000.0001) //     51 ........................................................
(PID.TID 0000.0001) //     50 +++.+++++++++++++++++++++++++++++++++++++++++++++++++.++
(PID.TID 0000.0001) //     49 +++.+++++++++++++++++++++++++++++++++++++++++++++++++.++
(PID.TID 0000.0001) //     48 +++.+++++++++++++++++++++++++++++++++++++++++++++++++.++
(PID.TID 0000.0001) //     47 +++.+++++++++++++++++++++++++++++++++++++++++++++++++.++
(PID.TID 0000.0001) //     46 +++.+++++++++++++++++++++++++++++++++++++++++++++++++.++
(PID.TID 0000.0001) //     45 +++.+++++++++++++++++++++++++++++++++++++++++++++++++.++
(PID.TID 0000.0001) //     44 +++.+++++++++++++++++++++++++++++++++++++++++++++++++.++
(PID.TID 0000.0001) //     43 +++.+++++++++++++++++++++++++++++++++++++++++++++++++.++
(PID.TID 0000.0001) //     42 +++.+++++++++++++++++++++++++++++++++++++++++++++++++.++
(PID.TID 0000.0001) //     41 +++.+++++++++++++++++++++++++++++++++++++++++++++++++.++
(PID.TID 0000.0001) //     40 +++.+++++++++++++++++++++++++++++++++++++++++++++++++.++
(PID.TID 0000.0001) //     39 zzz.zzzzzzzzzzzzzzzzzzzzzzzzzzzzzzzzzzzzzzzzzzzzzzzzz.zz
(PID.TID 0000.0001) //     38 yyy.yyyyyyyyyyyyyyyyyyyyyyyyyyyyyyyyyyyyyyyyyyyyyyyyy.yy
(PID.TID 0000.0001) //     37 yyy.yyyyyyyyyyyyyyyyyyyyyyyyyyyyyyyyyyyyyyyyyyyyyyyyy.yy
(PID.TID 0000.0001) //     36 xxx.xxxxxxxxxxxxxxxxxxxxxxxxxxxxxxxxxxxxxxxxxxxxxxxxx.xx
(PID.TID 0000.0001) //     35 www.wwwwwwwwwwwwwwwwwwwwwwwwwwwwwwwwwwwwwwwwwwwwwwwww.ww
(PID.TID 0000.0001) //     34 vvv.vvvvvvvvvvvvvvvvvvvvvvvvvvvvvvvvvvvvvvvvvvvvvvvvv.vv
(PID.TID 0000.0001) //     33 vvv.vvvvvvvvvvvvvvvvvvvvvvvvvvvvvvvvvvvvvvvvvvvvvvvvv.vv
(PID.TID 0000.0001) //     32 uuu.uuuuuuuuuuuuuuuuuuuuuuuuuuuuuuuuuuuuuuuuuuuuuuuuu.uu
(PID.TID 0000.0001) //     31 ttt.ttttttttttttttttttttttttttttttttttttttttttttttttt.tt
(PID.TID 0000.0001) //     30 ttt.ttttttttttttttttttttttttttttttttttttttttttttttttt.tt
(PID.TID 0000.0001) //     29 sss.sssssssssssssssssssssssssssssssssssssssssssssssss.ss
(PID.TID 0000.0001) //     28 rrr.rrrrrrrrrrrrrrrrrrrrrrrrrrrrrrrrrrrrrrrrrrrrrrrrr.rr
(PID.TID 0000.0001) //     27 rrr.rrrrrrrrrrrrrrrrrrrrrrrrrrrrrrrrrrrrrrrrrrrrrrrrr.rr
(PID.TID 0000.0001) //     26 qqq.qqqqqqqqqqqqqqqqqqqqqqqqqqqqqqqqqqqqqqqqqqqqqqqqq.qq
(PID.TID 0000.0001) //     25 ppp.ppppppppppppppppppppppppppppppppppppppppppppppppp.pp
(PID.TID 0000.0001) //     24 ooo.ooooooooooooooooooooooooooooooooooooooooooooooooo.oo
(PID.TID 0000.0001) //     23 ooo.ooooooooooooooooooooooooooooooooooooooooooooooooo.oo
(PID.TID 0000.0001) //     22 nnn.nnnnnnnnnnnnnnnnnnnnnnnnnnnnnnnnnnnnnnnnnnnnnnnnn.nn
(PID.TID 0000.0001) //     21 mmm.mmmmmmmmmmmmmmmmmmmmmmmmmmmmmmmmmmmmmmmmmmmmmmmmm.mm
(PID.TID 0000.0001) //     20 mmm.mmmmmmmmmmmmmmmmmmmmmmmmmmmmmmmmmmmmmmmmmmmmmmmmm.mm
(PID.TID 0000.0001) //     19 lll.lllllllllllllllllllllllllllllllllllllllllllllllll.ll
(PID.TID 0000.0001) //     18 kkk.kkkkkkkkkkkkkkkkkkkkkkkkkkkkkkkkkkkkkkkkkkkkkkkkk.kk
(PID.TID 0000.0001) //     17 kkk.kkkkkkkkkkkkkkkkkkkkkkkkkkkkkkkkkkkkkkkkkkkkkkkkk.kk
(PID.TID 0000.0001) //     16 jjj.jjjjjjjjjjjjjjjjjjjjjjjjjjjjjjjjjjjjjjjjjjjjjjjjj.jj
(PID.TID 0000.0001) //     15 iii.iiiiiiiiiiiiiiiiiiiiiiiiiiiiiiiiiiiiiiiiiiiiiiiii.ii
(PID.TID 0000.0001) //     14 hhh.hhhhhhhhhhhhhhhhhhhhhhhhhhhhhhhhhhhhhhhhhhhhhhhhh.hh
(PID.TID 0000.0001) //     13 hhh.hhhhhhhhhhhhhhhhhhhhhhhhhhhhhhhhhhhhhhhhhhhhhhhhh.hh
(PID.TID 0000.0001) //     12 ggg.ggggggggggggggggggggggggggggggggggggggggggggggggg.gg
(PID.TID 0000.0001) //     11 fff.fffffffffffffffffffffffffffffffffffffffffffffffff.ff
(PID.TID 0000.0001) //     10 fff.fffffffffffffffffffffffffffffffffffffffffffffffff.ff
(PID.TID 0000.0001) //      9 eee.eeeeeeeeeeeeeeeeeeeeeeeeeeeeeeeeeeeeeeeeeeeeeeeee.ee
(PID.TID 0000.0001) //      8 ddd.ddddddddddddddddddddddddddddddddddddddddddddddddd.dd
(PID.TID 0000.0001) //      7 ddd.ddddddddddddddddddddddddddddddddddddddddddddddddd.dd
(PID.TID 0000.0001) //      6 ccc.ccccccccccccccccccccccccccccccccccccccccccccccccc.cc
(PID.TID 0000.0001) //      5 bbb.bbbbbbbbbbbbbbbbbbbbbbbbbbbbbbbbbbbbbbbbbbbbbbbbb.bb
(PID.TID 0000.0001) //      4 aaa.aaaaaaaaaaaaaaaaaaaaaaaaaaaaaaaaaaaaaaaaaaaaaaaaa.aa
(PID.TID 0000.0001) //      3 aaa.aaaaaaaaaaaaaaaaaaaaaaaaaaaaaaaaaaaaaaaaaaaaaaaaa.aa
(PID.TID 0000.0001) //      2 ---.-------------------------------------------------.--
(PID.TID 0000.0001) //      1 ........................................................
(PID.TID 0000.0001) //      0 ........................................................
(PID.TID 0000.0001) //     -1 ........................................................
(PID.TID 0000.0001) //     -2 ........................................................
(PID.TID 0000.0001) // =======================================================
(PID.TID 0000.0001) // END OF FIELD                                          =
(PID.TID 0000.0001) // =======================================================
(PID.TID 0000.0001) 
(PID.TID 0000.0001) // =======================================================
(PID.TID 0000.0001) // Field hFacC at iteration          1
(PID.TID 0000.0001) // CMIN =          1.000000000000000E+00
(PID.TID 0000.0001) // CMAX =          1.000000000000000E+00
(PID.TID 0000.0001) // CINT =          0.000000000000000E+00
(PID.TID 0000.0001) // SYMBOLS (CMIN->CMAX): -abcdefghijklmnopqrstuvwxyz+
(PID.TID 0000.0001) //                  0.0: .
(PID.TID 0000.0001) // RANGE I (Lo:Hi:Step):(  -2:  53:   1)
(PID.TID 0000.0001) // RANGE J (Lo:Hi:Step):( 103:  -2:  -1)
(PID.TID 0000.0001) // RANGE K (Lo:Hi:Step):(   1:   1:   1)
(PID.TID 0000.0001) // =======================================================
(PID.TID 0000.0001) // =======================================================
(PID.TID 0000.0001) // END OF FIELD                                          =
(PID.TID 0000.0001) // =======================================================
(PID.TID 0000.0001) 
(PID.TID 0000.0001) // =======================================================
(PID.TID 0000.0001) // Field hFacW at iteration          1
(PID.TID 0000.0001) // CMIN =          1.000000000000000E+00
(PID.TID 0000.0001) // CMAX =          1.000000000000000E+00
(PID.TID 0000.0001) // CINT =          0.000000000000000E+00
(PID.TID 0000.0001) // SYMBOLS (CMIN->CMAX): -abcdefghijklmnopqrstuvwxyz+
(PID.TID 0000.0001) //                  0.0: .
(PID.TID 0000.0001) // RANGE I (Lo:Hi:Step):(  -2:  53:   1)
(PID.TID 0000.0001) // RANGE J (Lo:Hi:Step):( 103:  -2:  -1)
(PID.TID 0000.0001) // RANGE K (Lo:Hi:Step):(   1:   1:   1)
(PID.TID 0000.0001) // =======================================================
(PID.TID 0000.0001) // =======================================================
(PID.TID 0000.0001) // END OF FIELD                                          =
(PID.TID 0000.0001) // =======================================================
(PID.TID 0000.0001) 
(PID.TID 0000.0001) // =======================================================
(PID.TID 0000.0001) // Field hFacS at iteration          1
(PID.TID 0000.0001) // CMIN =          1.000000000000000E+00
(PID.TID 0000.0001) // CMAX =          1.000000000000000E+00
(PID.TID 0000.0001) // CINT =          0.000000000000000E+00
(PID.TID 0000.0001) // SYMBOLS (CMIN->CMAX): -abcdefghijklmnopqrstuvwxyz+
(PID.TID 0000.0001) //                  0.0: .
(PID.TID 0000.0001) // RANGE I (Lo:Hi:Step):(  -2:  53:   1)
(PID.TID 0000.0001) // RANGE J (Lo:Hi:Step):( 103:  -2:  -1)
(PID.TID 0000.0001) // RANGE K (Lo:Hi:Step):(   1:   1:   1)
(PID.TID 0000.0001) // =======================================================
(PID.TID 0000.0001) // =======================================================
(PID.TID 0000.0001) // END OF FIELD                                          =
(PID.TID 0000.0001) // =======================================================
(PID.TID 0000.0001) 
(PID.TID 0000.0001) 
(PID.TID 0000.0001) // ===================================
(PID.TID 0000.0001) // GAD parameters :
(PID.TID 0000.0001) // ===================================
(PID.TID 0000.0001) tempAdvScheme =   /* Temp. Horiz.Advection scheme selector */
(PID.TID 0000.0001)                       2
(PID.TID 0000.0001)     ;
(PID.TID 0000.0001) tempVertAdvScheme =   /* Temp. Vert. Advection scheme selector */
(PID.TID 0000.0001)                       2
(PID.TID 0000.0001)     ;
(PID.TID 0000.0001) tempMultiDimAdvec =   /* use Muti-Dim Advec method for Temp */
(PID.TID 0000.0001)                   F
(PID.TID 0000.0001)     ;
(PID.TID 0000.0001) tempSOM_Advection = /* use 2nd Order Moment Advection for Temp */
(PID.TID 0000.0001)                   F
(PID.TID 0000.0001)     ;
(PID.TID 0000.0001) AdamsBashforthGt = /* apply Adams-Bashforth extrapolation on Gt */
(PID.TID 0000.0001)                   T
(PID.TID 0000.0001)     ;
(PID.TID 0000.0001) AdamsBashforth_T = /* apply Adams-Bashforth extrapolation on Temp */
(PID.TID 0000.0001)                   F
(PID.TID 0000.0001)     ;
(PID.TID 0000.0001) saltAdvScheme =   /* Salt. Horiz.advection scheme selector */
(PID.TID 0000.0001)                       2
(PID.TID 0000.0001)     ;
(PID.TID 0000.0001) saltVertAdvScheme =   /* Salt. Vert. Advection scheme selector */
(PID.TID 0000.0001)                       2
(PID.TID 0000.0001)     ;
(PID.TID 0000.0001) saltMultiDimAdvec =   /* use Muti-Dim Advec method for Salt */
(PID.TID 0000.0001)                   F
(PID.TID 0000.0001)     ;
(PID.TID 0000.0001) saltSOM_Advection = /* use 2nd Order Moment Advection for Salt */
(PID.TID 0000.0001)                   F
(PID.TID 0000.0001)     ;
(PID.TID 0000.0001) AdamsBashforthGs = /* apply Adams-Bashforth extrapolation on Gs */
(PID.TID 0000.0001)                   T
(PID.TID 0000.0001)     ;
(PID.TID 0000.0001) AdamsBashforth_S = /* apply Adams-Bashforth extrapolation on Salt */
(PID.TID 0000.0001)                   F
(PID.TID 0000.0001)     ;
(PID.TID 0000.0001) // ===================================
(PID.TID 0000.0001)  MDS_READ_FIELD: opening global file: frontcircum.xuyun
(PID.TID 0000.0001)  MDS_READ_FIELD: opening global file: frontdepth.xuyun
(PID.TID 0000.0001) ------------------------------------------------------------
(PID.TID 0000.0001) DIAGNOSTICS_SET_LEVELS: done
(PID.TID 0000.0001)  Total Nb of available Diagnostics: ndiagt=   184
(PID.TID 0000.0001)  write list of available Diagnostics to file: available_diagnostics.log
(PID.TID 0000.0001) SETDIAG: Allocate  1 x  1 Levels for Diagnostic #   177 SHIfwFlx
(PID.TID 0000.0001) SETDIAG: Allocate  1 x  1 Levels for Diagnostic #   178 SHIhtFlx
(PID.TID 0000.0001) SETDIAG: Allocate 30 x  1 Levels for Diagnostic #   183 ICFfwFlx
(PID.TID 0000.0001) SETDIAG: Allocate 30 x  1 Levels for Diagnostic #   184 ICFhtFlx
(PID.TID 0000.0001)   space allocated for all diagnostics:      62 levels
(PID.TID 0000.0001) DIAGNOSTICS_SET_POINTERS: Set levels for Outp.Stream: SHIfwFlx
(PID.TID 0000.0001)  Levels:       1.
(PID.TID 0000.0001) DIAGNOSTICS_SET_POINTERS: Set levels for Outp.Stream: SHIhtFlx
(PID.TID 0000.0001)  Levels:       1.
(PID.TID 0000.0001) DIAGNOSTICS_SET_POINTERS: Set levels for Outp.Stream: ICFfwFlx
(PID.TID 0000.0001)  Levels:       1.   2.   3.   4.   5.   6.   7.   8.   9.  10.  11.  12.  13.  14.  15.  16.  17.  18.  19.  20.
(PID.TID 0000.0001)  Levels:      21.  22.  23.  24.  25.  26.  27.  28.  29.  30.
(PID.TID 0000.0001) DIAGNOSTICS_SET_POINTERS: Set levels for Outp.Stream: ICFhtFlx
(PID.TID 0000.0001)  Levels:       1.   2.   3.   4.   5.   6.   7.   8.   9.  10.  11.  12.  13.  14.  15.  16.  17.  18.  19.  20.
(PID.TID 0000.0001)  Levels:      21.  22.  23.  24.  25.  26.  27.  28.  29.  30.
(PID.TID 0000.0001) DIAGNOSTICS_SET_POINTERS: done
(PID.TID 0000.0001) ------------------------------------------------------------
(PID.TID 0000.0001) DIAGSTATS_SET_REGIONS: define no region
(PID.TID 0000.0001) ------------------------------------------------------------
(PID.TID 0000.0001)   space allocated for all stats-diags:       0 levels
(PID.TID 0000.0001) DIAGSTATS_SET_POINTERS: done
(PID.TID 0000.0001) ------------------------------------------------------------
(PID.TID 0000.0001) %MON fCori_max                    =  -1.3709057042516E-04
(PID.TID 0000.0001) %MON fCori_min                    =  -1.4360464034757E-04
(PID.TID 0000.0001) %MON fCori_mean                   =  -1.4069429304699E-04
(PID.TID 0000.0001) %MON fCori_sd                     =   1.9069739624987E-06
(PID.TID 0000.0001) %MON fCoriG_max                   =  -1.3713394327439E-04
(PID.TID 0000.0001) %MON fCoriG_min                   =  -1.4362679550910E-04
(PID.TID 0000.0001) %MON fCoriG_mean                  =  -1.4072713798624E-04
(PID.TID 0000.0001) %MON fCoriG_sd                    =   1.9008093726821E-06
(PID.TID 0000.0001) %MON fCoriCos_max                 =   4.9761447480159E-05
(PID.TID 0000.0001) %MON fCoriCos_min                 =   2.5450607565678E-05
(PID.TID 0000.0001) %MON fCoriCos_mean                =   3.7698922201606E-05
(PID.TID 0000.0001) %MON fCoriCos_sd                  =   7.0920218535054E-06
(PID.TID 0000.0001) INI_CG2D: CG2D normalisation factor =  8.6553958581495505E-04
(PID.TID 0000.0001) 
(PID.TID 0000.0001) // =======================================================
(PID.TID 0000.0001) // Model configuration
(PID.TID 0000.0001) // =======================================================
(PID.TID 0000.0001) //
(PID.TID 0000.0001) // "Physical" paramters ( PARM01 in namelist )
(PID.TID 0000.0001) //
(PID.TID 0000.0001) buoyancyRelation = /* Type of relation to get Buoyancy */
(PID.TID 0000.0001)               'OCEANIC'
(PID.TID 0000.0001)     ;
(PID.TID 0000.0001) fluidIsAir  =  /* fluid major constituent is Air */
(PID.TID 0000.0001)                   F
(PID.TID 0000.0001)     ;
(PID.TID 0000.0001) fluidIsWater=  /* fluid major constituent is Water */
(PID.TID 0000.0001)                   T
(PID.TID 0000.0001)     ;
(PID.TID 0000.0001) usingPCoords =  /* use p (or p*) vertical coordinate */
(PID.TID 0000.0001)                   F
(PID.TID 0000.0001)     ;
(PID.TID 0000.0001) usingZCoords =  /* use z (or z*) vertical coordinate */
(PID.TID 0000.0001)                   T
(PID.TID 0000.0001)     ;
(PID.TID 0000.0001) tRef =   /* Reference temperature profile ( oC or K ) */
(PID.TID 0000.0001)    30 @ -1.900000000000000E+00              /* K =  1: 30 */
(PID.TID 0000.0001)     ;
(PID.TID 0000.0001) sRef =   /* Reference salinity profile ( psu ) */
(PID.TID 0000.0001)    30 @  3.440000000000000E+01              /* K =  1: 30 */
(PID.TID 0000.0001)     ;
(PID.TID 0000.0001) viscAh =   /* Lateral eddy viscosity ( m^2/s ) */
(PID.TID 0000.0001)                 6.000000000000000E+02
(PID.TID 0000.0001)     ;
(PID.TID 0000.0001) viscAhMax =   /* Maximum lateral eddy viscosity ( m^2/s ) */
(PID.TID 0000.0001)                 1.000000000000000E+21
(PID.TID 0000.0001)     ;
(PID.TID 0000.0001) viscAhGrid =   /* Grid dependent lateral eddy viscosity ( non-dim. ) */
(PID.TID 0000.0001)                 0.000000000000000E+00
(PID.TID 0000.0001)     ;
(PID.TID 0000.0001) useFullLeith =   /* Use Full Form of Leith Viscosity on/off flag*/
(PID.TID 0000.0001)                   F
(PID.TID 0000.0001)     ;
(PID.TID 0000.0001) useStrainTensionVisc =   /* Use StrainTension Form of Viscous Operator on/off flag*/
(PID.TID 0000.0001)                   F
(PID.TID 0000.0001)     ;
(PID.TID 0000.0001) useAreaViscLength =   /* Use area for visc length instead of geom. mean*/
(PID.TID 0000.0001)                   F
(PID.TID 0000.0001)     ;
(PID.TID 0000.0001) viscC2leith = /* Leith harmonic visc. factor (on grad(vort),non-dim.) */
(PID.TID 0000.0001)                 0.000000000000000E+00
(PID.TID 0000.0001)     ;
(PID.TID 0000.0001) viscC2leithD = /* Leith harmonic viscosity factor (on grad(div),non-dim.) */
(PID.TID 0000.0001)                 0.000000000000000E+00
(PID.TID 0000.0001)     ;
(PID.TID 0000.0001) viscC2smag =   /* Smagorinsky harmonic viscosity factor (non-dim.) */
(PID.TID 0000.0001)                 0.000000000000000E+00
(PID.TID 0000.0001)     ;
(PID.TID 0000.0001) viscA4 =   /* Lateral biharmonic viscosity ( m^4/s ) */
(PID.TID 0000.0001)                 0.000000000000000E+00
(PID.TID 0000.0001)     ;
(PID.TID 0000.0001) viscA4Max =   /* Maximum biharmonic viscosity ( m^2/s ) */
(PID.TID 0000.0001)                 1.000000000000000E+21
(PID.TID 0000.0001)     ;
(PID.TID 0000.0001) viscA4Grid =   /* Grid dependent biharmonic viscosity ( non-dim. ) */
(PID.TID 0000.0001)                 0.000000000000000E+00
(PID.TID 0000.0001)     ;
(PID.TID 0000.0001) viscC4leith = /* Leith biharm viscosity factor (on grad(vort), non-dim.) */
(PID.TID 0000.0001)                 0.000000000000000E+00
(PID.TID 0000.0001)     ;
(PID.TID 0000.0001) viscC4leithD = /* Leith biharm viscosity factor (on grad(div), non-dim.) */
(PID.TID 0000.0001)                 0.000000000000000E+00
(PID.TID 0000.0001)     ;
(PID.TID 0000.0001) viscC4Smag = /* Smagorinsky biharm viscosity factor (non-dim) */
(PID.TID 0000.0001)                 0.000000000000000E+00
(PID.TID 0000.0001)     ;
(PID.TID 0000.0001) no_slip_sides =  /* Viscous BCs: No-slip sides */
(PID.TID 0000.0001)                   F
(PID.TID 0000.0001)     ;
(PID.TID 0000.0001) sideDragFactor = /* side-drag scaling factor (non-dim) */
(PID.TID 0000.0001)                 2.000000000000000E+00
(PID.TID 0000.0001)     ;
(PID.TID 0000.0001) viscArNr = /* vertical profile of vertical viscosity ( m^2/s )*/
(PID.TID 0000.0001)    30 @  1.000000000000000E-03              /* K =  1: 30 */
(PID.TID 0000.0001)     ;
(PID.TID 0000.0001) no_slip_bottom =  /* Viscous BCs: No-slip bottom */
(PID.TID 0000.0001)                   F
(PID.TID 0000.0001)     ;
(PID.TID 0000.0001) bottomDragLinear = /* linear bottom-drag coefficient ( m/s ) */
(PID.TID 0000.0001)                 0.000000000000000E+00
(PID.TID 0000.0001)     ;
(PID.TID 0000.0001) bottomDragQuadratic = /* quadratic bottom-drag coefficient (-) */
(PID.TID 0000.0001)                 2.500000000000000E-03
(PID.TID 0000.0001)     ;
(PID.TID 0000.0001) diffKhT =   /* Laplacian diffusion of heat laterally ( m^2/s ) */
(PID.TID 0000.0001)                 1.000000000000000E+02
(PID.TID 0000.0001)     ;
(PID.TID 0000.0001) diffK4T =   /* Biharmonic diffusion of heat laterally ( m^4/s ) */
(PID.TID 0000.0001)                 0.000000000000000E+00
(PID.TID 0000.0001)     ;
(PID.TID 0000.0001) diffKhS =   /* Laplacian diffusion of salt laterally ( m^2/s ) */
(PID.TID 0000.0001)                 1.000000000000000E+02
(PID.TID 0000.0001)     ;
(PID.TID 0000.0001) diffK4S =   /* Biharmonic diffusion of salt laterally ( m^4/s ) */
(PID.TID 0000.0001)                 0.000000000000000E+00
(PID.TID 0000.0001)     ;
(PID.TID 0000.0001) diffKrNrT = /* vertical profile of vertical diffusion of Temp ( m^2/s )*/
(PID.TID 0000.0001)    30 @  5.000000000000000E-05              /* K =  1: 30 */
(PID.TID 0000.0001)     ;
(PID.TID 0000.0001) diffKrNrS = /* vertical profile of vertical diffusion of Salt ( m^2/s )*/
(PID.TID 0000.0001)    30 @  5.000000000000000E-05              /* K =  1: 30 */
(PID.TID 0000.0001)     ;
(PID.TID 0000.0001) diffKrBL79surf = /* Surface diffusion for Bryan and Lewis 79 ( m^2/s ) */
(PID.TID 0000.0001)                 0.000000000000000E+00
(PID.TID 0000.0001)     ;
(PID.TID 0000.0001) diffKrBL79deep = /* Deep diffusion for Bryan and Lewis 1979 ( m^2/s ) */
(PID.TID 0000.0001)                 0.000000000000000E+00
(PID.TID 0000.0001)     ;
(PID.TID 0000.0001) diffKrBL79scl = /* Depth scale for Bryan and Lewis 1979 ( m ) */
(PID.TID 0000.0001)                 2.000000000000000E+02
(PID.TID 0000.0001)     ;
(PID.TID 0000.0001) diffKrBL79Ho = /* Turning depth for Bryan and Lewis 1979 ( m ) */
(PID.TID 0000.0001)                -2.000000000000000E+03
(PID.TID 0000.0001)     ;
(PID.TID 0000.0001) ivdc_kappa = /* Implicit Vertical Diffusivity for Convection ( m^2/s ) */
(PID.TID 0000.0001)                 0.000000000000000E+00
(PID.TID 0000.0001)     ;
(PID.TID 0000.0001) hMixCriteria=  /* Criteria for mixed-layer diagnostic */
(PID.TID 0000.0001)                -8.000000000000000E-01
(PID.TID 0000.0001)     ;
(PID.TID 0000.0001) dRhoSmall=  /* Parameter for mixed-layer diagnostic */
(PID.TID 0000.0001)                 1.000000000000000E-06
(PID.TID 0000.0001)     ;
(PID.TID 0000.0001) hMixSmooth=  /* Smoothing parameter for mixed-layer diagnostic */
(PID.TID 0000.0001)                 0.000000000000000E+00
(PID.TID 0000.0001)     ;
(PID.TID 0000.0001) eosType =  /* Type of Equation of State */
(PID.TID 0000.0001)               'JMD95Z'
(PID.TID 0000.0001)     ;
(PID.TID 0000.0001) tAlpha =   /* Linear EOS thermal expansion coefficient ( 1/oC ) */
(PID.TID 0000.0001)                 1.234567000000000E+05
(PID.TID 0000.0001)     ;
(PID.TID 0000.0001) sBeta =   /* Linear EOS haline contraction coefficient ( 1/psu ) */
(PID.TID 0000.0001)                 1.234567000000000E+05
(PID.TID 0000.0001)     ;
(PID.TID 0000.0001) rhonil =   /* Reference density ( kg/m^3 ) */
(PID.TID 0000.0001)                 1.030000000000000E+03
(PID.TID 0000.0001)     ;
(PID.TID 0000.0001) rhoConst =   /* Reference density ( kg/m^3 ) */
(PID.TID 0000.0001)                 1.030000000000000E+03
(PID.TID 0000.0001)     ;
(PID.TID 0000.0001) rhoFacC = /* normalized Reference density @ cell-Center (-) */
(PID.TID 0000.0001)    30 @  1.000000000000000E+00              /* K =  1: 30 */
(PID.TID 0000.0001)     ;
(PID.TID 0000.0001) rhoFacF = /* normalized Reference density @ W-Interface (-) */
(PID.TID 0000.0001)    31 @  1.000000000000000E+00              /* K =  1: 31 */
(PID.TID 0000.0001)     ;
(PID.TID 0000.0001) rhoConstFresh =   /* Reference density ( kg/m^3 ) */
(PID.TID 0000.0001)                 1.030000000000000E+03
(PID.TID 0000.0001)     ;
(PID.TID 0000.0001) gravity =   /* Gravitational acceleration ( m/s^2 ) */
(PID.TID 0000.0001)                 9.810000000000000E+00
(PID.TID 0000.0001)     ;
(PID.TID 0000.0001) gBaro =   /* Barotropic gravity ( m/s^2 ) */
(PID.TID 0000.0001)                 9.810000000000000E+00
(PID.TID 0000.0001)     ;
(PID.TID 0000.0001) rotationPeriod =   /* Rotation Period ( s ) */
(PID.TID 0000.0001)                 8.616400000000000E+04
(PID.TID 0000.0001)     ;
(PID.TID 0000.0001) omega =   /* Angular velocity ( rad/s ) */
(PID.TID 0000.0001)                 7.292123516990375E-05
(PID.TID 0000.0001)     ;
(PID.TID 0000.0001) f0 =   /* Reference coriolis parameter ( 1/s ) */
(PID.TID 0000.0001)                 1.000000000000000E-04
(PID.TID 0000.0001)     ;
(PID.TID 0000.0001) beta =   /* Beta ( 1/(m.s) ) */
(PID.TID 0000.0001)                 9.999999999999999E-12
(PID.TID 0000.0001)     ;
(PID.TID 0000.0001) freeSurfFac =   /* Implicit free surface factor */
(PID.TID 0000.0001)                 1.000000000000000E+00
(PID.TID 0000.0001)     ;
(PID.TID 0000.0001) implicitFreeSurface =   /* Implicit free surface on/off flag */
(PID.TID 0000.0001)                   T
(PID.TID 0000.0001)     ;
(PID.TID 0000.0001) rigidLid =   /* Rigid lid on/off flag */
(PID.TID 0000.0001)                   F
(PID.TID 0000.0001)     ;
(PID.TID 0000.0001) implicSurfPress =   /* Surface Pressure implicit factor (0-1)*/
(PID.TID 0000.0001)                 1.000000000000000E+00
(PID.TID 0000.0001)     ;
(PID.TID 0000.0001) implicDiv2Dflow =   /* Barot. Flow Div. implicit factor (0-1)*/
(PID.TID 0000.0001)                 1.000000000000000E+00
(PID.TID 0000.0001)     ;
(PID.TID 0000.0001) exactConserv =   /* Exact Volume Conservation on/off flag*/
(PID.TID 0000.0001)                   T
(PID.TID 0000.0001)     ;
(PID.TID 0000.0001) linFSConserveTr =   /* Tracer correction for Lin Free Surface on/off flag*/
(PID.TID 0000.0001)                   F
(PID.TID 0000.0001)     ;
(PID.TID 0000.0001) uniformLin_PhiSurf =   /* use uniform Bo_surf on/off flag*/
(PID.TID 0000.0001)                   T
(PID.TID 0000.0001)     ;
(PID.TID 0000.0001) nonlinFreeSurf =   /* Non-linear Free Surf. options (-1,0,1,2,3)*/
(PID.TID 0000.0001)                       0
(PID.TID 0000.0001)     ;
(PID.TID 0000.0001)      -1,0= Off ; 1,2,3= On, 2=+rescale gU,gV, 3=+update cg2d solv.
(PID.TID 0000.0001) hFacInf =   /* lower threshold for hFac (nonlinFreeSurf only)*/
(PID.TID 0000.0001)                 2.000000000000000E-01
(PID.TID 0000.0001)     ;
(PID.TID 0000.0001) hFacSup =   /* upper threshold for hFac (nonlinFreeSurf only)*/
(PID.TID 0000.0001)                 2.000000000000000E+00
(PID.TID 0000.0001)     ;
(PID.TID 0000.0001) select_rStar = /* r* Vertical coord. options (=0 r coord.; > 0 uses r*) */
(PID.TID 0000.0001)                       0
(PID.TID 0000.0001)     ;
(PID.TID 0000.0001) selectAddFluid = /* option for mass source/sink of fluid (=0: off) */
(PID.TID 0000.0001)                       0
(PID.TID 0000.0001)     ;
(PID.TID 0000.0001) useRealFreshWaterFlux = /* Real Fresh Water Flux on/off flag*/
(PID.TID 0000.0001)                   F
(PID.TID 0000.0001)     ;
(PID.TID 0000.0001) temp_EvPrRn = /* Temp. of Evap/Prec/R (UNSET=use local T)(oC)*/
(PID.TID 0000.0001)                 1.234567000000000E+05
(PID.TID 0000.0001)     ;
(PID.TID 0000.0001) salt_EvPrRn = /* Salin. of Evap/Prec/R (UNSET=use local S)(ppt)*/
(PID.TID 0000.0001)                 0.000000000000000E+00
(PID.TID 0000.0001)     ;
(PID.TID 0000.0001) convertFW2Salt = /* convert F.W. Flux to Salt Flux (-1=use local S)(ppt)*/
(PID.TID 0000.0001)                 3.340000000000000E+01
(PID.TID 0000.0001)     ;
(PID.TID 0000.0001) use3Dsolver = /* use 3-D pressure solver on/off flag */
(PID.TID 0000.0001)                   F
(PID.TID 0000.0001)     ;
(PID.TID 0000.0001) nonHydrostatic =  /* Non-Hydrostatic on/off flag */
(PID.TID 0000.0001)                   F
(PID.TID 0000.0001)     ;
(PID.TID 0000.0001) nh_Am2 = /* Non-Hydrostatic terms scaling factor */
(PID.TID 0000.0001)                 1.000000000000000E+00
(PID.TID 0000.0001)     ;
(PID.TID 0000.0001) implicitNHPress = /* Non-Hyd Pressure implicit factor (0-1)*/
(PID.TID 0000.0001)                 1.000000000000000E+00
(PID.TID 0000.0001)     ;
(PID.TID 0000.0001) selectNHfreeSurf = /* Non-Hyd (free-)Surface option */
(PID.TID 0000.0001)                       0
(PID.TID 0000.0001)     ;
(PID.TID 0000.0001) quasiHydrostatic = /* Quasi-Hydrostatic on/off flag */
(PID.TID 0000.0001)                   F
(PID.TID 0000.0001)     ;
(PID.TID 0000.0001) momStepping =  /* Momentum equation on/off flag */
(PID.TID 0000.0001)                   T
(PID.TID 0000.0001)     ;
(PID.TID 0000.0001) vectorInvariantMomentum= /* Vector-Invariant Momentum on/off */
(PID.TID 0000.0001)                   F
(PID.TID 0000.0001)     ;
(PID.TID 0000.0001) momAdvection =  /* Momentum advection on/off flag */
(PID.TID 0000.0001)                   T
(PID.TID 0000.0001)     ;
(PID.TID 0000.0001) momViscosity =  /* Momentum viscosity on/off flag */
(PID.TID 0000.0001)                   T
(PID.TID 0000.0001)     ;
(PID.TID 0000.0001) momImplVertAdv =/* Momentum implicit vert. advection on/off*/
(PID.TID 0000.0001)                   F
(PID.TID 0000.0001)     ;
(PID.TID 0000.0001) implicitViscosity = /* Implicit viscosity on/off flag */
(PID.TID 0000.0001)                   F
(PID.TID 0000.0001)     ;
(PID.TID 0000.0001) metricTerms =  /* metric-Terms on/off flag */
(PID.TID 0000.0001)                   T
(PID.TID 0000.0001)     ;
(PID.TID 0000.0001) useNHMTerms = /* Non-Hydrostatic Metric-Terms on/off */
(PID.TID 0000.0001)                   F
(PID.TID 0000.0001)     ;
(PID.TID 0000.0001) useConstantF =  /* use Constant f0 Coriolis flag */
(PID.TID 0000.0001)                   F
(PID.TID 0000.0001)     ;
(PID.TID 0000.0001) useBetaPlaneF = /* use Beta-Plane Coriolis flag */
(PID.TID 0000.0001)                   F
(PID.TID 0000.0001)     ;
(PID.TID 0000.0001) useSphereF  =   /* use Spherical Coriolis flag */
(PID.TID 0000.0001)                   T
(PID.TID 0000.0001)     ;
(PID.TID 0000.0001) use3dCoriolis = /* 3-D Coriolis on/off flag */
(PID.TID 0000.0001)                   F
(PID.TID 0000.0001)     ;
(PID.TID 0000.0001) useCoriolis =  /* Coriolis on/off flag */
(PID.TID 0000.0001)                   T
(PID.TID 0000.0001)     ;
(PID.TID 0000.0001) useCDscheme =  /* CD scheme on/off flag */
(PID.TID 0000.0001)                   T
(PID.TID 0000.0001)     ;
(PID.TID 0000.0001) useJamartWetPoints= /* Coriolis WetPoints method flag */
(PID.TID 0000.0001)                   F
(PID.TID 0000.0001)     ;
(PID.TID 0000.0001) useJamartMomAdv= /* V.I. Non-linear terms Jamart flag */
(PID.TID 0000.0001)                   F
(PID.TID 0000.0001)     ;
(PID.TID 0000.0001) useAbsVorticity= /* Work with f+zeta in Coriolis */
(PID.TID 0000.0001)                   F
(PID.TID 0000.0001)     ;
(PID.TID 0000.0001) selectVortScheme= /* Scheme selector for Vorticity-Term */
(PID.TID 0000.0001)               123456789
(PID.TID 0000.0001)    = 0 : enstrophy (Shallow-Water Eq.) conserving scheme by Sadourny, JAS 75
(PID.TID 0000.0001)    = 1 : same as 0 with modified hFac
(PID.TID 0000.0001)    = 2 : energy conserving scheme (used by Sadourny in JAS 75 paper)
(PID.TID 0000.0001)    = 3 : energy (general) and enstrophy (2D, nonDiv.) conserving scheme
(PID.TID 0000.0001)          from Sadourny (Burridge & Haseler, ECMWF Rep.4, 1977)
(PID.TID 0000.0001)     ;
(PID.TID 0000.0001) upwindVorticity= /* Upwind bias vorticity flag */
(PID.TID 0000.0001)                   F
(PID.TID 0000.0001)     ;
(PID.TID 0000.0001) highOrderVorticity= /* High order interp. of vort. flag */
(PID.TID 0000.0001)                   F
(PID.TID 0000.0001)     ;
(PID.TID 0000.0001) upwindShear= /* Upwind vertical Shear advection flag */
(PID.TID 0000.0001)                   F
(PID.TID 0000.0001)     ;
(PID.TID 0000.0001) selectKEscheme= /* Kinetic Energy scheme selector */
(PID.TID 0000.0001)                       0
(PID.TID 0000.0001)     ;
(PID.TID 0000.0001) momForcing =  /* Momentum forcing on/off flag */
(PID.TID 0000.0001)                   T
(PID.TID 0000.0001)     ;
(PID.TID 0000.0001) momPressureForcing =  /* Momentum pressure term on/off flag */
(PID.TID 0000.0001)                   T
(PID.TID 0000.0001)     ;
(PID.TID 0000.0001) implicitIntGravWave= /* Implicit Internal Gravity Wave flag */
(PID.TID 0000.0001)                   F
(PID.TID 0000.0001)     ;
(PID.TID 0000.0001) staggerTimeStep =   /* Stagger time stepping on/off flag */
(PID.TID 0000.0001)                   F
(PID.TID 0000.0001)     ;
(PID.TID 0000.0001) multiDimAdvection =   /* enable/disable Multi-Dim Advection */
(PID.TID 0000.0001)                   T
(PID.TID 0000.0001)     ;
(PID.TID 0000.0001) useMultiDimAdvec =   /* Multi-Dim Advection is/is-not used */
(PID.TID 0000.0001)                   F
(PID.TID 0000.0001)     ;
(PID.TID 0000.0001) implicitDiffusion =/* Implicit Diffusion on/off flag */
(PID.TID 0000.0001)                   F
(PID.TID 0000.0001)     ;
(PID.TID 0000.0001) tempStepping =  /* Temperature equation on/off flag */
(PID.TID 0000.0001)                   T
(PID.TID 0000.0001)     ;
(PID.TID 0000.0001) tempAdvection=  /* Temperature advection on/off flag */
(PID.TID 0000.0001)                   T
(PID.TID 0000.0001)     ;
(PID.TID 0000.0001) tempImplVertAdv =/* Temp. implicit vert. advection on/off */
(PID.TID 0000.0001)                   F
(PID.TID 0000.0001)     ;
(PID.TID 0000.0001) tempForcing  =  /* Temperature forcing on/off flag */
(PID.TID 0000.0001)                   T
(PID.TID 0000.0001)     ;
(PID.TID 0000.0001) tempIsActiveTr = /* Temp. is a dynamically Active Tracer */
(PID.TID 0000.0001)                   T
(PID.TID 0000.0001)     ;
(PID.TID 0000.0001) saltStepping =  /* Salinity equation on/off flag */
(PID.TID 0000.0001)                   T
(PID.TID 0000.0001)     ;
(PID.TID 0000.0001) saltAdvection=  /* Salinity advection on/off flag */
(PID.TID 0000.0001)                   T
(PID.TID 0000.0001)     ;
(PID.TID 0000.0001) saltImplVertAdv =/* Sali. implicit vert. advection on/off */
(PID.TID 0000.0001)                   F
(PID.TID 0000.0001)     ;
(PID.TID 0000.0001) saltForcing  =  /* Salinity forcing on/off flag */
(PID.TID 0000.0001)                   T
(PID.TID 0000.0001)     ;
(PID.TID 0000.0001) saltIsActiveTr = /* Salt  is a dynamically Active Tracer */
(PID.TID 0000.0001)                   T
(PID.TID 0000.0001)     ;
(PID.TID 0000.0001)  readBinaryPrec = /* Precision used for reading binary files */
(PID.TID 0000.0001)                      64
(PID.TID 0000.0001)     ;
(PID.TID 0000.0001) writeBinaryPrec = /* Precision used for writing binary files */
(PID.TID 0000.0001)                      32
(PID.TID 0000.0001)     ;
(PID.TID 0000.0001)  globalFiles = /* write "global" (=not per tile) files */
(PID.TID 0000.0001)                   F
(PID.TID 0000.0001)     ;
(PID.TID 0000.0001)  useSingleCpuIO = /* only master MPI process does I/O */
(PID.TID 0000.0001)                   F
(PID.TID 0000.0001)     ;
(PID.TID 0000.0001)  debugMode  =  /* Debug Mode on/off flag */
(PID.TID 0000.0001)                   F
(PID.TID 0000.0001)     ;
(PID.TID 0000.0001)    debLevA  =  /* 1rst level of debugging */
(PID.TID 0000.0001)                       1
(PID.TID 0000.0001)     ;
(PID.TID 0000.0001)    debLevB  =  /* 2nd  level of debugging */
(PID.TID 0000.0001)                       2
(PID.TID 0000.0001)     ;
(PID.TID 0000.0001)  debugLevel =  /* select debugging level */
(PID.TID 0000.0001)                       1
(PID.TID 0000.0001)     ;
(PID.TID 0000.0001) //
(PID.TID 0000.0001) // Elliptic solver(s) paramters ( PARM02 in namelist )
(PID.TID 0000.0001) //
(PID.TID 0000.0001) cg2dMaxIters =   /* Upper limit on 2d con. grad iterations  */
(PID.TID 0000.0001)                    1000
(PID.TID 0000.0001)     ;
(PID.TID 0000.0001) cg2dChkResFreq =   /* 2d con. grad convergence test frequency */
(PID.TID 0000.0001)                       1
(PID.TID 0000.0001)     ;
(PID.TID 0000.0001) cg2dTargetResidual =   /* 2d con. grad target residual  */
(PID.TID 0000.0001)                 1.000000000000000E-13
(PID.TID 0000.0001)     ;
(PID.TID 0000.0001) cg2dTargetResWunit =   /* CG2d target residual [W units] */
(PID.TID 0000.0001)                -1.000000000000000E+00
(PID.TID 0000.0001)     ;
(PID.TID 0000.0001) cg2dPreCondFreq =   /* Freq. for updating cg2d preconditioner */
(PID.TID 0000.0001)                       1
(PID.TID 0000.0001)     ;
(PID.TID 0000.0001) useSRCGSolver =  /* use single reduction CG solver(s) */
(PID.TID 0000.0001)                   F
(PID.TID 0000.0001)     ;
(PID.TID 0000.0001) //
(PID.TID 0000.0001) // Time stepping paramters ( PARM03 in namelist )
(PID.TID 0000.0001) //
(PID.TID 0000.0001) deltaTmom =   /* Momentum equation timestep ( s ) */
(PID.TID 0000.0001)                 1.800000000000000E+03
(PID.TID 0000.0001)     ;
(PID.TID 0000.0001) deltaTfreesurf = /* FreeSurface equation timestep ( s ) */
(PID.TID 0000.0001)                 1.800000000000000E+03
(PID.TID 0000.0001)     ;
(PID.TID 0000.0001) dTtracerLev =  /* Tracer equation timestep ( s ) */
(PID.TID 0000.0001)    30 @  1.800000000000000E+03              /* K =  1: 30 */
(PID.TID 0000.0001)     ;
(PID.TID 0000.0001) deltaTClock  =   /* Model clock timestep ( s ) */
(PID.TID 0000.0001)                 1.800000000000000E+03
(PID.TID 0000.0001)     ;
(PID.TID 0000.0001) cAdjFreq =   /* Convective adjustment interval ( s ) */
(PID.TID 0000.0001)                 1.800000000000000E+03
(PID.TID 0000.0001)     ;
(PID.TID 0000.0001) momForcingOutAB = /* =1: take Momentum Forcing out of Adams-Bash. stepping */
(PID.TID 0000.0001)                       0
(PID.TID 0000.0001)     ;
(PID.TID 0000.0001) tracForcingOutAB = /* =1: take T,S,pTr Forcing out of Adams-Bash. stepping */
(PID.TID 0000.0001)                       0
(PID.TID 0000.0001)     ;
(PID.TID 0000.0001) momDissip_In_AB = /* put Dissipation Tendency in Adams-Bash. stepping */
(PID.TID 0000.0001)                   T
(PID.TID 0000.0001)     ;
(PID.TID 0000.0001) doAB_onGtGs = /* apply AB on Tendencies (rather than on T,S)*/
(PID.TID 0000.0001)                   T
(PID.TID 0000.0001)     ;
(PID.TID 0000.0001) abEps =   /* Adams-Bashforth-2 stabilizing weight */
(PID.TID 0000.0001)                 1.000000000000000E-01
(PID.TID 0000.0001)     ;
(PID.TID 0000.0001) tauCD =   /* CD coupling time-scale ( s ) */
(PID.TID 0000.0001)                 4.000000000000000E+05
(PID.TID 0000.0001)     ;
(PID.TID 0000.0001) rCD =   /* Normalised CD coupling parameter */
(PID.TID 0000.0001)                 9.955000000000001E-01
(PID.TID 0000.0001)     ;
(PID.TID 0000.0001) epsAB_CD = /* AB-2 stabilizing weight for CD-scheme*/
(PID.TID 0000.0001)                 1.000000000000000E-01
(PID.TID 0000.0001)     ;
(PID.TID 0000.0001) pickupStrictlyMatch= /* stop if pickup do not strictly match */
(PID.TID 0000.0001)                   T
(PID.TID 0000.0001)     ;
(PID.TID 0000.0001) nIter0 =   /* Run starting timestep number  */
(PID.TID 0000.0001)                       0
(PID.TID 0000.0001)     ;
(PID.TID 0000.0001) nTimeSteps =   /* Number of timesteps */
(PID.TID 0000.0001)                      20
(PID.TID 0000.0001)     ;
(PID.TID 0000.0001) baseTime =   /* Model base time ( s ). */
(PID.TID 0000.0001)                 0.000000000000000E+00
(PID.TID 0000.0001)     ;
(PID.TID 0000.0001) startTime =   /* Run start time ( s ). */
(PID.TID 0000.0001)                 0.000000000000000E+00
(PID.TID 0000.0001)     ;
(PID.TID 0000.0001) endTime =   /* Integration ending time ( s ). */
(PID.TID 0000.0001)                 3.600000000000000E+04
(PID.TID 0000.0001)     ;
(PID.TID 0000.0001) pChkPtFreq =   /* Permanent restart/checkpoint file interval ( s ). */
(PID.TID 0000.0001)                 0.000000000000000E+00
(PID.TID 0000.0001)     ;
(PID.TID 0000.0001) chkPtFreq =   /* Rolling restart/checkpoint file interval ( s ). */
(PID.TID 0000.0001)                 0.000000000000000E+00
(PID.TID 0000.0001)     ;
(PID.TID 0000.0001) pickup_write_mdsio =   /* Model IO flag. */
(PID.TID 0000.0001)                   T
(PID.TID 0000.0001)     ;
(PID.TID 0000.0001) pickup_read_mdsio =   /* Model IO flag. */
(PID.TID 0000.0001)                   T
(PID.TID 0000.0001)     ;
(PID.TID 0000.0001) pickup_write_mnc =   /* Model IO flag. */
(PID.TID 0000.0001)                   F
(PID.TID 0000.0001)     ;
(PID.TID 0000.0001) pickup_read_mnc =   /* Model IO flag. */
(PID.TID 0000.0001)                   F
(PID.TID 0000.0001)     ;
(PID.TID 0000.0001) pickup_write_immed =   /* Model IO flag. */
(PID.TID 0000.0001)                   F
(PID.TID 0000.0001)     ;
(PID.TID 0000.0001) writePickupAtEnd =   /* Model IO flag. */
(PID.TID 0000.0001)                   T
(PID.TID 0000.0001)     ;
(PID.TID 0000.0001) dumpFreq =   /* Model state write out interval ( s ). */
(PID.TID 0000.0001)                 0.000000000000000E+00
(PID.TID 0000.0001)     ;
(PID.TID 0000.0001) dumpInitAndLast= /* write out Initial & Last iter. model state */
(PID.TID 0000.0001)                   T
(PID.TID 0000.0001)     ;
(PID.TID 0000.0001) snapshot_mdsio =   /* Model IO flag. */
(PID.TID 0000.0001)                   T
(PID.TID 0000.0001)     ;
(PID.TID 0000.0001) snapshot_mnc =   /* Model IO flag. */
(PID.TID 0000.0001)                   F
(PID.TID 0000.0001)     ;
(PID.TID 0000.0001) monitorFreq =   /* Monitor output interval ( s ). */
(PID.TID 0000.0001)                 1.000000000000000E+00
(PID.TID 0000.0001)     ;
(PID.TID 0000.0001) monitorSelect = /* select group of variables to monitor */
(PID.TID 0000.0001)                       2
(PID.TID 0000.0001)     ;
(PID.TID 0000.0001) monitor_stdio =   /* Model IO flag. */
(PID.TID 0000.0001)                   T
(PID.TID 0000.0001)     ;
(PID.TID 0000.0001) monitor_mnc =   /* Model IO flag. */
(PID.TID 0000.0001)                   F
(PID.TID 0000.0001)     ;
(PID.TID 0000.0001) externForcingPeriod =   /* forcing period (s) */
(PID.TID 0000.0001)                 0.000000000000000E+00
(PID.TID 0000.0001)     ;
(PID.TID 0000.0001) externForcingCycle =   /* period of the cyle (s). */
(PID.TID 0000.0001)                 0.000000000000000E+00
(PID.TID 0000.0001)     ;
(PID.TID 0000.0001) tauThetaClimRelax =   /* relaxation time scale (s) */
(PID.TID 0000.0001)                 0.000000000000000E+00
(PID.TID 0000.0001)     ;
(PID.TID 0000.0001) tauSaltClimRelax =   /* relaxation time scale (s) */
(PID.TID 0000.0001)                 0.000000000000000E+00
(PID.TID 0000.0001)     ;
(PID.TID 0000.0001) latBandClimRelax =   /* max. Lat. where relaxation */
(PID.TID 0000.0001)                 1.800000000000000E+02
(PID.TID 0000.0001)     ;
(PID.TID 0000.0001) //
(PID.TID 0000.0001) // Gridding paramters ( PARM04 in namelist )
(PID.TID 0000.0001) //
(PID.TID 0000.0001) usingCartesianGrid = /* Cartesian coordinates flag ( True/False ) */
(PID.TID 0000.0001)                   F
(PID.TID 0000.0001)     ;
(PID.TID 0000.0001) usingCylindricalGrid = /* Cylindrical coordinates flag ( True/False ) */
(PID.TID 0000.0001)                   F
(PID.TID 0000.0001)     ;
(PID.TID 0000.0001) usingSphericalPolarGrid = /* Spherical coordinates flag ( True/False ) */
(PID.TID 0000.0001)                   T
(PID.TID 0000.0001)     ;
(PID.TID 0000.0001) usingCurvilinearGrid = /* Curvilinear coordinates flag ( True/False ) */
(PID.TID 0000.0001)                   F
(PID.TID 0000.0001)     ;
(PID.TID 0000.0001) Ro_SeaLevel = /* r(1) ( units of r ==  m ) */
(PID.TID 0000.0001)                 0.000000000000000E+00
(PID.TID 0000.0001)     ;
(PID.TID 0000.0001) rkSign =   /* index orientation relative to vertical coordinate */
(PID.TID 0000.0001)                -1.000000000000000E+00
(PID.TID 0000.0001)     ;
(PID.TID 0000.0001) gravitySign = /* gravity orientation relative to vertical coordinate */
(PID.TID 0000.0001)                -1.000000000000000E+00
(PID.TID 0000.0001)     ;
(PID.TID 0000.0001) mass2rUnit = /* convert mass per unit area [kg/m2] to r-units [m] */
(PID.TID 0000.0001)                 9.708737864077669E-04
(PID.TID 0000.0001)     ;
(PID.TID 0000.0001) rUnit2mass = /* convert r-units [m] to mass per unit area [kg/m2] */
(PID.TID 0000.0001)                 1.030000000000000E+03
(PID.TID 0000.0001)     ;
(PID.TID 0000.0001) drC =   /* C spacing ( units of r ) */
(PID.TID 0000.0001)                 1.500000000000000E+01,      /* K =  1 */
(PID.TID 0000.0001)    29 @  3.000000000000000E+01              /* K =  2: 30 */
(PID.TID 0000.0001)     ;
(PID.TID 0000.0001) drF =   /* W spacing ( units of r ) */
(PID.TID 0000.0001)    30 @  3.000000000000000E+01              /* K =  1: 30 */
(PID.TID 0000.0001)     ;
(PID.TID 0000.0001) delX = /* U spacing ( m - cartesian, degrees - spherical ) */
(PID.TID 0000.0001)    50 @  3.000000000000000E-01              /* I =  1: 50 */
(PID.TID 0000.0001)     ;
(PID.TID 0000.0001) delY = /* V spacing ( m - cartesian, degrees - spherical ) */
(PID.TID 0000.0001)   100 @  1.000000000000000E-01              /* J =  1:100 */
(PID.TID 0000.0001)     ;
(PID.TID 0000.0001) xgOrigin = /* X-axis origin of West  edge (cartesian: m, lat-lon: deg.) */
(PID.TID 0000.0001)                 0.000000000000000E+00
(PID.TID 0000.0001)     ;
(PID.TID 0000.0001) ygOrigin = /* Y-axis origin of South edge (cartesian: m, lat-lon: deg.) */
(PID.TID 0000.0001)                -8.000000000000000E+01
(PID.TID 0000.0001)     ;
(PID.TID 0000.0001) rSphere =  /* Radius ( ignored - cartesian, m - spherical ) */
(PID.TID 0000.0001)                 6.370000000000000E+06
(PID.TID 0000.0001)     ;
(PID.TID 0000.0001) deepAtmosphere = /* Deep/Shallow Atmosphere flag (True/False) */
(PID.TID 0000.0001)                   F
(PID.TID 0000.0001)     ;
(PID.TID 0000.0001) xC =  /* xC(:,1,:,1) : P-point X coord ( deg. or m if cartesian) */
(PID.TID 0000.0001)                 1.500000000000001E-01,      /* I =  1 */
(PID.TID 0000.0001)                 4.500000000000001E-01,      /* I =  2 */
(PID.TID 0000.0001)                 7.500000000000002E-01,      /* I =  3 */
(PID.TID 0000.0001)                 1.050000000000000E+00,      /* I =  4 */
(PID.TID 0000.0001)                 1.350000000000000E+00,      /* I =  5 */
(PID.TID 0000.0001)                 1.650000000000000E+00,      /* I =  6 */
(PID.TID 0000.0001)                 1.950000000000000E+00,      /* I =  7 */
(PID.TID 0000.0001)                 2.250000000000000E+00,      /* I =  8 */
(PID.TID 0000.0001)                 2.550000000000000E+00,      /* I =  9 */
(PID.TID 0000.0001)                 2.850000000000000E+00,      /* I = 10 */
(PID.TID 0000.0001)                 3.149999999999999E+00,      /* I = 11 */
(PID.TID 0000.0001)                 3.449999999999999E+00,      /* I = 12 */
(PID.TID 0000.0001)                 3.749999999999999E+00,      /* I = 13 */
(PID.TID 0000.0001)                 4.049999999999999E+00,      /* I = 14 */
(PID.TID 0000.0001)                 4.350000000000000E+00,      /* I = 15 */
(PID.TID 0000.0001)                 4.649999999999999E+00,      /* I = 16 */
(PID.TID 0000.0001)                 4.949999999999999E+00,      /* I = 17 */
(PID.TID 0000.0001)                 5.249999999999998E+00,      /* I = 18 */
(PID.TID 0000.0001)                 5.549999999999999E+00,      /* I = 19 */
(PID.TID 0000.0001)                 5.849999999999998E+00,      /* I = 20 */
(PID.TID 0000.0001)                 6.149999999999999E+00,      /* I = 21 */
(PID.TID 0000.0001)                 6.449999999999998E+00,      /* I = 22 */
(PID.TID 0000.0001)                 6.749999999999998E+00,      /* I = 23 */
(PID.TID 0000.0001)                 7.049999999999997E+00,      /* I = 24 */
(PID.TID 0000.0001)                 7.349999999999997E+00,      /* I = 25 */
(PID.TID 0000.0001)                 7.649999999999997E+00,      /* I = 26 */
(PID.TID 0000.0001)                 7.949999999999998E+00,      /* I = 27 */
(PID.TID 0000.0001)                 8.249999999999998E+00,      /* I = 28 */
(PID.TID 0000.0001)                 8.549999999999999E+00,      /* I = 29 */
(PID.TID 0000.0001)                 8.850000000000000E+00,      /* I = 30 */
(PID.TID 0000.0001)                 9.150000000000000E+00,      /* I = 31 */
(PID.TID 0000.0001)                 9.450000000000001E+00,      /* I = 32 */
(PID.TID 0000.0001)                 9.750000000000002E+00,      /* I = 33 */
(PID.TID 0000.0001)                 1.005000000000000E+01,      /* I = 34 */
(PID.TID 0000.0001)                 1.035000000000000E+01,      /* I = 35 */
(PID.TID 0000.0001)                 1.065000000000000E+01,      /* I = 36 */
(PID.TID 0000.0001)                 1.095000000000001E+01,      /* I = 37 */
(PID.TID 0000.0001)                 1.125000000000001E+01,      /* I = 38 */
(PID.TID 0000.0001)                 1.155000000000000E+01,      /* I = 39 */
(PID.TID 0000.0001)                 1.185000000000001E+01,      /* I = 40 */
(PID.TID 0000.0001)                 1.215000000000001E+01,      /* I = 41 */
(PID.TID 0000.0001)                 1.245000000000001E+01,      /* I = 42 */
(PID.TID 0000.0001)                 1.275000000000001E+01,      /* I = 43 */
(PID.TID 0000.0001)                 1.305000000000001E+01,      /* I = 44 */
(PID.TID 0000.0001)                 1.335000000000001E+01,      /* I = 45 */
(PID.TID 0000.0001)                 1.365000000000001E+01,      /* I = 46 */
(PID.TID 0000.0001)                 1.395000000000001E+01,      /* I = 47 */
(PID.TID 0000.0001)                 1.425000000000001E+01,      /* I = 48 */
(PID.TID 0000.0001)                 1.455000000000001E+01,      /* I = 49 */
(PID.TID 0000.0001)                 1.485000000000001E+01       /* I = 50 */
(PID.TID 0000.0001)     ;
(PID.TID 0000.0001) yC =  /* yC(1,:,1,:) : P-point Y coord ( deg. or m if cartesian) */
(PID.TID 0000.0001)                -7.995000000000000E+01,      /* J =  1 */
(PID.TID 0000.0001)                -7.985000000000001E+01,      /* J =  2 */
(PID.TID 0000.0001)                -7.975000000000001E+01,      /* J =  3 */
(PID.TID 0000.0001)      . . .
(PID.TID 0000.0001)                -7.775000000000013E+01,      /* J = 23 */
(PID.TID 0000.0001)                -7.765000000000013E+01,      /* J = 24 */
(PID.TID 0000.0001)                -7.755000000000014E+01,      /* J = 25 */
(PID.TID 0000.0001)                -7.745000000000014E+01,      /* J = 26 */
(PID.TID 0000.0001)                -7.735000000000015E+01,      /* J = 27 */
(PID.TID 0000.0001)                -7.725000000000016E+01,      /* J = 28 */
(PID.TID 0000.0001)      . . .
(PID.TID 0000.0001)                -7.525000000000027E+01,      /* J = 48 */
(PID.TID 0000.0001)                -7.515000000000028E+01,      /* J = 49 */
(PID.TID 0000.0001)                -7.505000000000028E+01,      /* J = 50 */
(PID.TID 0000.0001)                -7.495000000000029E+01,      /* J = 51 */
(PID.TID 0000.0001)                -7.485000000000029E+01,      /* J = 52 */
(PID.TID 0000.0001)                -7.475000000000030E+01,      /* J = 53 */
(PID.TID 0000.0001)      . . .
(PID.TID 0000.0001)                -7.275000000000041E+01,      /* J = 73 */
(PID.TID 0000.0001)                -7.265000000000042E+01,      /* J = 74 */
(PID.TID 0000.0001)                -7.255000000000042E+01,      /* J = 75 */
(PID.TID 0000.0001)                -7.245000000000043E+01,      /* J = 76 */
(PID.TID 0000.0001)                -7.235000000000043E+01,      /* J = 77 */
(PID.TID 0000.0001)                -7.225000000000044E+01,      /* J = 78 */
(PID.TID 0000.0001)      . . .
(PID.TID 0000.0001)                -7.025000000000055E+01,      /* J = 98 */
(PID.TID 0000.0001)                -7.015000000000056E+01,      /* J = 99 */
(PID.TID 0000.0001)                -7.005000000000057E+01       /* J =100 */
(PID.TID 0000.0001)     ;
(PID.TID 0000.0001) rcoord = /* P-point R coordinate (  units of r ) */
(PID.TID 0000.0001)                -1.500000000000000E+01,      /* K =  1 */
(PID.TID 0000.0001)                -4.500000000000000E+01,      /* K =  2 */
(PID.TID 0000.0001)                -7.500000000000000E+01,      /* K =  3 */
(PID.TID 0000.0001)                -1.050000000000000E+02,      /* K =  4 */
(PID.TID 0000.0001)                -1.350000000000000E+02,      /* K =  5 */
(PID.TID 0000.0001)                -1.650000000000000E+02,      /* K =  6 */
(PID.TID 0000.0001)                -1.950000000000000E+02,      /* K =  7 */
(PID.TID 0000.0001)                -2.250000000000000E+02,      /* K =  8 */
(PID.TID 0000.0001)                -2.550000000000000E+02,      /* K =  9 */
(PID.TID 0000.0001)                -2.850000000000000E+02,      /* K = 10 */
(PID.TID 0000.0001)                -3.150000000000000E+02,      /* K = 11 */
(PID.TID 0000.0001)                -3.450000000000000E+02,      /* K = 12 */
(PID.TID 0000.0001)                -3.750000000000000E+02,      /* K = 13 */
(PID.TID 0000.0001)                -4.050000000000000E+02,      /* K = 14 */
(PID.TID 0000.0001)                -4.350000000000000E+02,      /* K = 15 */
(PID.TID 0000.0001)                -4.650000000000000E+02,      /* K = 16 */
(PID.TID 0000.0001)                -4.950000000000000E+02,      /* K = 17 */
(PID.TID 0000.0001)                -5.250000000000000E+02,      /* K = 18 */
(PID.TID 0000.0001)                -5.550000000000000E+02,      /* K = 19 */
(PID.TID 0000.0001)                -5.850000000000000E+02,      /* K = 20 */
(PID.TID 0000.0001)                -6.150000000000000E+02,      /* K = 21 */
(PID.TID 0000.0001)                -6.450000000000000E+02,      /* K = 22 */
(PID.TID 0000.0001)                -6.750000000000000E+02,      /* K = 23 */
(PID.TID 0000.0001)                -7.050000000000000E+02,      /* K = 24 */
(PID.TID 0000.0001)                -7.350000000000000E+02,      /* K = 25 */
(PID.TID 0000.0001)                -7.650000000000000E+02,      /* K = 26 */
(PID.TID 0000.0001)                -7.950000000000000E+02,      /* K = 27 */
(PID.TID 0000.0001)                -8.250000000000000E+02,      /* K = 28 */
(PID.TID 0000.0001)                -8.550000000000000E+02,      /* K = 29 */
(PID.TID 0000.0001)                -8.850000000000000E+02       /* K = 30 */
(PID.TID 0000.0001)     ;
(PID.TID 0000.0001) rF =   /* W-Interf. R coordinate (  units of r ) */
(PID.TID 0000.0001)                 0.000000000000000E+00,      /* K =  1 */
(PID.TID 0000.0001)                -3.000000000000000E+01,      /* K =  2 */
(PID.TID 0000.0001)                -6.000000000000000E+01,      /* K =  3 */
(PID.TID 0000.0001)                -9.000000000000000E+01,      /* K =  4 */
(PID.TID 0000.0001)                -1.200000000000000E+02,      /* K =  5 */
(PID.TID 0000.0001)                -1.500000000000000E+02,      /* K =  6 */
(PID.TID 0000.0001)                -1.800000000000000E+02,      /* K =  7 */
(PID.TID 0000.0001)                -2.100000000000000E+02,      /* K =  8 */
(PID.TID 0000.0001)                -2.400000000000000E+02,      /* K =  9 */
(PID.TID 0000.0001)                -2.700000000000000E+02,      /* K = 10 */
(PID.TID 0000.0001)                -3.000000000000000E+02,      /* K = 11 */
(PID.TID 0000.0001)                -3.300000000000000E+02,      /* K = 12 */
(PID.TID 0000.0001)                -3.600000000000000E+02,      /* K = 13 */
(PID.TID 0000.0001)                -3.900000000000000E+02,      /* K = 14 */
(PID.TID 0000.0001)                -4.200000000000000E+02,      /* K = 15 */
(PID.TID 0000.0001)                -4.500000000000000E+02,      /* K = 16 */
(PID.TID 0000.0001)                -4.800000000000000E+02,      /* K = 17 */
(PID.TID 0000.0001)                -5.100000000000000E+02,      /* K = 18 */
(PID.TID 0000.0001)                -5.400000000000000E+02,      /* K = 19 */
(PID.TID 0000.0001)                -5.700000000000000E+02,      /* K = 20 */
(PID.TID 0000.0001)                -6.000000000000000E+02,      /* K = 21 */
(PID.TID 0000.0001)                -6.300000000000000E+02,      /* K = 22 */
(PID.TID 0000.0001)                -6.600000000000000E+02,      /* K = 23 */
(PID.TID 0000.0001)                -6.900000000000000E+02,      /* K = 24 */
(PID.TID 0000.0001)                -7.200000000000000E+02,      /* K = 25 */
(PID.TID 0000.0001)                -7.500000000000000E+02,      /* K = 26 */
(PID.TID 0000.0001)                -7.800000000000000E+02,      /* K = 27 */
(PID.TID 0000.0001)                -8.100000000000000E+02,      /* K = 28 */
(PID.TID 0000.0001)                -8.400000000000000E+02,      /* K = 29 */
(PID.TID 0000.0001)                -8.700000000000000E+02,      /* K = 30 */
(PID.TID 0000.0001)                -9.000000000000000E+02       /* K = 31 */
(PID.TID 0000.0001)     ;
(PID.TID 0000.0001) deepFacC = /* deep-model grid factor @ cell-Center (-) */
(PID.TID 0000.0001)    30 @  1.000000000000000E+00              /* K =  1: 30 */
(PID.TID 0000.0001)     ;
(PID.TID 0000.0001) deepFacF = /* deep-model grid factor @ W-Interface (-) */
(PID.TID 0000.0001)    31 @  1.000000000000000E+00              /* K =  1: 31 */
(PID.TID 0000.0001)     ;
(PID.TID 0000.0001) rVel2wUnit = /* convert units: rVel -> wSpeed (=1 if z-coord)*/
(PID.TID 0000.0001)    31 @  1.000000000000000E+00              /* K =  1: 31 */
(PID.TID 0000.0001)     ;
(PID.TID 0000.0001) wUnit2rVel = /* convert units: wSpeed -> rVel (=1 if z-coord)*/
(PID.TID 0000.0001)    31 @  1.000000000000000E+00              /* K =  1: 31 */
(PID.TID 0000.0001)     ;
(PID.TID 0000.0001) dBdrRef = /* Vertical gradient of reference boyancy [(m/s/r)^2)] */
(PID.TID 0000.0001)    30 @  0.000000000000000E+00              /* K =  1: 30 */
(PID.TID 0000.0001)     ;
(PID.TID 0000.0001) rotateGrid = /* use rotated grid ( True/False ) */
(PID.TID 0000.0001)                   F
(PID.TID 0000.0001)     ;
(PID.TID 0000.0001) phiEuler = /* Euler angle, rotation about original z-coordinate [rad] */
(PID.TID 0000.0001)                 0.000000000000000E+00
(PID.TID 0000.0001)     ;
(PID.TID 0000.0001) thetaEuler = /* Euler angle, rotation about new x-coordinate [rad] */
(PID.TID 0000.0001)                 0.000000000000000E+00
(PID.TID 0000.0001)     ;
(PID.TID 0000.0001) psiEuler = /* Euler angle, rotation about new z-coordinate [rad] */
(PID.TID 0000.0001)                 0.000000000000000E+00
(PID.TID 0000.0001)     ;
(PID.TID 0000.0001) dxF =  /* dxF(:,1,:,1) ( units: m ) */
(PID.TID 0000.0001)    50 @  5.820391490558872E+03              /* I =  1: 50 */
(PID.TID 0000.0001)     ;
(PID.TID 0000.0001) dxF =  /* dxF(1,:,1,:) ( units: m ) */
(PID.TID 0000.0001)                 5.820391490558872E+03,      /* J =  1 */
(PID.TID 0000.0001)                 5.877701765291692E+03,      /* J =  2 */
(PID.TID 0000.0001)                 5.934994135525598E+03,      /* J =  3 */
(PID.TID 0000.0001)      . . .
(PID.TID 0000.0001)                 7.076813247621209E+03,      /* J = 23 */
(PID.TID 0000.0001)                 7.133689397375063E+03,      /* J = 24 */
(PID.TID 0000.0001)                 7.190543816673855E+03,      /* J = 25 */
(PID.TID 0000.0001)                 7.247376332329164E+03,      /* J = 26 */
(PID.TID 0000.0001)                 7.304186771219292E+03,      /* J = 27 */
(PID.TID 0000.0001)                 7.360974960289787E+03,      /* J = 28 */
(PID.TID 0000.0001)      . . .
(PID.TID 0000.0001)                 8.491800393599013E+03,      /* J = 48 */
(PID.TID 0000.0001)                 8.548081485571185E+03,      /* J = 49 */
(PID.TID 0000.0001)                 8.604336538604706E+03,      /* J = 50 */
(PID.TID 0000.0001)                 8.660565381336924E+03,      /* J = 51 */
(PID.TID 0000.0001)                 8.716767842485036E+03,      /* J = 52 */
(PID.TID 0000.0001)                 8.772943750846600E+03,      /* J = 53 */
(PID.TID 0000.0001)      . . .
(PID.TID 0000.0001)                 9.890622914885218E+03,      /* J = 73 */
(PID.TID 0000.0001)                 9.946201814818334E+03,      /* J = 74 */
(PID.TID 0000.0001)                 1.000175041689580E+04,      /* J = 75 */
(PID.TID 0000.0001)                 1.005726855190695E+04,      /* J = 76 */
(PID.TID 0000.0001)                 1.011275605073392E+04,      /* J = 77 */
(PID.TID 0000.0001)                 1.016821274435215E+04,      /* J = 78 */
(PID.TID 0000.0001)      . . .
(PID.TID 0000.0001)                 1.127061807330668E+04,      /* J = 98 */
(PID.TID 0000.0001)                 1.132538898360582E+04,      /* J = 99 */
(PID.TID 0000.0001)                 1.138012539480601E+04       /* J =100 */
(PID.TID 0000.0001)     ;
(PID.TID 0000.0001) dyF =  /* dyF(:,1,:,1) ( units: m ) */
(PID.TID 0000.0001)    50 @  1.111774733520388E+04              /* I =  1: 50 */
(PID.TID 0000.0001)     ;
(PID.TID 0000.0001) dyF =  /* dyF(1,:,1,:) ( units: m ) */
(PID.TID 0000.0001)   100 @  1.111774733520388E+04              /* J =  1:100 */
(PID.TID 0000.0001)     ;
(PID.TID 0000.0001) dxG =  /* dxG(:,1,:,1) ( units: m ) */
(PID.TID 0000.0001)    50 @  5.791729693558576E+03              /* I =  1: 50 */
(PID.TID 0000.0001)     ;
(PID.TID 0000.0001) dxG =  /* dxG(1,:,1,:) ( units: m ) */
(PID.TID 0000.0001)                 5.791729693558576E+03,      /* J =  1 */
(PID.TID 0000.0001)                 5.849048855077854E+03,      /* J =  2 */
(PID.TID 0000.0001)                 5.906350199379949E+03,      /* J =  3 */
(PID.TID 0000.0001)      . . .
(PID.TID 0000.0001)                 7.048367077963129E+03,      /* J = 23 */
(PID.TID 0000.0001)                 7.105254027978149E+03,      /* J = 24 */
(PID.TID 0000.0001)                 7.162119334157175E+03,      /* J = 25 */
(PID.TID 0000.0001)                 7.218962823278620E+03,      /* J = 26 */
(PID.TID 0000.0001)                 7.275784322187360E+03,      /* J = 27 */
(PID.TID 0000.0001)                 7.332583657795253E+03,      /* J = 28 */
(PID.TID 0000.0001)      . . .
(PID.TID 0000.0001)                 8.463650136583461E+03,      /* J = 48 */
(PID.TID 0000.0001)                 8.519944183739159E+03,      /* J = 49 */
(PID.TID 0000.0001)                 8.576212277667308E+03,      /* J = 50 */
(PID.TID 0000.0001)                 8.632454246965530E+03,      /* J = 51 */
(PID.TID 0000.0001)                 8.688669920311038E+03,      /* J = 52 */
(PID.TID 0000.0001)                 8.744859126461139E+03,      /* J = 53 */
(PID.TID 0000.0001)      . . .
(PID.TID 0000.0001)                 9.862822156126382E+03,      /* J = 73 */
(PID.TID 0000.0001)                 9.918416141504455E+03,      /* J = 74 */
(PID.TID 0000.0001)                 9.973979913666863E+03,      /* J = 75 */
(PID.TID 0000.0001)                 1.002951330335672E+04,      /* J = 76 */
(PID.TID 0000.0001)                 1.008501614140969E+04,      /* J = 77 */
(PID.TID 0000.0001)                 1.014048825875450E+04,      /* J = 78 */
(PID.TID 0000.0001)      . . .
(PID.TID 0000.0001)                 1.124321973312895E+04,      /* J = 98 */
(PID.TID 0000.0001)                 1.129800783041847E+04,      /* J = 99 */
(PID.TID 0000.0001)                 1.135276151201679E+04       /* J =100 */
(PID.TID 0000.0001)     ;
(PID.TID 0000.0001) dyG =  /* dyG(:,1,:,1) ( units: m ) */
(PID.TID 0000.0001)    50 @  1.111774733520388E+04              /* I =  1: 50 */
(PID.TID 0000.0001)     ;
(PID.TID 0000.0001) dyG =  /* dyG(1,:,1,:) ( units: m ) */
(PID.TID 0000.0001)   100 @  1.111774733520388E+04              /* J =  1:100 */
(PID.TID 0000.0001)     ;
(PID.TID 0000.0001) dxC =  /* dxC(:,1,:,1) ( units: m ) */
(PID.TID 0000.0001)    50 @  5.820391490558872E+03              /* I =  1: 50 */
(PID.TID 0000.0001)     ;
(PID.TID 0000.0001) dxC =  /* dxC(1,:,1,:) ( units: m ) */
(PID.TID 0000.0001)                 5.820391490558872E+03,      /* J =  1 */
(PID.TID 0000.0001)                 5.877701765291692E+03,      /* J =  2 */
(PID.TID 0000.0001)                 5.934994135525598E+03,      /* J =  3 */
(PID.TID 0000.0001)      . . .
(PID.TID 0000.0001)                 7.076813247621209E+03,      /* J = 23 */
(PID.TID 0000.0001)                 7.133689397375063E+03,      /* J = 24 */
(PID.TID 0000.0001)                 7.190543816673855E+03,      /* J = 25 */
(PID.TID 0000.0001)                 7.247376332329164E+03,      /* J = 26 */
(PID.TID 0000.0001)                 7.304186771219292E+03,      /* J = 27 */
(PID.TID 0000.0001)                 7.360974960289787E+03,      /* J = 28 */
(PID.TID 0000.0001)      . . .
(PID.TID 0000.0001)                 8.491800393599013E+03,      /* J = 48 */
(PID.TID 0000.0001)                 8.548081485571185E+03,      /* J = 49 */
(PID.TID 0000.0001)                 8.604336538604706E+03,      /* J = 50 */
(PID.TID 0000.0001)                 8.660565381336924E+03,      /* J = 51 */
(PID.TID 0000.0001)                 8.716767842485036E+03,      /* J = 52 */
(PID.TID 0000.0001)                 8.772943750846600E+03,      /* J = 53 */
(PID.TID 0000.0001)      . . .
(PID.TID 0000.0001)                 9.890622914885218E+03,      /* J = 73 */
(PID.TID 0000.0001)                 9.946201814818334E+03,      /* J = 74 */
(PID.TID 0000.0001)                 1.000175041689580E+04,      /* J = 75 */
(PID.TID 0000.0001)                 1.005726855190695E+04,      /* J = 76 */
(PID.TID 0000.0001)                 1.011275605073392E+04,      /* J = 77 */
(PID.TID 0000.0001)                 1.016821274435215E+04,      /* J = 78 */
(PID.TID 0000.0001)      . . .
(PID.TID 0000.0001)                 1.127061807330668E+04,      /* J = 98 */
(PID.TID 0000.0001)                 1.132538898360582E+04,      /* J = 99 */
(PID.TID 0000.0001)                 1.138012539480601E+04       /* J =100 */
(PID.TID 0000.0001)     ;
(PID.TID 0000.0001) dyC =  /* dyC(:,1,:,1) ( units: m ) */
(PID.TID 0000.0001)    50 @  1.111774733520388E+04              /* I =  1: 50 */
(PID.TID 0000.0001)     ;
(PID.TID 0000.0001) dyC =  /* dyC(1,:,1,:) ( units: m ) */
(PID.TID 0000.0001)   100 @  1.111774733520388E+04              /* J =  1:100 */
(PID.TID 0000.0001)     ;
(PID.TID 0000.0001) dxV =  /* dxV(:,1,:,1) ( units: m ) */
(PID.TID 0000.0001)    50 @  5.791729693558576E+03              /* I =  1: 50 */
(PID.TID 0000.0001)     ;
(PID.TID 0000.0001) dxV =  /* dxV(1,:,1,:) ( units: m ) */
(PID.TID 0000.0001)                 5.791729693558576E+03,      /* J =  1 */
(PID.TID 0000.0001)                 5.849048855077854E+03,      /* J =  2 */
(PID.TID 0000.0001)                 5.906350199379949E+03,      /* J =  3 */
(PID.TID 0000.0001)      . . .
(PID.TID 0000.0001)                 7.048367077963129E+03,      /* J = 23 */
(PID.TID 0000.0001)                 7.105254027978149E+03,      /* J = 24 */
(PID.TID 0000.0001)                 7.162119334157175E+03,      /* J = 25 */
(PID.TID 0000.0001)                 7.218962823278620E+03,      /* J = 26 */
(PID.TID 0000.0001)                 7.275784322187360E+03,      /* J = 27 */
(PID.TID 0000.0001)                 7.332583657795253E+03,      /* J = 28 */
(PID.TID 0000.0001)      . . .
(PID.TID 0000.0001)                 8.463650136583461E+03,      /* J = 48 */
(PID.TID 0000.0001)                 8.519944183739159E+03,      /* J = 49 */
(PID.TID 0000.0001)                 8.576212277667308E+03,      /* J = 50 */
(PID.TID 0000.0001)                 8.632454246965530E+03,      /* J = 51 */
(PID.TID 0000.0001)                 8.688669920311038E+03,      /* J = 52 */
(PID.TID 0000.0001)                 8.744859126461139E+03,      /* J = 53 */
(PID.TID 0000.0001)      . . .
(PID.TID 0000.0001)                 9.862822156126382E+03,      /* J = 73 */
(PID.TID 0000.0001)                 9.918416141504455E+03,      /* J = 74 */
(PID.TID 0000.0001)                 9.973979913666863E+03,      /* J = 75 */
(PID.TID 0000.0001)                 1.002951330335672E+04,      /* J = 76 */
(PID.TID 0000.0001)                 1.008501614140969E+04,      /* J = 77 */
(PID.TID 0000.0001)                 1.014048825875450E+04,      /* J = 78 */
(PID.TID 0000.0001)      . . .
(PID.TID 0000.0001)                 1.124321973312895E+04,      /* J = 98 */
(PID.TID 0000.0001)                 1.129800783041847E+04,      /* J = 99 */
(PID.TID 0000.0001)                 1.135276151201679E+04       /* J =100 */
(PID.TID 0000.0001)     ;
(PID.TID 0000.0001) dyU =  /* dyU(:,1,:,1) ( units: m ) */
(PID.TID 0000.0001)    50 @  1.111774733520388E+04              /* I =  1: 50 */
(PID.TID 0000.0001)     ;
(PID.TID 0000.0001) dyU =  /* dyU(1,:,1,:) ( units: m ) */
(PID.TID 0000.0001)   100 @  1.111774733520388E+04              /* J =  1:100 */
(PID.TID 0000.0001)     ;
(PID.TID 0000.0001) rA  =  /* rA (:,1,:,1) ( units: m^2 ) */
(PID.TID 0000.0001)    50 @  6.470963377080289E+07              /* I =  1: 50 */
(PID.TID 0000.0001)     ;
(PID.TID 0000.0001) rA  =  /* rA (1,:,1,:) ( units: m^2 ) */
(PID.TID 0000.0001)                 6.470963377080289E+07,      /* J =  1 */
(PID.TID 0000.0001)                 6.534679484410104E+07,      /* J =  2 */
(PID.TID 0000.0001)                 6.598375685977945E+07,      /* J =  3 */
(PID.TID 0000.0001)      . . .
(PID.TID 0000.0001)                 7.867821163932665E+07,      /* J = 23 */
(PID.TID 0000.0001)                 7.931054622142966E+07,      /* J = 24 */
(PID.TID 0000.0001)                 7.994263920984067E+07,      /* J = 25 */
(PID.TID 0000.0001)                 8.057448867913349E+07,      /* J = 26 */
(PID.TID 0000.0001)                 8.120609270456599E+07,      /* J = 27 */
(PID.TID 0000.0001)                 8.183744936212724E+07,      /* J = 28 */
(PID.TID 0000.0001)      . . .
(PID.TID 0000.0001)                 9.440967921416211E+07,      /* J = 48 */
(PID.TID 0000.0001)                 9.503539809503193E+07,      /* J = 49 */
(PID.TID 0000.0001)                 9.566082748163140E+07,      /* J = 50 */
(PID.TID 0000.0001)                 9.628596546870193E+07,      /* J = 51 */
(PID.TID 0000.0001)                 9.691081015209354E+07,      /* J = 52 */
(PID.TID 0000.0001)                 9.753535962826957E+07,      /* J = 53 */
(PID.TID 0000.0001)      . . .
(PID.TID 0000.0001)                 1.099614325987181E+08,      /* J = 73 */
(PID.TID 0000.0001)                 1.105793446869293E+08,      /* J = 74 */
(PID.TID 0000.0001)                 1.111969199312560E+08,      /* J = 75 */
(PID.TID 0000.0001)                 1.118141564504991E+08,      /* J = 76 */
(PID.TID 0000.0001)                 1.124310523644033E+08,      /* J = 77 */
(PID.TID 0000.0001)                 1.130476057938687E+08,      /* J = 78 */
(PID.TID 0000.0001)      . . .
(PID.TID 0000.0001)                 1.253038681465364E+08,      /* J = 98 */
(PID.TID 0000.0001)                 1.259127972112936E+08,      /* J = 99 */
(PID.TID 0000.0001)                 1.265213427237870E+08       /* J =100 */
(PID.TID 0000.0001)     ;
(PID.TID 0000.0001) rAw =  /* rAw(:,1,:,1) ( units: m^2 ) */
(PID.TID 0000.0001)    50 @  6.470963377080289E+07              /* I =  1: 50 */
(PID.TID 0000.0001)     ;
(PID.TID 0000.0001) rAw =  /* rAw(1,:,1,:) ( units: m^2 ) */
(PID.TID 0000.0001)                 6.470963377080289E+07,      /* J =  1 */
(PID.TID 0000.0001)                 6.534679484410104E+07,      /* J =  2 */
(PID.TID 0000.0001)                 6.598375685977945E+07,      /* J =  3 */
(PID.TID 0000.0001)      . . .
(PID.TID 0000.0001)                 7.867821163932665E+07,      /* J = 23 */
(PID.TID 0000.0001)                 7.931054622142966E+07,      /* J = 24 */
(PID.TID 0000.0001)                 7.994263920984067E+07,      /* J = 25 */
(PID.TID 0000.0001)                 8.057448867913349E+07,      /* J = 26 */
(PID.TID 0000.0001)                 8.120609270456599E+07,      /* J = 27 */
(PID.TID 0000.0001)                 8.183744936212724E+07,      /* J = 28 */
(PID.TID 0000.0001)      . . .
(PID.TID 0000.0001)                 9.440967921416211E+07,      /* J = 48 */
(PID.TID 0000.0001)                 9.503539809503193E+07,      /* J = 49 */
(PID.TID 0000.0001)                 9.566082748163140E+07,      /* J = 50 */
(PID.TID 0000.0001)                 9.628596546870193E+07,      /* J = 51 */
(PID.TID 0000.0001)                 9.691081015209354E+07,      /* J = 52 */
(PID.TID 0000.0001)                 9.753535962826957E+07,      /* J = 53 */
(PID.TID 0000.0001)      . . .
(PID.TID 0000.0001)                 1.099614325987181E+08,      /* J = 73 */
(PID.TID 0000.0001)                 1.105793446869293E+08,      /* J = 74 */
(PID.TID 0000.0001)                 1.111969199312560E+08,      /* J = 75 */
(PID.TID 0000.0001)                 1.118141564504991E+08,      /* J = 76 */
(PID.TID 0000.0001)                 1.124310523644033E+08,      /* J = 77 */
(PID.TID 0000.0001)                 1.130476057938687E+08,      /* J = 78 */
(PID.TID 0000.0001)      . . .
(PID.TID 0000.0001)                 1.253038681465364E+08,      /* J = 98 */
(PID.TID 0000.0001)                 1.259127972112936E+08,      /* J = 99 */
(PID.TID 0000.0001)                 1.265213427237870E+08       /* J =100 */
(PID.TID 0000.0001)     ;
(PID.TID 0000.0001) rAs =  /* rAs(:,1,:,1) ( units: m^2 ) */
(PID.TID 0000.0001)    50 @  6.439097919401864E+07              /* I =  1: 50 */
(PID.TID 0000.0001)     ;
(PID.TID 0000.0001) rAs =  /* rAs(1,:,1,:) ( units: m^2 ) */
(PID.TID 0000.0001)                 6.439097919401864E+07,      /* J =  1 */
(PID.TID 0000.0001)                 6.502823906837179E+07,      /* J =  2 */
(PID.TID 0000.0001)                 6.566530085543716E+07,      /* J =  3 */
(PID.TID 0000.0001)      . . .
(PID.TID 0000.0001)                 7.836195435256335E+07,      /* J = 23 */
(PID.TID 0000.0001)                 7.899440900921808E+07,      /* J = 24 */
(PID.TID 0000.0001)                 7.962662303520055E+07,      /* J = 25 */
(PID.TID 0000.0001)                 8.025859450470714E+07,      /* J = 26 */
(PID.TID 0000.0001)                 8.089032149259475E+07,      /* J = 27 */
(PID.TID 0000.0001)                 8.152180207452223E+07,      /* J = 28 */
(PID.TID 0000.0001)      . . .
(PID.TID 0000.0001)                 9.409671180895932E+07,      /* J = 48 */
(PID.TID 0000.0001)                 9.472257472228888E+07,      /* J = 49 */
(PID.TID 0000.0001)                 9.534814909420149E+07,      /* J = 50 */
(PID.TID 0000.0001)                 9.597343301913190E+07,      /* J = 51 */
(PID.TID 0000.0001)                 9.659842459236403E+07,      /* J = 52 */
(PID.TID 0000.0001)                 9.722312190998378E+07,      /* J = 53 */
(PID.TID 0000.0001)      . . .
(PID.TID 0000.0001)                 1.096523508263446E+08,      /* J = 73 */
(PID.TID 0000.0001)                 1.102704306306916E+08,      /* J = 74 */
(PID.TID 0000.0001)                 1.108881745321664E+08,      /* J = 75 */
(PID.TID 0000.0001)                 1.115055806490511E+08,      /* J = 76 */
(PID.TID 0000.0001)                 1.121226471005947E+08,      /* J = 77 */
(PID.TID 0000.0001)                 1.127393720071080E+08,      /* J = 78 */
(PID.TID 0000.0001)      . . .
(PID.TID 0000.0001)                 1.249992603617116E+08,      /* J = 98 */
(PID.TID 0000.0001)                 1.256083805070198E+08,      /* J = 99 */
(PID.TID 0000.0001)                 1.262171180274426E+08       /* J =100 */
(PID.TID 0000.0001)     ;
(PID.TID 0000.0001) globalArea = /* Integrated horizontal Area (m^2) */
(PID.TID 0000.0001)                 4.665024516720103E+11
(PID.TID 0000.0001)     ;
(PID.TID 0000.0001) // =======================================================
(PID.TID 0000.0001) // End of Model config. summary
(PID.TID 0000.0001) // =======================================================
(PID.TID 0000.0001) 
(PID.TID 0000.0001) == Packages configuration : Check & print summary ==
(PID.TID 0000.0001) 
(PID.TID 0000.0001) GAD_CHECK: #define ALLOW_GENERIC_ADVDIFF
(PID.TID 0000.0001) SHELFICE_CHECK: #define ALLOW_SHELFICE
(PID.TID 0000.0001) ICEFRONT_CHECK: #define ALLOW_ICEFRONT
(PID.TID 0000.0001) // =======================================================
(PID.TID 0000.0001) // CONFIG_CHECK : Normal End
(PID.TID 0000.0001) // =======================================================
(PID.TID 0000.0001) 
(PID.TID 0000.0001) Start initial hydrostatic pressure computation
(PID.TID 0000.0001) Pressure is predetermined for buoyancyRelation OCEANIC
(PID.TID 0000.0001) 
(PID.TID 0000.0001)  write diagnostics summary to file ioUnit:      6
Iter.Nb:         0 ; Time(s):  0.0000000000000E+00
------------------------------------------------------------------------
2D/3D diagnostics: Number of lists:     4
------------------------------------------------------------------------
listId=    1 ; file name: SHIfwFlx
 nFlds, nActive,       freq     &     phase        , nLev               
    1  |    1  |     18000.000000         0.000000 |   1
 levels:   1
 diag# | name   |   ipt  |  iMate | kLev|   count |   mate.C|           
   177 |SHIfwFlx|      1 |      0 |   1 |       0 |
------------------------------------------------------------------------
listId=    2 ; file name: SHIhtFlx
 nFlds, nActive,       freq     &     phase        , nLev               
    1  |    1  |     18000.000000         0.000000 |   1
 levels:   1
 diag# | name   |   ipt  |  iMate | kLev|   count |   mate.C|           
   178 |SHIhtFlx|      2 |      0 |   1 |       0 |
------------------------------------------------------------------------
listId=    3 ; file name: ICFfwFlx
 nFlds, nActive,       freq     &     phase        , nLev               
    1  |    1  |     18000.000000         0.000000 |  30
 levels:   1   2   3   4   5   6   7   8   9  10  11  12  13  14  15  16  17  18  19  20  21  22  23  24  25
 levels:  26  27  28  29  30
 diag# | name   |   ipt  |  iMate | kLev|   count |   mate.C|           
   183 |ICFfwFlx|      3 |      0 |  30 |       0 |
------------------------------------------------------------------------
listId=    4 ; file name: ICFhtFlx
 nFlds, nActive,       freq     &     phase        , nLev               
    1  |    1  |     18000.000000         0.000000 |  30
 levels:   1   2   3   4   5   6   7   8   9  10  11  12  13  14  15  16  17  18  19  20  21  22  23  24  25
 levels:  26  27  28  29  30
 diag# | name   |   ipt  |  iMate | kLev|   count |   mate.C|           
   184 |ICFhtFlx|     33 |      0 |  30 |       0 |
------------------------------------------------------------------------
Global & Regional Statistics diagnostics: Number of lists:     0
------------------------------------------------------------------------
(PID.TID 0000.0001)  MDS_READ_FIELD: opening global file: phi0surf.exp1.jmd95z
(PID.TID 0000.0001) // =======================================================
(PID.TID 0000.0001) // Model current state
(PID.TID 0000.0001) // =======================================================
(PID.TID 0000.0001) 
(PID.TID 0000.0001) // =======================================================
(PID.TID 0000.0001) // Begin MONITOR dynamic field statistics
(PID.TID 0000.0001) // =======================================================
(PID.TID 0000.0001) %MON time_tsnumber                =                     0
(PID.TID 0000.0001) %MON time_secondsf                =   0.0000000000000E+00
(PID.TID 0000.0001) %MON dynstat_eta_max              =   0.0000000000000E+00
(PID.TID 0000.0001) %MON dynstat_eta_min              =   0.0000000000000E+00
(PID.TID 0000.0001) %MON dynstat_eta_mean             =   0.0000000000000E+00
(PID.TID 0000.0001) %MON dynstat_eta_sd               =   0.0000000000000E+00
(PID.TID 0000.0001) %MON dynstat_eta_del2             =   0.0000000000000E+00
(PID.TID 0000.0001) %MON dynstat_uvel_max             =   0.0000000000000E+00
(PID.TID 0000.0001) %MON dynstat_uvel_min             =   0.0000000000000E+00
(PID.TID 0000.0001) %MON dynstat_uvel_mean            =   0.0000000000000E+00
(PID.TID 0000.0001) %MON dynstat_uvel_sd              =   0.0000000000000E+00
(PID.TID 0000.0001) %MON dynstat_uvel_del2            =   0.0000000000000E+00
(PID.TID 0000.0001) %MON dynstat_vvel_max             =   0.0000000000000E+00
(PID.TID 0000.0001) %MON dynstat_vvel_min             =   0.0000000000000E+00
(PID.TID 0000.0001) %MON dynstat_vvel_mean            =   0.0000000000000E+00
(PID.TID 0000.0001) %MON dynstat_vvel_sd              =   0.0000000000000E+00
(PID.TID 0000.0001) %MON dynstat_vvel_del2            =   0.0000000000000E+00
(PID.TID 0000.0001) %MON dynstat_wvel_max             =   0.0000000000000E+00
(PID.TID 0000.0001) %MON dynstat_wvel_min             =   0.0000000000000E+00
(PID.TID 0000.0001) %MON dynstat_wvel_mean            =   0.0000000000000E+00
(PID.TID 0000.0001) %MON dynstat_wvel_sd              =   0.0000000000000E+00
(PID.TID 0000.0001) %MON dynstat_wvel_del2            =   0.0000000000000E+00
(PID.TID 0000.0001) %MON dynstat_theta_max            =  -1.9000000000000E+00
(PID.TID 0000.0001) %MON dynstat_theta_min            =  -1.9000000000000E+00
(PID.TID 0000.0001) %MON dynstat_theta_mean           =  -1.9000000000001E+00
(PID.TID 0000.0001) %MON dynstat_theta_sd             =   5.0626169922908E-14
(PID.TID 0000.0001) %MON dynstat_theta_del2           =   0.0000000000000E+00
(PID.TID 0000.0001) %MON dynstat_salt_max             =   3.4400000000000E+01
(PID.TID 0000.0001) %MON dynstat_salt_min             =   3.4400000000000E+01
(PID.TID 0000.0001) %MON dynstat_salt_mean            =   3.4400000000003E+01
(PID.TID 0000.0001) %MON dynstat_salt_sd              =   3.3608671401455E-12
(PID.TID 0000.0001) %MON dynstat_salt_del2            =   0.0000000000000E+00
(PID.TID 0000.0001) %MON advcfl_uvel_max              =   0.0000000000000E+00
(PID.TID 0000.0001) %MON advcfl_vvel_max              =   0.0000000000000E+00
(PID.TID 0000.0001) %MON advcfl_wvel_max              =   0.0000000000000E+00
(PID.TID 0000.0001) %MON advcfl_W_hf_max              =   0.0000000000000E+00
(PID.TID 0000.0001) %MON pe_b_mean                    =   0.0000000000000E+00
(PID.TID 0000.0001) %MON ke_max                       =   0.0000000000000E+00
(PID.TID 0000.0001) %MON ke_mean                      =   0.0000000000000E+00
(PID.TID 0000.0001) %MON ke_vol                       =   3.4703745874271E+14
(PID.TID 0000.0001) %MON vort_r_min                   =   0.0000000000000E+00
(PID.TID 0000.0001) %MON vort_r_max                   =   0.0000000000000E+00
(PID.TID 0000.0001) %MON vort_a_mean                  =  -1.3992981969633E-04
(PID.TID 0000.0001) %MON vort_a_sd                    =   1.7365065466767E-06
(PID.TID 0000.0001) %MON vort_p_mean                  =  -1.4746660593271E-04
(PID.TID 0000.0001) %MON vort_p_sd                    =   7.7973631850191E-05
(PID.TID 0000.0001) %MON surfExpan_theta_mean         =   0.0000000000000E+00
(PID.TID 0000.0001) %MON surfExpan_salt_mean          =   0.0000000000000E+00
(PID.TID 0000.0001) // =======================================================
(PID.TID 0000.0001) // End MONITOR dynamic field statistics
(PID.TID 0000.0001) // =======================================================
(PID.TID 0000.0001) SOLVE_FOR_PRESSURE: putPmEinXvector =    F
(PID.TID 0000.0001) SOLVE_FOR_PRESSURE: zeroPsNH=    F , zeroMeanPnh=    F
(PID.TID 0000.0001) SOLVE_FOR_PRESSURE: oldFreeSurfTerm =    F
 cg2d: Sum(rhs),rhsMax =   0.00000000000000E+00  2.15432155478782E-13
(PID.TID 0000.0001)                    cg2d_init_res =    9.10070967505638E+00
(PID.TID 0000.0001)                       cg2d_iters =   215
(PID.TID 0000.0001)                         cg2d_res =    9.94540281738969E-14
(PID.TID 0000.0001) // =======================================================
(PID.TID 0000.0001) // Begin MONITOR dynamic field statistics
(PID.TID 0000.0001) // =======================================================
(PID.TID 0000.0001) %MON time_tsnumber                =                     1
(PID.TID 0000.0001) %MON time_secondsf                =   1.8000000000000E+03
(PID.TID 0000.0001) %MON dynstat_eta_max              =   2.9919160986101E-14
(PID.TID 0000.0001) %MON dynstat_eta_min              =  -3.2192807089659E-14
(PID.TID 0000.0001) %MON dynstat_eta_mean             =  -7.4371462347489E-30
(PID.TID 0000.0001) %MON dynstat_eta_sd               =   9.9873982290878E-15
(PID.TID 0000.0001) %MON dynstat_eta_del2             =   9.7259516538471E-17
(PID.TID 0000.0001) %MON dynstat_uvel_max             =   7.7512654011331E-15
(PID.TID 0000.0001) %MON dynstat_uvel_min             =  -3.7991856522288E-15
(PID.TID 0000.0001) %MON dynstat_uvel_mean            =   1.3724571743162E-16
(PID.TID 0000.0001) %MON dynstat_uvel_sd              =   1.0635067796656E-15
(PID.TID 0000.0001) %MON dynstat_uvel_del2            =   5.1315995161486E-18
(PID.TID 0000.0001) %MON dynstat_vvel_max             =   1.5066539208032E-15
(PID.TID 0000.0001) %MON dynstat_vvel_min             =  -7.0734950420019E-15
(PID.TID 0000.0001) %MON dynstat_vvel_mean            =  -1.4081605676650E-15
(PID.TID 0000.0001) %MON dynstat_vvel_sd              =   1.3443508502261E-15
(PID.TID 0000.0001) %MON dynstat_vvel_del2            =   7.4683880075937E-19
(PID.TID 0000.0001) %MON dynstat_wvel_max             =   9.6145284048154E-17
(PID.TID 0000.0001) %MON dynstat_wvel_min             =  -1.9887219473980E-16
(PID.TID 0000.0001) %MON dynstat_wvel_mean            =  -1.2251668500951E-18
(PID.TID 0000.0001) %MON dynstat_wvel_sd              =   4.9328966115773E-18
(PID.TID 0000.0001) %MON dynstat_wvel_del2            =   3.0053791339135E-20
(PID.TID 0000.0001) %MON dynstat_theta_max            =  -1.9000000000000E+00
(PID.TID 0000.0001) %MON dynstat_theta_min            =  -1.9006851721692E+00
(PID.TID 0000.0001) %MON dynstat_theta_mean           =  -1.9000057693532E+00
(PID.TID 0000.0001) %MON dynstat_theta_sd             =   4.4667285835821E-05
(PID.TID 0000.0001) %MON dynstat_theta_del2           =   5.2806217253227E-08
(PID.TID 0000.0001) %MON dynstat_salt_max             =   3.4400000000000E+01
(PID.TID 0000.0001) %MON dynstat_salt_min             =   3.4399720387688E+01
(PID.TID 0000.0001) %MON dynstat_salt_mean            =   3.4399997656845E+01
(PID.TID 0000.0001) %MON dynstat_salt_sd              =   1.8183098271824E-05
(PID.TID 0000.0001) %MON dynstat_salt_del2            =   2.1474001215000E-08
(PID.TID 0000.0001) %MON advcfl_uvel_max              =   1.6197403405450E-15
(PID.TID 0000.0001) %MON advcfl_vvel_max              =   1.1452222011996E-15
(PID.TID 0000.0001) %MON advcfl_wvel_max              =   1.1932331684388E-14
(PID.TID 0000.0001) %MON advcfl_W_hf_max              =   1.1932331684388E-14
(PID.TID 0000.0001) %MON pe_b_mean                    =  -2.3110625695951E-17
(PID.TID 0000.0001) %MON ke_max                       =   3.5786188666853E-29
(PID.TID 0000.0001) %MON ke_mean                      =   2.4335693995151E-30
(PID.TID 0000.0001) %MON ke_vol                       =   3.4703745874271E+14
(PID.TID 0000.0001) %MON vort_r_min                   =  -7.2737262356444E-19
(PID.TID 0000.0001) %MON vort_r_max                   =   8.2478088353974E-19
(PID.TID 0000.0001) %MON vort_a_mean                  =  -1.3992981969633E-04
(PID.TID 0000.0001) %MON vort_a_sd                    =   1.7365065466786E-06
(PID.TID 0000.0001) %MON vort_p_mean                  =  -1.4746660593271E-04
(PID.TID 0000.0001) %MON vort_p_sd                    =   7.7973631850191E-05
(PID.TID 0000.0001) %MON surfExpan_theta_mean         =  -9.1878317217798E-22
(PID.TID 0000.0001) %MON surfExpan_salt_mean          =  -3.7404318411544E-22
(PID.TID 0000.0001) // =======================================================
(PID.TID 0000.0001) // End MONITOR dynamic field statistics
(PID.TID 0000.0001) // =======================================================
 cg2d: Sum(rhs),rhsMax =  -2.13162820728030E-14  1.95788288105138E-05
(PID.TID 0000.0001)                    cg2d_init_res =    2.54962714382999E+01
(PID.TID 0000.0001)                       cg2d_iters =   216
(PID.TID 0000.0001)                         cg2d_res =    8.86463049902158E-14
(PID.TID 0000.0001) // =======================================================
(PID.TID 0000.0001) // Begin MONITOR dynamic field statistics
(PID.TID 0000.0001) // =======================================================
(PID.TID 0000.0001) %MON time_tsnumber                =                     2
(PID.TID 0000.0001) %MON time_secondsf                =   3.6000000000000E+03
(PID.TID 0000.0001) %MON dynstat_eta_max              =   4.2790492427953E-06
(PID.TID 0000.0001) %MON dynstat_eta_min              =  -3.2395682894974E-06
(PID.TID 0000.0001) %MON dynstat_eta_mean             =   5.9891812225905E-22
(PID.TID 0000.0001) %MON dynstat_eta_sd               =   1.1774530050740E-06
(PID.TID 0000.0001) %MON dynstat_eta_del2             =   4.7553024695959E-08
(PID.TID 0000.0001) %MON dynstat_uvel_max             =   1.5307342297038E-06
(PID.TID 0000.0001) %MON dynstat_uvel_min             =  -1.6963636734708E-06
(PID.TID 0000.0001) %MON dynstat_uvel_mean            =   8.6291407748831E-09
(PID.TID 0000.0001) %MON dynstat_uvel_sd              =   2.0836432894072E-07
(PID.TID 0000.0001) %MON dynstat_uvel_del2            =   1.6206219311083E-09
(PID.TID 0000.0001) %MON dynstat_vvel_max             =   6.0403838994713E-06
(PID.TID 0000.0001) %MON dynstat_vvel_min             =  -1.5839226900573E-06
(PID.TID 0000.0001) %MON dynstat_vvel_mean            =  -9.3815550320543E-08
(PID.TID 0000.0001) %MON dynstat_vvel_sd              =   3.2435881062490E-07
(PID.TID 0000.0001) %MON dynstat_vvel_del2            =   8.8869613703044E-10
(PID.TID 0000.0001) %MON dynstat_wvel_max             =   1.4568031450593E-08
(PID.TID 0000.0001) %MON dynstat_wvel_min             =  -2.4815791312087E-08
(PID.TID 0000.0001) %MON dynstat_wvel_mean            =  -7.5043508469624E-11
(PID.TID 0000.0001) %MON dynstat_wvel_sd              =   1.1827436551682E-09
(PID.TID 0000.0001) %MON dynstat_wvel_del2            =   1.1013506711572E-11
(PID.TID 0000.0001) %MON dynstat_theta_max            =  -1.9000000000000E+00
(PID.TID 0000.0001) %MON dynstat_theta_min            =  -1.9013688224855E+00
(PID.TID 0000.0001) %MON dynstat_theta_mean           =  -1.9000115281117E+00
(PID.TID 0000.0001) %MON dynstat_theta_sd             =   8.9223689343930E-05
(PID.TID 0000.0001) %MON dynstat_theta_del2           =   1.0526210969008E-07
(PID.TID 0000.0001) %MON dynstat_salt_max             =   3.4400000000000E+01
(PID.TID 0000.0001) %MON dynstat_salt_min             =   3.4399441399459E+01
(PID.TID 0000.0001) %MON dynstat_salt_mean            =   3.4399995318032E+01
(PID.TID 0000.0001) %MON dynstat_salt_sd              =   3.6320778539562E-05
(PID.TID 0000.0001) %MON dynstat_salt_del2            =   4.2805141510797E-08
(PID.TID 0000.0001) %MON advcfl_uvel_max              =   5.1448317260672E-07
(PID.TID 0000.0001) %MON advcfl_vvel_max              =   9.7795809629711E-07
(PID.TID 0000.0001) %MON advcfl_wvel_max              =   1.4889474787252E-06
(PID.TID 0000.0001) %MON advcfl_W_hf_max              =   3.5835721516100E-06
(PID.TID 0000.0001) %MON pe_b_mean                    =  -1.7609341813621E-09
(PID.TID 0000.0001) %MON ke_max                       =   9.7380688250243E-12
(PID.TID 0000.0001) %MON ke_mean                      =   7.7562224386116E-14
(PID.TID 0000.0001) %MON ke_vol                       =   3.4703745874271E+14
(PID.TID 0000.0001) %MON vort_r_min                   =  -1.0226932813389E-09
(PID.TID 0000.0001) %MON vort_r_max                   =   9.9652002880102E-10
(PID.TID 0000.0001) %MON vort_a_mean                  =  -1.3992981969605E-04
(PID.TID 0000.0001) %MON vort_a_sd                    =   1.7365065709999E-06
(PID.TID 0000.0001) %MON vort_p_mean                  =  -1.4746660593242E-04
(PID.TID 0000.0001) %MON vort_p_sd                    =   7.7973630990825E-05
(PID.TID 0000.0001) %MON surfExpan_theta_mean         =  -1.1588332275893E-13
(PID.TID 0000.0001) %MON surfExpan_salt_mean          =  -4.7055102963771E-14
(PID.TID 0000.0001) // =======================================================
(PID.TID 0000.0001) // End MONITOR dynamic field statistics
(PID.TID 0000.0001) // =======================================================
 cg2d: Sum(rhs),rhsMax =   1.06581410364015E-13  3.07790828326610E-05
(PID.TID 0000.0001)                    cg2d_init_res =    1.01796611021011E+01
(PID.TID 0000.0001)                       cg2d_iters =   215
(PID.TID 0000.0001)                         cg2d_res =    9.51269713619726E-14
(PID.TID 0000.0001) // =======================================================
(PID.TID 0000.0001) // Begin MONITOR dynamic field statistics
(PID.TID 0000.0001) // =======================================================
(PID.TID 0000.0001) %MON time_tsnumber                =                     3
(PID.TID 0000.0001) %MON time_secondsf                =   5.4000000000000E+03
(PID.TID 0000.0001) %MON dynstat_eta_max              =   8.6547348332944E-06
(PID.TID 0000.0001) %MON dynstat_eta_min              =  -4.9226469457059E-06
(PID.TID 0000.0001) %MON dynstat_eta_mean             =   2.6618583211513E-22
(PID.TID 0000.0001) %MON dynstat_eta_sd               =   2.4215408005627E-06
(PID.TID 0000.0001) %MON dynstat_eta_del2             =   7.7482205231682E-08
(PID.TID 0000.0001) %MON dynstat_uvel_max             =   3.1215028278948E-06
(PID.TID 0000.0001) %MON dynstat_uvel_min             =  -5.2466738368439E-06
(PID.TID 0000.0001) %MON dynstat_uvel_mean            =   1.9407926262728E-08
(PID.TID 0000.0001) %MON dynstat_uvel_sd              =   4.6564062218433E-07
(PID.TID 0000.0001) %MON dynstat_uvel_del2            =   3.0812189262947E-09
(PID.TID 0000.0001) %MON dynstat_vvel_max             =   1.4776835007051E-05
(PID.TID 0000.0001) %MON dynstat_vvel_min             =  -3.3507065275535E-06
(PID.TID 0000.0001) %MON dynstat_vvel_mean            =  -2.2054397902496E-07
(PID.TID 0000.0001) %MON dynstat_vvel_sd              =   8.0251628284534E-07
(PID.TID 0000.0001) %MON dynstat_vvel_del2            =   2.1532514874826E-09
(PID.TID 0000.0001) %MON dynstat_wvel_max             =   3.7103073972346E-08
(PID.TID 0000.0001) %MON dynstat_wvel_min             =  -5.2369148041459E-08
(PID.TID 0000.0001) %MON dynstat_wvel_mean            =  -1.5923624944260E-10
(PID.TID 0000.0001) %MON dynstat_wvel_sd              =   2.6963058707597E-09
(PID.TID 0000.0001) %MON dynstat_wvel_del2            =   2.5505632695563E-11
(PID.TID 0000.0001) %MON dynstat_theta_max            =  -1.9000000000000E+00
(PID.TID 0000.0001) %MON dynstat_theta_min            =  -1.9020515256924E+00
(PID.TID 0000.0001) %MON dynstat_theta_mean           =  -1.9000172802762E+00
(PID.TID 0000.0001) %MON dynstat_theta_sd             =   1.3371114598091E-04
(PID.TID 0000.0001) %MON dynstat_theta_del2           =   1.5750237034814E-07
(PID.TID 0000.0001) %MON dynstat_salt_max             =   3.4400000000000E+01
(PID.TID 0000.0001) %MON dynstat_salt_min             =   3.4399162799614E+01
(PID.TID 0000.0001) %MON dynstat_salt_mean            =   3.4399992981922E+01
(PID.TID 0000.0001) %MON dynstat_salt_sd              =   5.4430218086698E-05
(PID.TID 0000.0001) %MON dynstat_salt_del2            =   6.4048338271136E-08
(PID.TID 0000.0001) %MON advcfl_uvel_max              =   1.5912421631201E-06
(PID.TID 0000.0001) %MON advcfl_vvel_max              =   2.3924183749409E-06
(PID.TID 0000.0001) %MON advcfl_wvel_max              =   3.1421488824876E-06
(PID.TID 0000.0001) %MON advcfl_W_hf_max              =   4.8887873596473E-06
(PID.TID 0000.0001) %MON pe_b_mean                    =  -5.1153452673665E-09
(PID.TID 0000.0001) %MON ke_max                       =   6.3271933673069E-11
(PID.TID 0000.0001) %MON ke_mean                      =   4.4819798594669E-13
(PID.TID 0000.0001) %MON ke_vol                       =   3.4703745874271E+14
(PID.TID 0000.0001) %MON vort_r_min                   =  -2.5018558642420E-09
(PID.TID 0000.0001) %MON vort_r_max                   =   2.4267913738932E-09
(PID.TID 0000.0001) %MON vort_a_mean                  =  -1.3992981969341E-04
(PID.TID 0000.0001) %MON vort_a_sd                    =   1.7365066005725E-06
(PID.TID 0000.0001) %MON vort_p_mean                  =  -1.4746660592964E-04
(PID.TID 0000.0001) %MON vort_p_sd                    =   7.7973609301373E-05
(PID.TID 0000.0001) %MON surfExpan_theta_mean         =  -3.5924038083522E-13
(PID.TID 0000.0001) %MON surfExpan_salt_mean          =  -1.4613773810790E-13
(PID.TID 0000.0001) // =======================================================
(PID.TID 0000.0001) // End MONITOR dynamic field statistics
(PID.TID 0000.0001) // =======================================================
 cg2d: Sum(rhs),rhsMax =  -1.91846538655227E-13  4.19673884923154E-05
(PID.TID 0000.0001)                    cg2d_init_res =    7.40781521753216E+00
(PID.TID 0000.0001)                       cg2d_iters =   213
(PID.TID 0000.0001)                         cg2d_res =    8.71435329000981E-14
(PID.TID 0000.0001) // =======================================================
(PID.TID 0000.0001) // Begin MONITOR dynamic field statistics
(PID.TID 0000.0001) // =======================================================
(PID.TID 0000.0001) %MON time_tsnumber                =                     4
(PID.TID 0000.0001) %MON time_secondsf                =   7.2000000000000E+03
(PID.TID 0000.0001) %MON dynstat_eta_max              =   1.4213459871461E-05
(PID.TID 0000.0001) %MON dynstat_eta_min              =  -7.3252600372615E-06
(PID.TID 0000.0001) %MON dynstat_eta_mean             =   2.9280441532665E-21
(PID.TID 0000.0001) %MON dynstat_eta_sd               =   4.1430742582568E-06
(PID.TID 0000.0001) %MON dynstat_eta_del2             =   1.0713298287393E-07
(PID.TID 0000.0001) %MON dynstat_uvel_max             =   5.0665701427771E-06
(PID.TID 0000.0001) %MON dynstat_uvel_min             =  -1.1172254034413E-05
(PID.TID 0000.0001) %MON dynstat_uvel_mean            =   2.6313252324569E-08
(PID.TID 0000.0001) %MON dynstat_uvel_sd              =   8.5722007084384E-07
(PID.TID 0000.0001) %MON dynstat_uvel_del2            =   4.7357689493959E-09
(PID.TID 0000.0001) %MON dynstat_vvel_max             =   2.5582040282454E-05
(PID.TID 0000.0001) %MON dynstat_vvel_min             =  -5.3611508225556E-06
(PID.TID 0000.0001) %MON dynstat_vvel_mean            =  -3.5623256083614E-07
(PID.TID 0000.0001) %MON dynstat_vvel_sd              =   1.3985942980284E-06
(PID.TID 0000.0001) %MON dynstat_vvel_del2            =   3.7118055853907E-09
(PID.TID 0000.0001) %MON dynstat_wvel_max             =   6.8819626501378E-08
(PID.TID 0000.0001) %MON dynstat_wvel_min             =  -8.6395654713053E-08
(PID.TID 0000.0001) %MON dynstat_wvel_mean            =  -2.4409514815441E-10
(PID.TID 0000.0001) %MON dynstat_wvel_sd              =   4.6691427468905E-09
(PID.TID 0000.0001) %MON dynstat_wvel_del2            =   4.3662161720113E-11
(PID.TID 0000.0001) %MON dynstat_theta_max            =  -1.9000000000000E+00
(PID.TID 0000.0001) %MON dynstat_theta_min            =  -1.9027332828664E+00
(PID.TID 0000.0001) %MON dynstat_theta_mean           =  -1.9000230258545E+00
(PID.TID 0000.0001) %MON dynstat_theta_sd             =   1.7812975674732E-04
(PID.TID 0000.0001) %MON dynstat_theta_del2           =   2.0952774655341E-07
(PID.TID 0000.0001) %MON dynstat_salt_max             =   3.4400000000000E+01
(PID.TID 0000.0001) %MON dynstat_salt_min             =   3.4398884587709E+01
(PID.TID 0000.0001) %MON dynstat_salt_mean            =   3.4399990648512E+01
(PID.TID 0000.0001) %MON dynstat_salt_sd              =   7.2511458428730E-05
(PID.TID 0000.0001) %MON dynstat_salt_del2            =   8.5203893055142E-08
(PID.TID 0000.0001) %MON advcfl_uvel_max              =   3.3883870485344E-06
(PID.TID 0000.0001) %MON advcfl_vvel_max              =   4.1418167835682E-06
(PID.TID 0000.0001) %MON advcfl_wvel_max              =   5.1837392827832E-06
(PID.TID 0000.0001) %MON advcfl_W_hf_max              =   7.5686256373938E-06
(PID.TID 0000.0001) %MON pe_b_mean                    =  -1.0054759435112E-08
(PID.TID 0000.0001) %MON ke_max                       =   2.1353592520852E-10
(PID.TID 0000.0001) %MON ke_mean                      =   1.3881435800782E-12
(PID.TID 0000.0001) %MON ke_vol                       =   3.4703745874271E+14
(PID.TID 0000.0001) %MON vort_r_min                   =  -4.3312778053888E-09
(PID.TID 0000.0001) %MON vort_r_max                   =   4.1976341260290E-09
(PID.TID 0000.0001) %MON vort_a_mean                  =  -1.3992981968449E-04
(PID.TID 0000.0001) %MON vort_a_sd                    =   1.7365066333624E-06
(PID.TID 0000.0001) %MON vort_p_mean                  =  -1.4746660592023E-04
(PID.TID 0000.0001) %MON vort_p_sd                    =   7.7973564008824E-05
(PID.TID 0000.0001) %MON surfExpan_theta_mean         =  -7.3212021009617E-13
(PID.TID 0000.0001) %MON surfExpan_salt_mean          =  -2.9799401495619E-13
(PID.TID 0000.0001) // =======================================================
(PID.TID 0000.0001) // End MONITOR dynamic field statistics
(PID.TID 0000.0001) // =======================================================
 cg2d: Sum(rhs),rhsMax =  -1.27897692436818E-13  5.31066150826306E-05
(PID.TID 0000.0001)                    cg2d_init_res =    5.85325787913982E+00
(PID.TID 0000.0001)                       cg2d_iters =   213
(PID.TID 0000.0001)                         cg2d_res =    7.98364446945931E-14
(PID.TID 0000.0001) // =======================================================
(PID.TID 0000.0001) // Begin MONITOR dynamic field statistics
(PID.TID 0000.0001) // =======================================================
(PID.TID 0000.0001) %MON time_tsnumber                =                     5
(PID.TID 0000.0001) %MON time_secondsf                =   9.0000000000000E+03
(PID.TID 0000.0001) %MON dynstat_eta_max              =   2.0803476181959E-05
(PID.TID 0000.0001) %MON dynstat_eta_min              =  -9.6717930062945E-06
(PID.TID 0000.0001) %MON dynstat_eta_mean             =   1.0647433284605E-21
(PID.TID 0000.0001) %MON dynstat_eta_sd               =   6.3343246855309E-06
(PID.TID 0000.0001) %MON dynstat_eta_del2             =   1.3679644765254E-07
(PID.TID 0000.0001) %MON dynstat_uvel_max             =   7.3444170971337E-06
(PID.TID 0000.0001) %MON dynstat_uvel_min             =  -1.9724742645528E-05
(PID.TID 0000.0001) %MON dynstat_uvel_mean            =   2.6281205760283E-08
(PID.TID 0000.0001) %MON dynstat_uvel_sd              =   1.4130703875221E-06
(PID.TID 0000.0001) %MON dynstat_uvel_del2            =   6.5436858970671E-09
(PID.TID 0000.0001) %MON dynstat_vvel_max             =   3.7665464257300E-05
(PID.TID 0000.0001) %MON dynstat_vvel_min             =  -7.4380150308693E-06
(PID.TID 0000.0001) %MON dynstat_vvel_mean            =  -4.7869656429588E-07
(PID.TID 0000.0001) %MON dynstat_vvel_sd              =   2.0686108679350E-06
(PID.TID 0000.0001) %MON dynstat_vvel_del2            =   5.4423758335082E-09
(PID.TID 0000.0001) %MON dynstat_wvel_max             =   1.1656914586574E-07
(PID.TID 0000.0001) %MON dynstat_wvel_min             =  -1.2473491337795E-07
(PID.TID 0000.0001) %MON dynstat_wvel_mean            =  -3.1831057918548E-10
(PID.TID 0000.0001) %MON dynstat_wvel_sd              =   6.9631919698255E-09
(PID.TID 0000.0001) %MON dynstat_wvel_del2            =   6.3845101190850E-11
(PID.TID 0000.0001) %MON dynstat_theta_max            =  -1.9000000000000E+00
(PID.TID 0000.0001) %MON dynstat_theta_min            =  -1.9034140956644E+00
(PID.TID 0000.0001) %MON dynstat_theta_mean           =  -1.9000287648577E+00
(PID.TID 0000.0001) %MON dynstat_theta_sd             =   2.2247966737257E-04
(PID.TID 0000.0001) %MON dynstat_theta_del2           =   2.6133842206424E-07
(PID.TID 0000.0001) %MON dynstat_salt_max             =   3.4400000000000E+01
(PID.TID 0000.0001) %MON dynstat_salt_min             =   3.4398606763059E+01
(PID.TID 0000.0001) %MON dynstat_salt_mean            =   3.4399988317798E+01
(PID.TID 0000.0001) %MON dynstat_salt_sd              =   9.0564559417537E-05
(PID.TID 0000.0001) %MON dynstat_salt_del2            =   1.0627193041487E-07
(PID.TID 0000.0001) %MON advcfl_uvel_max              =   5.9822361995994E-06
(PID.TID 0000.0001) %MON advcfl_vvel_max              =   6.0981630198107E-06
(PID.TID 0000.0001) %MON advcfl_wvel_max              =   7.4840948026771E-06
(PID.TID 0000.0001) %MON advcfl_W_hf_max              =   1.0688793706505E-05
(PID.TID 0000.0001) %MON pe_b_mean                    =  -1.6382148100636E-08
(PID.TID 0000.0001) %MON ke_max                       =   5.2582079936353E-10
(PID.TID 0000.0001) %MON ke_mean                      =   3.2030748106933E-12
(PID.TID 0000.0001) %MON ke_vol                       =   3.4703745874271E+14
(PID.TID 0000.0001) %MON vort_r_min                   =  -6.3771140833985E-09
(PID.TID 0000.0001) %MON vort_r_max                   =   6.1790351629936E-09
(PID.TID 0000.0001) %MON vort_a_mean                  =  -1.3992981966599E-04
(PID.TID 0000.0001) %MON vort_a_sd                    =   1.7365066756411E-06
(PID.TID 0000.0001) %MON vort_p_mean                  =  -1.4746660590074E-04
(PID.TID 0000.0001) %MON vort_p_sd                    =   7.7973491461295E-05
(PID.TID 0000.0001) %MON surfExpan_theta_mean         =  -1.1918833050646E-12
(PID.TID 0000.0001) %MON surfExpan_salt_mean          =  -4.8522351134640E-13
(PID.TID 0000.0001) // =======================================================
(PID.TID 0000.0001) // End MONITOR dynamic field statistics
(PID.TID 0000.0001) // =======================================================
 cg2d: Sum(rhs),rhsMax =  -1.42108547152020E-14  6.41365467136615E-05
(PID.TID 0000.0001)                    cg2d_init_res =    4.83984105993824E+00
(PID.TID 0000.0001)                       cg2d_iters =   212
(PID.TID 0000.0001)                         cg2d_res =    9.24162820419694E-14
(PID.TID 0000.0001) // =======================================================
(PID.TID 0000.0001) // Begin MONITOR dynamic field statistics
(PID.TID 0000.0001) // =======================================================
(PID.TID 0000.0001) %MON time_tsnumber                =                     6
(PID.TID 0000.0001) %MON time_secondsf                =   1.0800000000000E+04
(PID.TID 0000.0001) %MON dynstat_eta_max              =   2.7998994024733E-05
(PID.TID 0000.0001) %MON dynstat_eta_min              =  -1.1809119933361E-05
(PID.TID 0000.0001) %MON dynstat_eta_mean             =  -9.0503182919146E-21
(PID.TID 0000.0001) %MON dynstat_eta_sd               =   8.8945410143382E-06
(PID.TID 0000.0001) %MON dynstat_eta_del2             =   1.6642575090230E-07
(PID.TID 0000.0001) %MON dynstat_uvel_max             =   9.8871369082660E-06
(PID.TID 0000.0001) %MON dynstat_uvel_min             =  -3.0965277448418E-05
(PID.TID 0000.0001) %MON dynstat_uvel_mean            =   1.9525303816634E-08
(PID.TID 0000.0001) %MON dynstat_uvel_sd              =   2.1461165647687E-06
(PID.TID 0000.0001) %MON dynstat_uvel_del2            =   8.4776246047458E-09
(PID.TID 0000.0001) %MON dynstat_vvel_max             =   5.0200246337517E-05
(PID.TID 0000.0001) %MON dynstat_vvel_min             =  -9.4227299829616E-06
(PID.TID 0000.0001) %MON dynstat_vvel_mean            =  -5.7146144342013E-07
(PID.TID 0000.0001) %MON dynstat_vvel_sd              =   2.7657373192807E-06
(PID.TID 0000.0001) %MON dynstat_vvel_del2            =   7.2238375722068E-09
(PID.TID 0000.0001) %MON dynstat_wvel_max             =   1.7813538908670E-07
(PID.TID 0000.0001) %MON dynstat_wvel_min             =  -1.8029035903097E-07
(PID.TID 0000.0001) %MON dynstat_wvel_mean            =  -3.7334248877428E-10
(PID.TID 0000.0001) %MON dynstat_wvel_sd              =   9.4765910046751E-09
(PID.TID 0000.0001) %MON dynstat_wvel_del2            =   8.4677349180623E-11
(PID.TID 0000.0001) %MON dynstat_theta_max            =  -1.9000000000000E+00
(PID.TID 0000.0001) %MON dynstat_theta_min            =  -1.9040939658950E+00
(PID.TID 0000.0001) %MON dynstat_theta_mean           =  -1.9000344972972E+00
(PID.TID 0000.0001) %MON dynstat_theta_sd             =   2.6676102393274E-04
(PID.TID 0000.0001) %MON dynstat_theta_del2           =   3.1293556857623E-07
(PID.TID 0000.0001) %MON dynstat_salt_max             =   3.4400000000000E+01
(PID.TID 0000.0001) %MON dynstat_salt_min             =   3.4398329324919E+01
(PID.TID 0000.0001) %MON dynstat_salt_mean            =   3.4399985989776E+01
(PID.TID 0000.0001) %MON dynstat_salt_sd              =   1.0858958105297E-04
(PID.TID 0000.0001) %MON dynstat_salt_del2            =   1.2725280705770E-07
(PID.TID 0000.0001) %MON advcfl_uvel_max              =   9.3913318420181E-06
(PID.TID 0000.0001) %MON advcfl_vvel_max              =   8.1275856235200E-06
(PID.TID 0000.0001) %MON advcfl_wvel_max              =   1.0817421541858E-05
(PID.TID 0000.0001) %MON advcfl_W_hf_max              =   1.4010392469797E-05
(PID.TID 0000.0001) %MON pe_b_mean                    =  -2.3758648529661E-08
(PID.TID 0000.0001) %MON ke_max                       =   1.0722911032676E-09
(PID.TID 0000.0001) %MON ke_mean                      =   6.1919787319037E-12
(PID.TID 0000.0001) %MON ke_vol                       =   3.4703745874271E+14
(PID.TID 0000.0001) %MON vort_r_min                   =  -8.4993694946163E-09
(PID.TID 0000.0001) %MON vort_r_max                   =   8.2345175047308E-09
(PID.TID 0000.0001) %MON vort_a_mean                  =  -1.3992981963796E-04
(PID.TID 0000.0001) %MON vort_a_sd                    =   1.7365067274048E-06
(PID.TID 0000.0001) %MON vort_p_mean                  =  -1.4746660587120E-04
(PID.TID 0000.0001) %MON vort_p_sd                    =   7.7973390161580E-05
(PID.TID 0000.0001) %MON surfExpan_theta_mean         =  -1.6756286903692E-12
(PID.TID 0000.0001) %MON surfExpan_salt_mean          =  -6.8218942454948E-13
(PID.TID 0000.0001) // =======================================================
(PID.TID 0000.0001) // End MONITOR dynamic field statistics
(PID.TID 0000.0001) // =======================================================
 cg2d: Sum(rhs),rhsMax =  -9.94759830064140E-14  7.49478730917312E-05
(PID.TID 0000.0001)                    cg2d_init_res =    4.13543878383351E+00
(PID.TID 0000.0001)                       cg2d_iters =   211
(PID.TID 0000.0001)                         cg2d_res =    9.91051879850304E-14
(PID.TID 0000.0001) // =======================================================
(PID.TID 0000.0001) // Begin MONITOR dynamic field statistics
(PID.TID 0000.0001) // =======================================================
(PID.TID 0000.0001) %MON time_tsnumber                =                     7
(PID.TID 0000.0001) %MON time_secondsf                =   1.2600000000000E+04
(PID.TID 0000.0001) %MON dynstat_eta_max              =   3.5358268991602E-05
(PID.TID 0000.0001) %MON dynstat_eta_min              =  -1.3665214161920E-05
(PID.TID 0000.0001) %MON dynstat_eta_mean             =  -7.4532032992238E-21
(PID.TID 0000.0001) %MON dynstat_eta_sd               =   1.1675815791172E-05
(PID.TID 0000.0001) %MON dynstat_eta_del2             =   1.9601726188154E-07
(PID.TID 0000.0001) %MON dynstat_uvel_max             =   1.2619923186848E-05
(PID.TID 0000.0001) %MON dynstat_uvel_min             =  -4.4807442047394E-05
(PID.TID 0000.0001) %MON dynstat_uvel_mean            =   8.3776209407218E-09
(PID.TID 0000.0001) %MON dynstat_uvel_sd              =   3.0545360517270E-06
(PID.TID 0000.0001) %MON dynstat_uvel_del2            =   1.0522344942673E-08
(PID.TID 0000.0001) %MON dynstat_vvel_max             =   6.2382875579315E-05
(PID.TID 0000.0001) %MON dynstat_vvel_min             =  -1.1186324050944E-05
(PID.TID 0000.0001) %MON dynstat_vvel_mean            =  -6.2524938020934E-07
(PID.TID 0000.0001) %MON dynstat_vvel_sd              =   3.4436313692816E-06
(PID.TID 0000.0001) %MON dynstat_vvel_del2            =   8.9422513172164E-09
(PID.TID 0000.0001) %MON dynstat_wvel_max             =   2.5149101257495E-07
(PID.TID 0000.0001) %MON dynstat_wvel_min             =  -2.5123110589394E-07
(PID.TID 0000.0001) %MON dynstat_wvel_mean            =  -4.0434977632906E-10
(PID.TID 0000.0001) %MON dynstat_wvel_sd              =   1.2118302540071E-08
(PID.TID 0000.0001) %MON dynstat_wvel_del2            =   1.0489113023768E-10
(PID.TID 0000.0001) %MON dynstat_theta_max            =  -1.9000000000000E+00
(PID.TID 0000.0001) %MON dynstat_theta_min            =  -1.9047728955573E+00
(PID.TID 0000.0001) %MON dynstat_theta_mean           =  -1.9000402231846E+00
(PID.TID 0000.0001) %MON dynstat_theta_sd             =   3.1097397299865E-04
(PID.TID 0000.0001) %MON dynstat_theta_del2           =   3.6432310417137E-07
(PID.TID 0000.0001) %MON dynstat_salt_max             =   3.4400000000000E+01
(PID.TID 0000.0001) %MON dynstat_salt_min             =   3.4398052272468E+01
(PID.TID 0000.0001) %MON dynstat_salt_mean            =   3.4399983664440E+01
(PID.TID 0000.0001) %MON dynstat_salt_sd              =   1.2658658352962E-04
(PID.TID 0000.0001) %MON dynstat_salt_del2            =   1.4814817902907E-07
(PID.TID 0000.0001) %MON advcfl_uvel_max              =   1.3589465102002E-05
(PID.TID 0000.0001) %MON advcfl_vvel_max              =   1.0099993520019E-05
(PID.TID 0000.0001) %MON advcfl_wvel_max              =   1.5089460754497E-05
(PID.TID 0000.0001) %MON advcfl_W_hf_max              =   1.9293701873281E-05
(PID.TID 0000.0001) %MON pe_b_mean                    =  -3.1750327338732E-08
(PID.TID 0000.0001) %MON ke_max                       =   1.9208138754758E-09
(PID.TID 0000.0001) %MON ke_mean                      =   1.0614745505557E-11
(PID.TID 0000.0001) %MON ke_vol                       =   3.4703745874271E+14
(PID.TID 0000.0001) %MON vort_r_min                   =  -1.0562002148763E-08
(PID.TID 0000.0001) %MON vort_r_max                   =   1.0230879622403E-08
(PID.TID 0000.0001) %MON vort_a_mean                  =  -1.3992981960403E-04
(PID.TID 0000.0001) %MON vort_a_sd                    =   1.7365067764743E-06
(PID.TID 0000.0001) %MON vort_p_mean                  =  -1.4746660583544E-04
(PID.TID 0000.0001) %MON vort_p_sd                    =   7.7973260685675E-05
(PID.TID 0000.0001) %MON surfExpan_theta_mean         =  -2.1148321773446E-12
(PID.TID 0000.0001) %MON surfExpan_salt_mean          =  -8.6098231401906E-13
(PID.TID 0000.0001) // =======================================================
(PID.TID 0000.0001) // End MONITOR dynamic field statistics
(PID.TID 0000.0001) // =======================================================
 cg2d: Sum(rhs),rhsMax =  -5.68434188608080E-14  8.55193472105932E-05
(PID.TID 0000.0001)                    cg2d_init_res =    3.61862072704950E+00
(PID.TID 0000.0001)                       cg2d_iters =   210
(PID.TID 0000.0001)                         cg2d_res =    8.98163440306731E-14
(PID.TID 0000.0001) // =======================================================
(PID.TID 0000.0001) // Begin MONITOR dynamic field statistics
(PID.TID 0000.0001) // =======================================================
(PID.TID 0000.0001) %MON time_tsnumber                =                     8
(PID.TID 0000.0001) %MON time_secondsf                =   1.4400000000000E+04
(PID.TID 0000.0001) %MON dynstat_eta_max              =   4.2522949217961E-05
(PID.TID 0000.0001) %MON dynstat_eta_min              =  -1.5215545908033E-05
(PID.TID 0000.0001) %MON dynstat_eta_mean             =  -2.2359609897671E-20
(PID.TID 0000.0001) %MON dynstat_eta_sd               =   1.4514454501078E-05
(PID.TID 0000.0001) %MON dynstat_eta_del2             =   2.2556959933959E-07
(PID.TID 0000.0001) %MON dynstat_uvel_max             =   1.5460162721773E-05
(PID.TID 0000.0001) %MON dynstat_uvel_min             =  -6.0952932189880E-05
(PID.TID 0000.0001) %MON dynstat_uvel_mean            =  -4.2296674764816E-09
(PID.TID 0000.0001) %MON dynstat_uvel_sd              =   4.1236881899634E-06
(PID.TID 0000.0001) %MON dynstat_uvel_del2            =   1.2669035640583E-08
(PID.TID 0000.0001) %MON dynstat_vvel_max             =   7.3482355547409E-05
(PID.TID 0000.0001) %MON dynstat_vvel_min             =  -1.2632194541474E-05
(PID.TID 0000.0001) %MON dynstat_vvel_mean            =  -6.3779354743909E-07
(PID.TID 0000.0001) %MON dynstat_vvel_sd              =   4.0595629172879E-06
(PID.TID 0000.0001) %MON dynstat_vvel_del2            =   1.0496901852506E-08
(PID.TID 0000.0001) %MON dynstat_wvel_max             =   3.3480882058035E-07
(PID.TID 0000.0001) %MON dynstat_wvel_min             =  -3.3106220331532E-07
(PID.TID 0000.0001) %MON dynstat_wvel_mean            =  -4.1020785716372E-10
(PID.TID 0000.0001) %MON dynstat_wvel_sd              =   1.4809515672544E-08
(PID.TID 0000.0001) %MON dynstat_wvel_del2            =   1.2339703844713E-10
(PID.TID 0000.0001) %MON dynstat_theta_max            =  -1.9000000000000E+00
(PID.TID 0000.0001) %MON dynstat_theta_min            =  -1.9054508868567E+00
(PID.TID 0000.0001) %MON dynstat_theta_mean           =  -1.9000459425315E+00
(PID.TID 0000.0001) %MON dynstat_theta_sd             =   3.5511866174692E-04
(PID.TID 0000.0001) %MON dynstat_theta_del2           =   4.1550172550172E-07
(PID.TID 0000.0001) %MON dynstat_salt_max             =   3.4400000000000E+01
(PID.TID 0000.0001) %MON dynstat_salt_min             =   3.4397775604797E+01
(PID.TID 0000.0001) %MON dynstat_salt_mean            =   3.4399981341786E+01
(PID.TID 0000.0001) %MON dynstat_salt_sd              =   1.4455562728797E-04
(PID.TID 0000.0001) %MON dynstat_salt_del2            =   1.6895832404622E-07
(PID.TID 0000.0001) %MON advcfl_uvel_max              =   1.8486164507737E-05
(PID.TID 0000.0001) %MON advcfl_vvel_max              =   1.1897035972972E-05
(PID.TID 0000.0001) %MON advcfl_wvel_max              =   2.0088529234821E-05
(PID.TID 0000.0001) %MON advcfl_W_hf_max              =   2.5126358059728E-05
(PID.TID 0000.0001) %MON pe_b_mean                    =  -3.9887757027629E-08
(PID.TID 0000.0001) %MON ke_max                       =   3.1313659497386E-09
(PID.TID 0000.0001) %MON ke_mean                      =   1.6662098887736E-11
(PID.TID 0000.0001) %MON ke_vol                       =   3.4703745874271E+14
(PID.TID 0000.0001) %MON vort_r_min                   =  -1.2441247537573E-08
(PID.TID 0000.0001) %MON vort_r_max                   =   1.2046982692519E-08
(PID.TID 0000.0001) %MON vort_a_mean                  =  -1.3992981956966E-04
(PID.TID 0000.0001) %MON vort_a_sd                    =   1.7365068065423E-06
(PID.TID 0000.0001) %MON vort_p_mean                  =  -1.4746660579923E-04
(PID.TID 0000.0001) %MON vort_p_sd                    =   7.7973105437315E-05
(PID.TID 0000.0001) %MON surfExpan_theta_mean         =  -2.4493014147060E-12
(PID.TID 0000.0001) %MON surfExpan_salt_mean          =  -9.9709820750671E-13
(PID.TID 0000.0001) // =======================================================
(PID.TID 0000.0001) // End MONITOR dynamic field statistics
(PID.TID 0000.0001) // =======================================================
 cg2d: Sum(rhs),rhsMax =   1.35003119794419E-13  9.58454447599095E-05
(PID.TID 0000.0001)                    cg2d_init_res =    3.22359492198039E+00
(PID.TID 0000.0001)                       cg2d_iters =   208
(PID.TID 0000.0001)                         cg2d_res =    9.09236291474556E-14
(PID.TID 0000.0001) // =======================================================
(PID.TID 0000.0001) // Begin MONITOR dynamic field statistics
(PID.TID 0000.0001) // =======================================================
(PID.TID 0000.0001) %MON time_tsnumber                =                     9
(PID.TID 0000.0001) %MON time_secondsf                =   1.6200000000000E+04
(PID.TID 0000.0001) %MON dynstat_eta_max              =   4.9241773757025E-05
(PID.TID 0000.0001) %MON dynstat_eta_min              =  -1.6526824206583E-05
(PID.TID 0000.0001) %MON dynstat_eta_mean             =   4.2589733138421E-21
(PID.TID 0000.0001) %MON dynstat_eta_sd               =   1.7258225054778E-05
(PID.TID 0000.0001) %MON dynstat_eta_del2             =   2.5508095075377E-07
(PID.TID 0000.0001) %MON dynstat_uvel_max             =   1.8334338902777E-05
(PID.TID 0000.0001) %MON dynstat_uvel_min             =  -7.8931068118463E-05
(PID.TID 0000.0001) %MON dynstat_uvel_mean            =  -1.5844730781891E-08
(PID.TID 0000.0001) %MON dynstat_uvel_sd              =   5.3283662124838E-06
(PID.TID 0000.0001) %MON dynstat_uvel_del2            =   1.4909617694106E-08
(PID.TID 0000.0001) %MON dynstat_vvel_max             =   8.2883618789210E-05
(PID.TID 0000.0001) %MON dynstat_vvel_min             =  -1.3962711393354E-05
(PID.TID 0000.0001) %MON dynstat_vvel_mean            =  -6.1277351254408E-07
(PID.TID 0000.0001) %MON dynstat_vvel_sd              =   4.5770186924644E-06
(PID.TID 0000.0001) %MON dynstat_vvel_del2            =   1.1805680436242E-08
(PID.TID 0000.0001) %MON dynstat_wvel_max             =   4.2575058996443E-07
(PID.TID 0000.0001) %MON dynstat_wvel_min             =  -4.1743232063641E-07
(PID.TID 0000.0001) %MON dynstat_wvel_mean            =  -3.9320670673640E-10
(PID.TID 0000.0001) %MON dynstat_wvel_sd              =   1.7485534316927E-08
(PID.TID 0000.0001) %MON dynstat_wvel_del2            =   1.3934665221128E-10
(PID.TID 0000.0001) %MON dynstat_theta_max            =  -1.9000000000000E+00
(PID.TID 0000.0001) %MON dynstat_theta_min            =  -1.9061279421991E+00
(PID.TID 0000.0001) %MON dynstat_theta_mean           =  -1.9000516553497E+00
(PID.TID 0000.0001) %MON dynstat_theta_sd             =   3.9919523763305E-04
(PID.TID 0000.0001) %MON dynstat_theta_del2           =   4.6647243054905E-07
(PID.TID 0000.0001) %MON dynstat_salt_max             =   3.4400000000000E+01
(PID.TID 0000.0001) %MON dynstat_salt_min             =   3.4397499320918E+01
(PID.TID 0000.0001) %MON dynstat_salt_mean            =   3.4399979021809E+01
(PID.TID 0000.0001) %MON dynstat_salt_sd              =   1.6249677288164E-04
(PID.TID 0000.0001) %MON dynstat_salt_del2            =   1.8968364661426E-07
(PID.TID 0000.0001) %MON advcfl_uvel_max              =   2.3938679528392E-05
(PID.TID 0000.0001) %MON advcfl_vvel_max              =   1.3419131531095E-05
(PID.TID 0000.0001) %MON advcfl_wvel_max              =   2.5545035397866E-05
(PID.TID 0000.0001) %MON advcfl_W_hf_max              =   3.1327696588062E-05
(PID.TID 0000.0001) %MON pe_b_mean                    =  -4.7732375146895E-08
(PID.TID 0000.0001) %MON ke_max                       =   4.7338549465305E-09
(PID.TID 0000.0001) %MON ke_mean                      =   2.4429281495641E-11
(PID.TID 0000.0001) %MON ke_vol                       =   3.4703745874271E+14
(PID.TID 0000.0001) %MON vort_r_min                   =  -1.4032969009834E-08
(PID.TID 0000.0001) %MON vort_r_max                   =   1.3581123819904E-08
(PID.TID 0000.0001) %MON vort_a_mean                  =  -1.3992981954013E-04
(PID.TID 0000.0001) %MON vort_a_sd                    =   1.7365067996515E-06
(PID.TID 0000.0001) %MON vort_p_mean                  =  -1.4746660576810E-04
(PID.TID 0000.0001) %MON vort_p_sd                    =   7.7972928339662E-05
(PID.TID 0000.0001) %MON surfExpan_theta_mean         =  -2.6387509309855E-12
(PID.TID 0000.0001) %MON surfExpan_salt_mean          =  -1.0741441158793E-12
(PID.TID 0000.0001) // =======================================================
(PID.TID 0000.0001) // End MONITOR dynamic field statistics
(PID.TID 0000.0001) // =======================================================
 cg2d: Sum(rhs),rhsMax =   3.55271367880050E-14  1.05935583862416E-04
(PID.TID 0000.0001)                    cg2d_init_res =    2.91173443708765E+00
(PID.TID 0000.0001)                       cg2d_iters =   208
(PID.TID 0000.0001)                         cg2d_res =    9.79953254614888E-14
(PID.TID 0000.0001) // =======================================================
(PID.TID 0000.0001) // Begin MONITOR dynamic field statistics
(PID.TID 0000.0001) // =======================================================
(PID.TID 0000.0001) %MON time_tsnumber                =                    10
(PID.TID 0000.0001) %MON time_secondsf                =   1.8000000000000E+04
(PID.TID 0000.0001) %MON dynstat_eta_max              =   5.5360364795778E-05
(PID.TID 0000.0001) %MON dynstat_eta_min              =  -1.7602353637533E-05
(PID.TID 0000.0001) %MON dynstat_eta_mean             =   4.2589733138421E-21
(PID.TID 0000.0001) %MON dynstat_eta_sd               =   1.9786551624094E-05
(PID.TID 0000.0001) %MON dynstat_eta_del2             =   2.8454937263741E-07
(PID.TID 0000.0001) %MON dynstat_uvel_max             =   2.1167272622859E-05
(PID.TID 0000.0001) %MON dynstat_uvel_min             =  -9.8209008571612E-05
(PID.TID 0000.0001) %MON dynstat_uvel_mean            =  -2.4913710915165E-08
(PID.TID 0000.0001) %MON dynstat_uvel_sd              =   6.6352973915227E-06
(PID.TID 0000.0001) %MON dynstat_uvel_del2            =   1.7231662698776E-08
(PID.TID 0000.0001) %MON dynstat_vvel_max             =   9.0120943481083E-05
(PID.TID 0000.0001) %MON dynstat_vvel_min             =  -1.5199017868658E-05
(PID.TID 0000.0001) %MON dynstat_vvel_mean            =  -5.5827606542992E-07
(PID.TID 0000.0001) %MON dynstat_vvel_sd              =   4.9677116914744E-06
(PID.TID 0000.0001) %MON dynstat_vvel_del2            =   1.2808798428651E-08
(PID.TID 0000.0001) %MON dynstat_wvel_max             =   5.2163927814490E-07
(PID.TID 0000.0001) %MON dynstat_wvel_min             =  -5.0771759627649E-07
(PID.TID 0000.0001) %MON dynstat_wvel_mean            =  -3.5829952961947E-10
(PID.TID 0000.0001) %MON dynstat_wvel_sd              =   2.0095715118424E-08
(PID.TID 0000.0001) %MON dynstat_wvel_del2            =   1.5216949013368E-10
(PID.TID 0000.0001) %MON dynstat_theta_max            =  -1.9000000000000E+00
(PID.TID 0000.0001) %MON dynstat_theta_min            =  -1.9068040641623E+00
(PID.TID 0000.0001) %MON dynstat_theta_mean           =  -1.9000573616511E+00
(PID.TID 0000.0001) %MON dynstat_theta_sd             =   4.4320384799062E-04
(PID.TID 0000.0001) %MON dynstat_theta_del2           =   5.1723627079389E-07
(PID.TID 0000.0001) %MON dynstat_salt_max             =   3.4400000000000E+01
(PID.TID 0000.0001) %MON dynstat_salt_min             =   3.4397223419772E+01
(PID.TID 0000.0001) %MON dynstat_salt_mean            =   3.4399976704504E+01
(PID.TID 0000.0001) %MON dynstat_salt_sd              =   1.8041008081298E-04
(PID.TID 0000.0001) %MON dynstat_salt_del2            =   2.1032457415062E-07
(PID.TID 0000.0001) %MON advcfl_uvel_max              =   2.9785406925806E-05
(PID.TID 0000.0001) %MON advcfl_vvel_max              =   1.4590878293509E-05
(PID.TID 0000.0001) %MON advcfl_wvel_max              =   3.1298356688694E-05
(PID.TID 0000.0001) %MON advcfl_W_hf_max              =   3.7705114896014E-05
(PID.TID 0000.0001) %MON pe_b_mean                    =  -5.4933758793163E-08
(PID.TID 0000.0001) %MON ke_max                       =   6.7274797680078E-09
(PID.TID 0000.0001) %MON ke_mean                      =   3.3896457375244E-11
(PID.TID 0000.0001) %MON ke_vol                       =   3.4703745874271E+14
(PID.TID 0000.0001) %MON vort_r_min                   =  -1.5258315520988E-08
(PID.TID 0000.0001) %MON vort_r_max                   =   1.4756620140625E-08
(PID.TID 0000.0001) %MON vort_a_mean                  =  -1.3992981951915E-04
(PID.TID 0000.0001) %MON vort_a_sd                    =   1.7365067462225E-06
(PID.TID 0000.0001) %MON vort_p_mean                  =  -1.4746660574599E-04
(PID.TID 0000.0001) %MON vort_p_sd                    =   7.7972734480952E-05
(PID.TID 0000.0001) %MON surfExpan_theta_mean         =  -2.6695990235897E-12
(PID.TID 0000.0001) %MON surfExpan_salt_mean          =  -1.0865994233515E-12
(PID.TID 0000.0001) // =======================================================
(PID.TID 0000.0001) // End MONITOR dynamic field statistics
(PID.TID 0000.0001) // =======================================================
 Computing Diagnostic #    177  SHIfwFlx     Counter:      10   Parms: SM      L1      
 Computing Diagnostic #    178  SHIhtFlx     Counter:      10   Parms: SM      L1      
 Computing Diagnostic #    183  ICFfwFlx     Counter:      10   Parms: SM      MR      
 Computing Diagnostic #    184  ICFhtFlx     Counter:      10   Parms: SM      MR      
 cg2d: Sum(rhs),rhsMax =  -2.06057393370429E-13  1.15812192373622E-04
(PID.TID 0000.0001)                    cg2d_init_res =    2.65887938222606E+00
(PID.TID 0000.0001)                       cg2d_iters =   209
(PID.TID 0000.0001)                         cg2d_res =    7.83172285575357E-14
(PID.TID 0000.0001) // =======================================================
(PID.TID 0000.0001) // Begin MONITOR dynamic field statistics
(PID.TID 0000.0001) // =======================================================
(PID.TID 0000.0001) %MON time_tsnumber                =                    11
(PID.TID 0000.0001) %MON time_secondsf                =   1.9800000000000E+04
(PID.TID 0000.0001) %MON dynstat_eta_max              =   6.1919370100284E-05
(PID.TID 0000.0001) %MON dynstat_eta_min              =  -1.8945519878493E-05
(PID.TID 0000.0001) %MON dynstat_eta_mean             =  -2.1294866569211E-21
(PID.TID 0000.0001) %MON dynstat_eta_sd               =   2.2022439969149E-05
(PID.TID 0000.0001) %MON dynstat_eta_del2             =   3.1397298818744E-07
(PID.TID 0000.0001) %MON dynstat_uvel_max             =   2.3865943615942E-05
(PID.TID 0000.0001) %MON dynstat_uvel_min             =  -1.1820156811040E-04
(PID.TID 0000.0001) %MON dynstat_uvel_mean            =  -3.0716864862769E-08
(PID.TID 0000.0001) %MON dynstat_uvel_sd              =   8.0058649367868E-06
(PID.TID 0000.0001) %MON dynstat_uvel_del2            =   1.9615010691057E-08
(PID.TID 0000.0001) %MON dynstat_vvel_max             =   9.4899280353904E-05
(PID.TID 0000.0001) %MON dynstat_vvel_min             =  -1.6082570029711E-05
(PID.TID 0000.0001) %MON dynstat_vvel_mean            =  -4.8499254165828E-07
(PID.TID 0000.0001) %MON dynstat_vvel_sd              =   5.2129761523584E-06
(PID.TID 0000.0001) %MON dynstat_vvel_del2            =   1.3470776000759E-08
(PID.TID 0000.0001) %MON dynstat_wvel_max             =   6.1965594510329E-07
(PID.TID 0000.0001) %MON dynstat_wvel_min             =  -5.9921126605277E-07
(PID.TID 0000.0001) %MON dynstat_wvel_mean            =  -3.1204447239729E-10
(PID.TID 0000.0001) %MON dynstat_wvel_sd              =   2.2602109137649E-08
(PID.TID 0000.0001) %MON dynstat_wvel_del2            =   1.6158769890372E-10
(PID.TID 0000.0001) %MON dynstat_theta_max            =  -1.9000000000000E+00
(PID.TID 0000.0001) %MON dynstat_theta_min            =  -1.9074792554501E+00
(PID.TID 0000.0001) %MON dynstat_theta_mean           =  -1.9000630614475E+00
(PID.TID 0000.0001) %MON dynstat_theta_sd             =   4.8714463964880E-04
(PID.TID 0000.0001) %MON dynstat_theta_del2           =   5.6779429544280E-07
(PID.TID 0000.0001) %MON dynstat_salt_max             =   3.4400000000000E+01
(PID.TID 0000.0001) %MON dynstat_salt_min             =   3.4396947900248E+01
(PID.TID 0000.0001) %MON dynstat_salt_mean            =   3.4399974389866E+01
(PID.TID 0000.0001) %MON dynstat_salt_sd              =   1.9829561137682E-04
(PID.TID 0000.0001) %MON dynstat_salt_del2            =   2.3088153366194E-07
(PID.TID 0000.0001) %MON advcfl_uvel_max              =   3.5848868211202E-05
(PID.TID 0000.0001) %MON advcfl_vvel_max              =   1.5364506809409E-05
(PID.TID 0000.0001) %MON advcfl_wvel_max              =   3.7179356706198E-05
(PID.TID 0000.0001) %MON advcfl_W_hf_max              =   4.4067660274232E-05
(PID.TID 0000.0001) %MON pe_b_mean                    =  -6.1266005924376E-08
(PID.TID 0000.0001) %MON ke_max                       =   9.0798758528507E-09
(PID.TID 0000.0001) %MON ke_mean                      =   4.4919661459024E-11
(PID.TID 0000.0001) %MON ke_vol                       =   3.4703745874271E+14
(PID.TID 0000.0001) %MON vort_r_min                   =  -1.6067332480363E-08
(PID.TID 0000.0001) %MON vort_r_max                   =   1.5525323019793E-08
(PID.TID 0000.0001) %MON vort_a_mean                  =  -1.3992981950866E-04
(PID.TID 0000.0001) %MON vort_a_sd                    =   1.7365066417899E-06
(PID.TID 0000.0001) %MON vort_p_mean                  =  -1.4746660573494E-04
(PID.TID 0000.0001) %MON vort_p_sd                    =   7.7972529724673E-05
(PID.TID 0000.0001) %MON surfExpan_theta_mean         =  -2.5560049675546E-12
(PID.TID 0000.0001) %MON surfExpan_salt_mean          =  -1.0402360132404E-12
(PID.TID 0000.0001) // =======================================================
(PID.TID 0000.0001) // End MONITOR dynamic field statistics
(PID.TID 0000.0001) // =======================================================
 cg2d: Sum(rhs),rhsMax =   1.13686837721616E-13  1.25507231527347E-04
(PID.TID 0000.0001)                    cg2d_init_res =    2.44918919768450E+00
(PID.TID 0000.0001)                       cg2d_iters =   209
(PID.TID 0000.0001)                         cg2d_res =    7.64830779461665E-14
(PID.TID 0000.0001) // =======================================================
(PID.TID 0000.0001) // Begin MONITOR dynamic field statistics
(PID.TID 0000.0001) // =======================================================
(PID.TID 0000.0001) %MON time_tsnumber                =                    12
(PID.TID 0000.0001) %MON time_secondsf                =   2.1600000000000E+04
(PID.TID 0000.0001) %MON dynstat_eta_max              =   6.7942456936587E-05
(PID.TID 0000.0001) %MON dynstat_eta_min              =  -2.0250534515086E-05
(PID.TID 0000.0001) %MON dynstat_eta_mean             =   6.3884599707632E-21
(PID.TID 0000.0001) %MON dynstat_eta_sd               =   2.3936063909552E-05
(PID.TID 0000.0001) %MON dynstat_eta_del2             =   3.4335012907269E-07
(PID.TID 0000.0001) %MON dynstat_uvel_max             =   2.6361088652312E-05
(PID.TID 0000.0001) %MON dynstat_uvel_min             =  -1.3830902231000E-04
(PID.TID 0000.0001) %MON dynstat_uvel_mean            =  -3.3122047425704E-08
(PID.TID 0000.0001) %MON dynstat_uvel_sd              =   9.3989647305062E-06
(PID.TID 0000.0001) %MON dynstat_uvel_del2            =   2.2030672523636E-08
(PID.TID 0000.0001) %MON dynstat_vvel_max             =   9.7102653105146E-05
(PID.TID 0000.0001) %MON dynstat_vvel_min             =  -1.6597351753312E-05
(PID.TID 0000.0001) %MON dynstat_vvel_mean            =  -4.0437024325760E-07
(PID.TID 0000.0001) %MON dynstat_vvel_sd              =   5.3045197812435E-06
(PID.TID 0000.0001) %MON dynstat_vvel_del2            =   1.3780766441774E-08
(PID.TID 0000.0001) %MON dynstat_wvel_max             =   7.1703862541414E-07
(PID.TID 0000.0001) %MON dynstat_wvel_min             =  -6.8930700949500E-07
(PID.TID 0000.0001) %MON dynstat_wvel_mean            =  -2.6147423941493E-10
(PID.TID 0000.0001) %MON dynstat_wvel_sd              =   2.4977420331071E-08
(PID.TID 0000.0001) %MON dynstat_wvel_del2            =   1.6761079610701E-10
(PID.TID 0000.0001) %MON dynstat_theta_max            =  -1.9000000000000E+00
(PID.TID 0000.0001) %MON dynstat_theta_min            =  -1.9081535188334E+00
(PID.TID 0000.0001) %MON dynstat_theta_mean           =  -1.9000687547505E+00
(PID.TID 0000.0001) %MON dynstat_theta_sd             =   5.3101775858418E-04
(PID.TID 0000.0001) %MON dynstat_theta_del2           =   6.1814753746783E-07
(PID.TID 0000.0001) %MON dynstat_salt_max             =   3.4400000000000E+01
(PID.TID 0000.0001) %MON dynstat_salt_min             =   3.4396672761209E+01
(PID.TID 0000.0001) %MON dynstat_salt_mean            =   3.4399972077890E+01
(PID.TID 0000.0001) %MON dynstat_salt_sd              =   2.1615342451868E-04
(PID.TID 0000.0001) %MON dynstat_salt_del2            =   2.5135494587480E-07
(PID.TID 0000.0001) %MON advcfl_uvel_max              =   4.1947175426477E-05
(PID.TID 0000.0001) %MON advcfl_vvel_max              =   1.5721240132505E-05
(PID.TID 0000.0001) %MON advcfl_wvel_max              =   4.3022317524849E-05
(PID.TID 0000.0001) %MON advcfl_W_hf_max              =   5.0239360018120E-05
(PID.TID 0000.0001) %MON pe_b_mean                    =  -6.6639579034163E-08
(PID.TID 0000.0001) %MON ke_max                       =   1.1727930434906E-08
(PID.TID 0000.0001) %MON ke_mean                      =   5.7235393434743E-11
(PID.TID 0000.0001) %MON ke_vol                       =   3.4703745874271E+14
(PID.TID 0000.0001) %MON vort_r_min                   =  -1.6440384019219E-08
(PID.TID 0000.0001) %MON vort_r_max                   =   1.5868973016247E-08
(PID.TID 0000.0001) %MON vort_a_mean                  =  -1.3992981950893E-04
(PID.TID 0000.0001) %MON vort_a_sd                    =   1.7365064903991E-06
(PID.TID 0000.0001) %MON vort_p_mean                  =  -1.4746660573522E-04
(PID.TID 0000.0001) %MON vort_p_sd                    =   7.7972320299050E-05
(PID.TID 0000.0001) %MON surfExpan_theta_mean         =  -2.3356718066621E-12
(PID.TID 0000.0001) %MON surfExpan_salt_mean          =  -9.5041021825201E-13
(PID.TID 0000.0001) // =======================================================
(PID.TID 0000.0001) // End MONITOR dynamic field statistics
(PID.TID 0000.0001) // =======================================================
 cg2d: Sum(rhs),rhsMax =   1.06581410364015E-13  1.35084044252311E-04
(PID.TID 0000.0001)                    cg2d_init_res =    2.27146637943966E+00
(PID.TID 0000.0001)                       cg2d_iters =   209
(PID.TID 0000.0001)                         cg2d_res =    7.11353201508517E-14
(PID.TID 0000.0001) // =======================================================
(PID.TID 0000.0001) // Begin MONITOR dynamic field statistics
(PID.TID 0000.0001) // =======================================================
(PID.TID 0000.0001) %MON time_tsnumber                =                    13
(PID.TID 0000.0001) %MON time_secondsf                =   2.3400000000000E+04
(PID.TID 0000.0001) %MON dynstat_eta_max              =   7.3241746538281E-05
(PID.TID 0000.0001) %MON dynstat_eta_min              =  -2.1302808708254E-05
(PID.TID 0000.0001) %MON dynstat_eta_mean             =   1.2776919941526E-20
(PID.TID 0000.0001) %MON dynstat_eta_sd               =   2.5541030278379E-05
(PID.TID 0000.0001) %MON dynstat_eta_del2             =   3.7267942776495E-07
(PID.TID 0000.0001) %MON dynstat_uvel_max             =   2.8613822721789E-05
(PID.TID 0000.0001) %MON dynstat_uvel_min             =  -1.5795907811565E-04
(PID.TID 0000.0001) %MON dynstat_uvel_mean            =  -3.2365729858655E-08
(PID.TID 0000.0001) %MON dynstat_uvel_sd              =   1.0773855608511E-05
(PID.TID 0000.0001) %MON dynstat_uvel_del2            =   2.4441982749001E-08
(PID.TID 0000.0001) %MON dynstat_vvel_max             =   9.6790155424488E-05
(PID.TID 0000.0001) %MON dynstat_vvel_min             =  -1.6749446757239E-05
(PID.TID 0000.0001) %MON dynstat_vvel_mean            =  -3.2696626637657E-07
(PID.TID 0000.0001) %MON dynstat_vvel_sd              =   5.2445111163173E-06
(PID.TID 0000.0001) %MON dynstat_vvel_del2            =   1.3751315904433E-08
(PID.TID 0000.0001) %MON dynstat_wvel_max             =   8.1126149654275E-07
(PID.TID 0000.0001) %MON dynstat_wvel_min             =  -7.7566268603132E-07
(PID.TID 0000.0001) %MON dynstat_wvel_mean            =  -2.1309103781429E-10
(PID.TID 0000.0001) %MON dynstat_wvel_sd              =   2.7202802155227E-08
(PID.TID 0000.0001) %MON dynstat_wvel_del2            =   1.7051249890442E-10
(PID.TID 0000.0001) %MON dynstat_theta_max            =  -1.9000000000000E+00
(PID.TID 0000.0001) %MON dynstat_theta_min            =  -1.9088268570869E+00
(PID.TID 0000.0001) %MON dynstat_theta_mean           =  -1.9000744415718E+00
(PID.TID 0000.0001) %MON dynstat_theta_sd             =   5.7482334965814E-04
(PID.TID 0000.0001) %MON dynstat_theta_del2           =   6.6829701023129E-07
(PID.TID 0000.0001) %MON dynstat_salt_max             =   3.4400000000000E+01
(PID.TID 0000.0001) %MON dynstat_salt_min             =   3.4396398001516E+01
(PID.TID 0000.0001) %MON dynstat_salt_mean            =   3.4399969768572E+01
(PID.TID 0000.0001) %MON dynstat_salt_sd              =   2.3398357972759E-04
(PID.TID 0000.0001) %MON dynstat_salt_del2            =   2.7174522377517E-07
(PID.TID 0000.0001) %MON advcfl_uvel_max              =   4.7906760161100E-05
(PID.TID 0000.0001) %MON advcfl_vvel_max              =   1.5670645726262E-05
(PID.TID 0000.0001) %MON advcfl_wvel_max              =   4.8675689792565E-05
(PID.TID 0000.0001) %MON advcfl_W_hf_max              =   5.6070329322986E-05
(PID.TID 0000.0001) %MON pe_b_mean                    =  -7.1091392139188E-08
(PID.TID 0000.0001) %MON ke_max                       =   1.4613982444558E-08
(PID.TID 0000.0001) %MON ke_mean                      =   7.0479749757183E-11
(PID.TID 0000.0001) %MON ke_vol                       =   3.4703745874271E+14
(PID.TID 0000.0001) %MON vort_r_min                   =  -1.6387475249883E-08
(PID.TID 0000.0001) %MON vort_r_max                   =   1.5798459282824E-08
(PID.TID 0000.0001) %MON vort_a_mean                  =  -1.3992981951887E-04
(PID.TID 0000.0001) %MON vort_a_sd                    =   1.7365063008051E-06
(PID.TID 0000.0001) %MON vort_p_mean                  =  -1.4746660574570E-04
(PID.TID 0000.0001) %MON vort_p_sd                    =   7.7972112385987E-05
(PID.TID 0000.0001) %MON surfExpan_theta_mean         =  -2.0618978824381E-12
(PID.TID 0000.0001) %MON surfExpan_salt_mean          =  -8.3882838089624E-13
(PID.TID 0000.0001) // =======================================================
(PID.TID 0000.0001) // End MONITOR dynamic field statistics
(PID.TID 0000.0001) // =======================================================
 cg2d: Sum(rhs),rhsMax =   2.13162820728030E-14  1.44699774730455E-04
(PID.TID 0000.0001)                    cg2d_init_res =    2.11663653075824E+00
(PID.TID 0000.0001)                       cg2d_iters =   208
(PID.TID 0000.0001)                         cg2d_res =    9.45833710142622E-14
(PID.TID 0000.0001) // =======================================================
(PID.TID 0000.0001) // Begin MONITOR dynamic field statistics
(PID.TID 0000.0001) // =======================================================
(PID.TID 0000.0001) %MON time_tsnumber                =                    14
(PID.TID 0000.0001) %MON time_secondsf                =   2.5200000000000E+04
(PID.TID 0000.0001) %MON dynstat_eta_max              =   7.7865974760006E-05
(PID.TID 0000.0001) %MON dynstat_eta_min              =  -2.2103499955140E-05
(PID.TID 0000.0001) %MON dynstat_eta_mean             =  -8.5179466276843E-21
(PID.TID 0000.0001) %MON dynstat_eta_sd               =   2.6885289653794E-05
(PID.TID 0000.0001) %MON dynstat_eta_del2             =   4.0195987143983E-07
(PID.TID 0000.0001) %MON dynstat_uvel_max             =   3.0583329019827E-05
(PID.TID 0000.0001) %MON dynstat_uvel_min             =  -1.7880772353593E-04
(PID.TID 0000.0001) %MON dynstat_uvel_mean            =  -2.8926490262477E-08
(PID.TID 0000.0001) %MON dynstat_uvel_sd              =   1.2092837289720E-05
(PID.TID 0000.0001) %MON dynstat_uvel_del2            =   2.6807511581869E-08
(PID.TID 0000.0001) %MON dynstat_vvel_max             =   9.4180924939429E-05
(PID.TID 0000.0001) %MON dynstat_vvel_min             =  -1.6565863447987E-05
(PID.TID 0000.0001) %MON dynstat_vvel_mean            =  -2.6121548610768E-07
(PID.TID 0000.0001) %MON dynstat_vvel_sd              =   5.0450125220274E-06
(PID.TID 0000.0001) %MON dynstat_vvel_del2            =   1.3415752180441E-08
(PID.TID 0000.0001) %MON dynstat_wvel_max             =   9.0018172664932E-07
(PID.TID 0000.0001) %MON dynstat_wvel_min             =  -8.5633434741210E-07
(PID.TID 0000.0001) %MON dynstat_wvel_mean            =  -1.7211396834205E-10
(PID.TID 0000.0001) %MON dynstat_wvel_sd              =   2.9265879756429E-08
(PID.TID 0000.0001) %MON dynstat_wvel_del2            =   1.7079078049154E-10
(PID.TID 0000.0001) %MON dynstat_theta_max            =  -1.9000000000000E+00
(PID.TID 0000.0001) %MON dynstat_theta_min            =  -1.9094992729258E+00
(PID.TID 0000.0001) %MON dynstat_theta_mean           =  -1.9000801219225E+00
(PID.TID 0000.0001) %MON dynstat_theta_sd             =   6.1856155647665E-04
(PID.TID 0000.0001) %MON dynstat_theta_del2           =   7.1824370843723E-07
(PID.TID 0000.0001) %MON dynstat_salt_max             =   3.4400000000000E+01
(PID.TID 0000.0001) %MON dynstat_salt_min             =   3.4396123620055E+01
(PID.TID 0000.0001) %MON dynstat_salt_mean            =   3.4399967461907E+01
(PID.TID 0000.0001) %MON dynstat_salt_sd              =   2.5178613597876E-04
(PID.TID 0000.0001) %MON dynstat_salt_del2            =   2.9205277294369E-07
(PID.TID 0000.0001) %MON advcfl_uvel_max              =   5.3572069101591E-05
(PID.TID 0000.0001) %MON advcfl_vvel_max              =   1.5248202696078E-05
(PID.TID 0000.0001) %MON advcfl_wvel_max              =   5.4010903598959E-05
(PID.TID 0000.0001) %MON advcfl_W_hf_max              =   6.1444771676442E-05
(PID.TID 0000.0001) %MON pe_b_mean                    =  -7.4759296214841E-08
(PID.TID 0000.0001) %MON ke_max                       =   1.7998470370999E-08
(PID.TID 0000.0001) %MON ke_mean                      =   8.4220200176751E-11
(PID.TID 0000.0001) %MON ke_vol                       =   3.4703745874271E+14
(PID.TID 0000.0001) %MON vort_r_min                   =  -1.5945708214716E-08
(PID.TID 0000.0001) %MON vort_r_max                   =   1.5351190619049E-08
(PID.TID 0000.0001) %MON vort_a_mean                  =  -1.3992981953643E-04
(PID.TID 0000.0001) %MON vort_a_sd                    =   1.7365060870070E-06
(PID.TID 0000.0001) %MON vort_p_mean                  =  -1.4746660576421E-04
(PID.TID 0000.0001) %MON vort_p_sd                    =   7.7971911734161E-05
(PID.TID 0000.0001) %MON surfExpan_theta_mean         =  -1.7938026258879E-12
(PID.TID 0000.0001) %MON surfExpan_salt_mean          =  -7.2956831712108E-13
(PID.TID 0000.0001) // =======================================================
(PID.TID 0000.0001) // End MONITOR dynamic field statistics
(PID.TID 0000.0001) // =======================================================
 cg2d: Sum(rhs),rhsMax =  -1.84741111297626E-13  1.54273779109643E-04
(PID.TID 0000.0001)                    cg2d_init_res =    1.98159439869137E+00
(PID.TID 0000.0001)                       cg2d_iters =   207
(PID.TID 0000.0001)                         cg2d_res =    9.59360021354144E-14
(PID.TID 0000.0001) // =======================================================
(PID.TID 0000.0001) // Begin MONITOR dynamic field statistics
(PID.TID 0000.0001) // =======================================================
(PID.TID 0000.0001) %MON time_tsnumber                =                    15
(PID.TID 0000.0001) %MON time_secondsf                =   2.7000000000000E+04
(PID.TID 0000.0001) %MON dynstat_eta_max              =   8.1923888407755E-05
(PID.TID 0000.0001) %MON dynstat_eta_min              =  -2.2701684842259E-05
(PID.TID 0000.0001) %MON dynstat_eta_mean             =   4.0460246481500E-20
(PID.TID 0000.0001) %MON dynstat_eta_sd               =   2.8039136466105E-05
(PID.TID 0000.0001) %MON dynstat_eta_del2             =   4.3119083015978E-07
(PID.TID 0000.0001) %MON dynstat_uvel_max             =   3.2250283194698E-05
(PID.TID 0000.0001) %MON dynstat_uvel_min             =  -1.9864918972663E-04
(PID.TID 0000.0001) %MON dynstat_uvel_mean            =  -2.3458993575220E-08
(PID.TID 0000.0001) %MON dynstat_uvel_sd              =   1.3323595231033E-05
(PID.TID 0000.0001) %MON dynstat_uvel_del2            =   2.9085027774424E-08
(PID.TID 0000.0001) %MON dynstat_vvel_max             =   8.9629895460998E-05
(PID.TID 0000.0001) %MON dynstat_vvel_min             =  -1.6090059363594E-05
(PID.TID 0000.0001) %MON dynstat_vvel_mean            =  -2.1272726778888E-07
(PID.TID 0000.0001) %MON dynstat_vvel_sd              =   4.7268144149739E-06
(PID.TID 0000.0001) %MON dynstat_vvel_del2            =   1.2824462205088E-08
(PID.TID 0000.0001) %MON dynstat_wvel_max             =   9.8214886517415E-07
(PID.TID 0000.0001) %MON dynstat_wvel_min             =  -9.2987438204827E-07
(PID.TID 0000.0001) %MON dynstat_wvel_mean            =  -1.4203881046266E-10
(PID.TID 0000.0001) %MON dynstat_wvel_sd              =   3.1159275189583E-08
(PID.TID 0000.0001) %MON dynstat_wvel_del2            =   1.6911166509673E-10
(PID.TID 0000.0001) %MON dynstat_theta_max            =  -1.9000000000000E+00
(PID.TID 0000.0001) %MON dynstat_theta_min            =  -1.9101707689484E+00
(PID.TID 0000.0001) %MON dynstat_theta_mean           =  -1.9000857958140E+00
(PID.TID 0000.0001) %MON dynstat_theta_sd             =   6.6223252138695E-04
(PID.TID 0000.0001) %MON dynstat_theta_del2           =   7.6798861121349E-07
(PID.TID 0000.0001) %MON dynstat_salt_max             =   3.4400000000000E+01
(PID.TID 0000.0001) %MON dynstat_salt_min             =   3.4395849615757E+01
(PID.TID 0000.0001) %MON dynstat_salt_mean            =   3.4399965157890E+01
(PID.TID 0000.0001) %MON dynstat_salt_sd              =   2.6956115173219E-04
(PID.TID 0000.0001) %MON dynstat_salt_del2            =   3.1227799277540E-07
(PID.TID 0000.0001) %MON advcfl_uvel_max              =   5.9106884120974E-05
(PID.TID 0000.0001) %MON advcfl_vvel_max              =   1.4511375997810E-05
(PID.TID 0000.0001) %MON advcfl_wvel_max              =   5.8928931910449E-05
(PID.TID 0000.0001) %MON advcfl_W_hf_max              =   6.6285824214285E-05
(PID.TID 0000.0001) %MON pe_b_mean                    =  -7.7848094904777E-08
(PID.TID 0000.0001) %MON ke_max                       =   2.1494889656465E-08
(PID.TID 0000.0001) %MON ke_mean                      =   9.7995865516286E-11
(PID.TID 0000.0001) %MON ke_vol                       =   3.4703745874271E+14
(PID.TID 0000.0001) %MON vort_r_min                   =  -1.5175176515370E-08
(PID.TID 0000.0001) %MON vort_r_max                   =   1.4586897542669E-08
(PID.TID 0000.0001) %MON vort_a_mean                  =  -1.3992981955884E-04
(PID.TID 0000.0001) %MON vort_a_sd                    =   1.7365058638495E-06
(PID.TID 0000.0001) %MON vort_p_mean                  =  -1.4746660578782E-04
(PID.TID 0000.0001) %MON vort_p_sd                    =   7.7971723320326E-05
(PID.TID 0000.0001) %MON surfExpan_theta_mean         =  -1.5866852436125E-12
(PID.TID 0000.0001) %MON surfExpan_salt_mean          =  -6.4515348210040E-13
(PID.TID 0000.0001) // =======================================================
(PID.TID 0000.0001) // End MONITOR dynamic field statistics
(PID.TID 0000.0001) // =======================================================
 cg2d: Sum(rhs),rhsMax =  -7.81597009336110E-14  1.64012625642572E-04
(PID.TID 0000.0001)                    cg2d_init_res =    1.86044369579222E+00
(PID.TID 0000.0001)                       cg2d_iters =   204
(PID.TID 0000.0001)                         cg2d_res =    9.49699202527298E-14
(PID.TID 0000.0001) // =======================================================
(PID.TID 0000.0001) // Begin MONITOR dynamic field statistics
(PID.TID 0000.0001) // =======================================================
(PID.TID 0000.0001) %MON time_tsnumber                =                    16
(PID.TID 0000.0001) %MON time_secondsf                =   2.8800000000000E+04
(PID.TID 0000.0001) %MON dynstat_eta_max              =   8.5562879977833E-05
(PID.TID 0000.0001) %MON dynstat_eta_min              =  -2.3198083188969E-05
(PID.TID 0000.0001) %MON dynstat_eta_mean             =  -3.1942299853816E-20
(PID.TID 0000.0001) %MON dynstat_eta_sd               =   2.9082686619345E-05
(PID.TID 0000.0001) %MON dynstat_eta_del2             =   4.6037206307023E-07
(PID.TID 0000.0001) %MON dynstat_uvel_max             =   3.3649706175622E-05
(PID.TID 0000.0001) %MON dynstat_uvel_min             =  -2.1682264997701E-04
(PID.TID 0000.0001) %MON dynstat_uvel_mean            =  -1.6734910593561E-08
(PID.TID 0000.0001) %MON dynstat_uvel_sd              =   1.4441077433431E-05
(PID.TID 0000.0001) %MON dynstat_uvel_del2            =   3.1235792839843E-08
(PID.TID 0000.0001) %MON dynstat_vvel_max             =   8.3596412345473E-05
(PID.TID 0000.0001) %MON dynstat_vvel_min             =  -1.5463946565323E-05
(PID.TID 0000.0001) %MON dynstat_vvel_mean            =  -1.8411257877580E-07
(PID.TID 0000.0001) %MON dynstat_vvel_sd              =   4.3177678633409E-06
(PID.TID 0000.0001) %MON dynstat_vvel_del2            =   1.2040358884037E-08
(PID.TID 0000.0001) %MON dynstat_wvel_max             =   1.0560749938923E-06
(PID.TID 0000.0001) %MON dynstat_wvel_min             =  -9.9539083189267E-07
(PID.TID 0000.0001) %MON dynstat_wvel_mean            =  -1.2451238653765E-10
(PID.TID 0000.0001) %MON dynstat_wvel_sd              =   3.2879801373968E-08
(PID.TID 0000.0001) %MON dynstat_wvel_del2            =   1.6623735846161E-10
(PID.TID 0000.0001) %MON dynstat_theta_max            =  -1.9000000000000E+00
(PID.TID 0000.0001) %MON dynstat_theta_min            =  -1.9108413475883E+00
(PID.TID 0000.0001) %MON dynstat_theta_mean           =  -1.9000914632573E+00
(PID.TID 0000.0001) %MON dynstat_theta_sd             =   7.0583638560086E-04
(PID.TID 0000.0001) %MON dynstat_theta_del2           =   8.1753268621955E-07
(PID.TID 0000.0001) %MON dynstat_salt_max             =   3.4400000000000E+01
(PID.TID 0000.0001) %MON dynstat_salt_min             =   3.4395575987623E+01
(PID.TID 0000.0001) %MON dynstat_salt_mean            =   3.4399962856517E+01
(PID.TID 0000.0001) %MON dynstat_salt_sd              =   2.8730868498312E-04
(PID.TID 0000.0001) %MON dynstat_salt_del2            =   3.3242127812494E-07
(PID.TID 0000.0001) %MON advcfl_uvel_max              =   6.4514289057157E-05
(PID.TID 0000.0001) %MON advcfl_vvel_max              =   1.3534535161218E-05
(PID.TID 0000.0001) %MON advcfl_wvel_max              =   6.3364499633535E-05
(PID.TID 0000.0001) %MON advcfl_W_hf_max              =   7.0557492958545E-05
(PID.TID 0000.0001) %MON pe_b_mean                    =  -8.0593704061359E-08
(PID.TID 0000.0001) %MON ke_max                       =   2.4975609016777E-08
(PID.TID 0000.0001) %MON ke_mean                      =   1.1136111591174E-10
(PID.TID 0000.0001) %MON ke_vol                       =   3.4703745874271E+14
(PID.TID 0000.0001) %MON vort_r_min                   =  -1.4153651601058E-08
(PID.TID 0000.0001) %MON vort_r_max                   =   1.3582254418918E-08
(PID.TID 0000.0001) %MON vort_a_mean                  =  -1.3992981958293E-04
(PID.TID 0000.0001) %MON vort_a_sd                    =   1.7365056483260E-06
(PID.TID 0000.0001) %MON vort_p_mean                  =  -1.4746660581321E-04
(PID.TID 0000.0001) %MON vort_p_sd                    =   7.7971551078628E-05
(PID.TID 0000.0001) %MON surfExpan_theta_mean         =  -1.4841638032870E-12
(PID.TID 0000.0001) %MON surfExpan_salt_mean          =  -6.0335087297750E-13
(PID.TID 0000.0001) // =======================================================
(PID.TID 0000.0001) // End MONITOR dynamic field statistics
(PID.TID 0000.0001) // =======================================================
 cg2d: Sum(rhs),rhsMax =   4.26325641456060E-14  1.74721774377976E-04
(PID.TID 0000.0001)                    cg2d_init_res =    1.74314429957485E+00
(PID.TID 0000.0001)                       cg2d_iters =   203
(PID.TID 0000.0001)                         cg2d_res =    8.95782384890304E-14
(PID.TID 0000.0001) // =======================================================
(PID.TID 0000.0001) // Begin MONITOR dynamic field statistics
(PID.TID 0000.0001) // =======================================================
(PID.TID 0000.0001) %MON time_tsnumber                =                    17
(PID.TID 0000.0001) %MON time_secondsf                =   3.0600000000000E+04
(PID.TID 0000.0001) %MON dynstat_eta_max              =   8.8948007802611E-05
(PID.TID 0000.0001) %MON dynstat_eta_min              =  -2.4095202880977E-05
(PID.TID 0000.0001) %MON dynstat_eta_mean             =   2.7683326539974E-20
(PID.TID 0000.0001) %MON dynstat_eta_sd               =   3.0094756239168E-05
(PID.TID 0000.0001) %MON dynstat_eta_del2             =   4.8950370602140E-07
(PID.TID 0000.0001) %MON dynstat_uvel_max             =   3.4778599931797E-05
(PID.TID 0000.0001) %MON dynstat_uvel_min             =  -2.3304512051384E-04
(PID.TID 0000.0001) %MON dynstat_uvel_mean            =  -9.5636789789475E-09
(PID.TID 0000.0001) %MON dynstat_uvel_sd              =   1.5428804873804E-05
(PID.TID 0000.0001) %MON dynstat_uvel_del2            =   3.3228576651578E-08
(PID.TID 0000.0001) %MON dynstat_vvel_max             =   7.6608059050595E-05
(PID.TID 0000.0001) %MON dynstat_vvel_min             =  -1.4697583759870E-05
(PID.TID 0000.0001) %MON dynstat_vvel_mean            =  -1.7525338374020E-07
(PID.TID 0000.0001) %MON dynstat_vvel_sd              =   3.8507405257675E-06
(PID.TID 0000.0001) %MON dynstat_vvel_del2            =   1.1133851072130E-08
(PID.TID 0000.0001) %MON dynstat_wvel_max             =   1.1214651604204E-06
(PID.TID 0000.0001) %MON dynstat_wvel_min             =  -1.0682379643275E-06
(PID.TID 0000.0001) %MON dynstat_wvel_mean            =  -1.1947742336927E-10
(PID.TID 0000.0001) %MON dynstat_wvel_sd              =   3.4428367836906E-08
(PID.TID 0000.0001) %MON dynstat_wvel_del2            =   1.6294142911605E-10
(PID.TID 0000.0001) %MON dynstat_theta_max            =  -1.9000000000000E+00
(PID.TID 0000.0001) %MON dynstat_theta_min            =  -1.9115110110807E+00
(PID.TID 0000.0001) %MON dynstat_theta_mean           =  -1.9000971242633E+00
(PID.TID 0000.0001) %MON dynstat_theta_sd             =   7.4937328941176E-04
(PID.TID 0000.0001) %MON dynstat_theta_del2           =   8.6687689408290E-07
(PID.TID 0000.0001) %MON dynstat_salt_max             =   3.4400000000000E+01
(PID.TID 0000.0001) %MON dynstat_salt_min             =   3.4395302734734E+01
(PID.TID 0000.0001) %MON dynstat_salt_mean            =   3.4399960557783E+01
(PID.TID 0000.0001) %MON dynstat_salt_sd              =   3.0502879335066E-04
(PID.TID 0000.0001) %MON dynstat_salt_del2            =   3.5248302109254E-07
(PID.TID 0000.0001) %MON advcfl_uvel_max              =   6.9341188615597E-05
(PID.TID 0000.0001) %MON advcfl_vvel_max              =   1.2403097689982E-05
(PID.TID 0000.0001) %MON advcfl_wvel_max              =   6.7287909625226E-05
(PID.TID 0000.0001) %MON advcfl_W_hf_max              =   7.4263924839473E-05
(PID.TID 0000.0001) %MON pe_b_mean                    =  -8.3230711330560E-08
(PID.TID 0000.0001) %MON ke_max                       =   2.8320971957631E-08
(PID.TID 0000.0001) %MON ke_mean                      =   1.2392749077262E-10
(PID.TID 0000.0001) %MON ke_vol                       =   3.4703745874271E+14
(PID.TID 0000.0001) %MON vort_r_min                   =  -1.2970458267448E-08
(PID.TID 0000.0001) %MON vort_r_max                   =   1.2424748968500E-08
(PID.TID 0000.0001) %MON vort_a_mean                  =  -1.3992981960551E-04
(PID.TID 0000.0001) %MON vort_a_sd                    =   1.7365054561653E-06
(PID.TID 0000.0001) %MON vort_p_mean                  =  -1.4746660583700E-04
(PID.TID 0000.0001) %MON vort_p_sd                    =   7.7971397710898E-05
(PID.TID 0000.0001) %MON surfExpan_theta_mean         =  -1.5131763939561E-12
(PID.TID 0000.0001) %MON surfExpan_salt_mean          =  -6.1513383310869E-13
(PID.TID 0000.0001) // =======================================================
(PID.TID 0000.0001) // End MONITOR dynamic field statistics
(PID.TID 0000.0001) // =======================================================
 cg2d: Sum(rhs),rhsMax =   3.55271367880050E-14  1.85282613221049E-04
(PID.TID 0000.0001)                    cg2d_init_res =    1.64072961709235E+00
(PID.TID 0000.0001)                       cg2d_iters =   205
(PID.TID 0000.0001)                         cg2d_res =    9.34993071888672E-14
(PID.TID 0000.0001) // =======================================================
(PID.TID 0000.0001) // Begin MONITOR dynamic field statistics
(PID.TID 0000.0001) // =======================================================
(PID.TID 0000.0001) %MON time_tsnumber                =                    18
(PID.TID 0000.0001) %MON time_secondsf                =   3.2400000000000E+04
(PID.TID 0000.0001) %MON dynstat_eta_max              =   9.2243080223632E-05
(PID.TID 0000.0001) %MON dynstat_eta_min              =  -2.5299318652176E-05
(PID.TID 0000.0001) %MON dynstat_eta_mean             =   1.0647433284605E-20
(PID.TID 0000.0001) %MON dynstat_eta_sd               =   3.1144373266279E-05
(PID.TID 0000.0001) %MON dynstat_eta_del2             =   5.1858623935173E-07
(PID.TID 0000.0001) %MON dynstat_uvel_max             =   3.7063128448058E-05
(PID.TID 0000.0001) %MON dynstat_uvel_min             =  -2.4717485339038E-04
(PID.TID 0000.0001) %MON dynstat_uvel_mean            =  -2.7000526381506E-09
(PID.TID 0000.0001) %MON dynstat_uvel_sd              =   1.6279558510883E-05
(PID.TID 0000.0001) %MON dynstat_uvel_del2            =   3.5042937620653E-08
(PID.TID 0000.0001) %MON dynstat_vvel_max             =   6.9401223307354E-05
(PID.TID 0000.0001) %MON dynstat_vvel_min             =  -1.3842632473978E-05
(PID.TID 0000.0001) %MON dynstat_vvel_mean            =  -1.8387625415987E-07
(PID.TID 0000.0001) %MON dynstat_vvel_sd              =   3.3613249347910E-06
(PID.TID 0000.0001) %MON dynstat_vvel_del2            =   1.0177619367033E-08
(PID.TID 0000.0001) %MON dynstat_wvel_max             =   1.1818275167071E-06
(PID.TID 0000.0001) %MON dynstat_wvel_min             =  -1.1343558694214E-06
(PID.TID 0000.0001) %MON dynstat_wvel_mean            =  -1.2551280713190E-10
(PID.TID 0000.0001) %MON dynstat_wvel_sd              =   3.5810510020781E-08
(PID.TID 0000.0001) %MON dynstat_wvel_del2            =   1.5991907207572E-10
(PID.TID 0000.0001) %MON dynstat_theta_max            =  -1.9000000000000E+00
(PID.TID 0000.0001) %MON dynstat_theta_min            =  -1.9121797614443E+00
(PID.TID 0000.0001) %MON dynstat_theta_mean           =  -1.9001027788428E+00
(PID.TID 0000.0001) %MON dynstat_theta_sd             =   7.9284337246151E-04
(PID.TID 0000.0001) %MON dynstat_theta_del2           =   9.1602219265968E-07
(PID.TID 0000.0001) %MON dynstat_salt_max             =   3.4400000000000E+01
(PID.TID 0000.0001) %MON dynstat_salt_min             =   3.4395029856261E+01
(PID.TID 0000.0001) %MON dynstat_salt_mean            =   3.4399958261684E+01
(PID.TID 0000.0001) %MON dynstat_salt_sd              =   3.2272153418626E-04
(PID.TID 0000.0001) %MON dynstat_salt_del2            =   3.7246361274069E-07
(PID.TID 0000.0001) %MON advcfl_uvel_max              =   7.3545406538373E-05
(PID.TID 0000.0001) %MON advcfl_vvel_max              =   1.1236287189013E-05
(PID.TID 0000.0001) %MON advcfl_wvel_max              =   7.0909651002424E-05
(PID.TID 0000.0001) %MON advcfl_W_hf_max              =   7.7446240246142E-05
(PID.TID 0000.0001) %MON pe_b_mean                    =  -8.5966850499362E-08
(PID.TID 0000.0001) %MON ke_max                       =   3.1432412397450E-08
(PID.TID 0000.0001) %MON ke_mean                      =   1.3539990438834E-10
(PID.TID 0000.0001) %MON ke_vol                       =   3.4703745874271E+14
(PID.TID 0000.0001) %MON vort_r_min                   =  -1.1719970110071E-08
(PID.TID 0000.0001) %MON vort_r_max                   =   1.1917521282721E-08
(PID.TID 0000.0001) %MON vort_a_mean                  =  -1.3992981962368E-04
(PID.TID 0000.0001) %MON vort_a_sd                    =   1.7365053003529E-06
(PID.TID 0000.0001) %MON vort_p_mean                  =  -1.4746660585615E-04
(PID.TID 0000.0001) %MON vort_p_sd                    =   7.7971264584382E-05
(PID.TID 0000.0001) %MON surfExpan_theta_mean         =  -1.6822463165556E-12
(PID.TID 0000.0001) %MON surfExpan_salt_mean          =  -6.8397423194340E-13
(PID.TID 0000.0001) // =======================================================
(PID.TID 0000.0001) // End MONITOR dynamic field statistics
(PID.TID 0000.0001) // =======================================================
 cg2d: Sum(rhs),rhsMax =   2.06057393370429E-13  1.95691932781150E-04
(PID.TID 0000.0001)                    cg2d_init_res =    1.55059785849298E+00
(PID.TID 0000.0001)                       cg2d_iters =   205
(PID.TID 0000.0001)                         cg2d_res =    9.11141496332565E-14
(PID.TID 0000.0001) // =======================================================
(PID.TID 0000.0001) // Begin MONITOR dynamic field statistics
(PID.TID 0000.0001) // =======================================================
(PID.TID 0000.0001) %MON time_tsnumber                =                    19
(PID.TID 0000.0001) %MON time_secondsf                =   3.4200000000000E+04
(PID.TID 0000.0001) %MON dynstat_eta_max              =   9.5595260070808E-05
(PID.TID 0000.0001) %MON dynstat_eta_min              =  -2.6375956208424E-05
(PID.TID 0000.0001) %MON dynstat_eta_mean             =  -2.7683326539974E-20
(PID.TID 0000.0001) %MON dynstat_eta_sd               =   3.2285423887447E-05
(PID.TID 0000.0001) %MON dynstat_eta_del2             =   5.4762043774115E-07
(PID.TID 0000.0001) %MON dynstat_uvel_max             =   3.9077952061647E-05
(PID.TID 0000.0001) %MON dynstat_uvel_min             =  -2.5921377319057E-04
(PID.TID 0000.0001) %MON dynstat_uvel_mean            =   3.2378261978598E-09
(PID.TID 0000.0001) %MON dynstat_uvel_sd              =   1.6995428098955E-05
(PID.TID 0000.0001) %MON dynstat_uvel_del2            =   3.6671460048223E-08
(PID.TID 0000.0001) %MON dynstat_vvel_max             =   6.2473888982755E-05
(PID.TID 0000.0001) %MON dynstat_vvel_min             =  -1.2965981910878E-05
(PID.TID 0000.0001) %MON dynstat_vvel_mean            =  -2.0628001486546E-07
(PID.TID 0000.0001) %MON dynstat_vvel_sd              =   2.8853897403635E-06
(PID.TID 0000.0001) %MON dynstat_vvel_del2            =   9.2414796260578E-09
(PID.TID 0000.0001) %MON dynstat_wvel_max             =   1.2363005213217E-06
(PID.TID 0000.0001) %MON dynstat_wvel_min             =  -1.1926468343080E-06
(PID.TID 0000.0001) %MON dynstat_wvel_mean            =  -1.4028082085589E-10
(PID.TID 0000.0001) %MON dynstat_wvel_sd              =   3.7037335168349E-08
(PID.TID 0000.0001) %MON dynstat_wvel_del2            =   1.5770843925458E-10
(PID.TID 0000.0001) %MON dynstat_theta_max            =  -1.9000000000000E+00
(PID.TID 0000.0001) %MON dynstat_theta_min            =  -1.9128476004815E+00
(PID.TID 0000.0001) %MON dynstat_theta_mean           =  -1.9001084270066E+00
(PID.TID 0000.0001) %MON dynstat_theta_sd             =   8.3624677400570E-04
(PID.TID 0000.0001) %MON dynstat_theta_del2           =   9.6496954073237E-07
(PID.TID 0000.0001) %MON dynstat_salt_max             =   3.4400000000000E+01
(PID.TID 0000.0001) %MON dynstat_salt_min             =   3.4394757351460E+01
(PID.TID 0000.0001) %MON dynstat_salt_mean            =   3.4399955968216E+01
(PID.TID 0000.0001) %MON dynstat_salt_sd              =   3.4038696468253E-04
(PID.TID 0000.0001) %MON dynstat_salt_del2            =   3.9236344458462E-07
(PID.TID 0000.0001) %MON advcfl_uvel_max              =   7.7127515473986E-05
(PID.TID 0000.0001) %MON advcfl_vvel_max              =   1.0114728890526E-05
(PID.TID 0000.0001) %MON advcfl_wvel_max              =   7.4178031279302E-05
(PID.TID 0000.0001) %MON advcfl_W_hf_max              =   8.0177217928228E-05
(PID.TID 0000.0001) %MON pe_b_mean                    =  -8.8966125572968E-08
(PID.TID 0000.0001) %MON ke_max                       =   3.4242902298201E-08
(PID.TID 0000.0001) %MON ke_mean                      =   1.4560431706347E-10
(PID.TID 0000.0001) %MON ke_vol                       =   3.4703745874271E+14
(PID.TID 0000.0001) %MON vort_r_min                   =  -1.0495163891881E-08
(PID.TID 0000.0001) %MON vort_r_max                   =   1.2510049097362E-08
(PID.TID 0000.0001) %MON vort_a_mean                  =  -1.3992981963509E-04
(PID.TID 0000.0001) %MON vort_a_sd                    =   1.7365051923582E-06
(PID.TID 0000.0001) %MON vort_p_mean                  =  -1.4746660586817E-04
(PID.TID 0000.0001) %MON vort_p_sd                    =   7.7971151717279E-05
(PID.TID 0000.0001) %MON surfExpan_theta_mean         =  -1.9827742250895E-12
(PID.TID 0000.0001) %MON surfExpan_salt_mean          =  -8.0636801394421E-13
(PID.TID 0000.0001) // =======================================================
(PID.TID 0000.0001) // End MONITOR dynamic field statistics
(PID.TID 0000.0001) // =======================================================
 cg2d: Sum(rhs),rhsMax =  -2.06057393370429E-13  2.05952565849924E-04
(PID.TID 0000.0001)                    cg2d_init_res =    1.47067868324245E+00
(PID.TID 0000.0001)                       cg2d_iters =   205
(PID.TID 0000.0001)                         cg2d_res =    8.11180333902192E-14
(PID.TID 0000.0001) // =======================================================
(PID.TID 0000.0001) // Begin MONITOR dynamic field statistics
(PID.TID 0000.0001) // =======================================================
(PID.TID 0000.0001) %MON time_tsnumber                =                    20
(PID.TID 0000.0001) %MON time_secondsf                =   3.6000000000000E+04
(PID.TID 0000.0001) %MON dynstat_eta_max              =   9.9124301598109E-05
(PID.TID 0000.0001) %MON dynstat_eta_min              =  -2.7357110095329E-05
(PID.TID 0000.0001) %MON dynstat_eta_mean             =  -5.3237166423027E-20
(PID.TID 0000.0001) %MON dynstat_eta_sd               =   3.3554325476242E-05
(PID.TID 0000.0001) %MON dynstat_eta_del2             =   5.7660730654749E-07
(PID.TID 0000.0001) %MON dynstat_uvel_max             =   4.0814241329512E-05
(PID.TID 0000.0001) %MON dynstat_uvel_min             =  -2.6929926511379E-04
(PID.TID 0000.0001) %MON dynstat_uvel_mean            =   7.8195021719756E-09
(PID.TID 0000.0001) %MON dynstat_uvel_sd              =   1.7587248836294E-05
(PID.TID 0000.0001) %MON dynstat_uvel_del2            =   3.8120767584125E-08
(PID.TID 0000.0001) %MON dynstat_vvel_max             =   5.6157851917556E-05
(PID.TID 0000.0001) %MON dynstat_vvel_min             =  -1.2154831525397E-05
(PID.TID 0000.0001) %MON dynstat_vvel_mean            =  -2.3808202845521E-07
(PID.TID 0000.0001) %MON dynstat_vvel_sd              =   2.4564605040126E-06
(PID.TID 0000.0001) %MON dynstat_vvel_del2            =   8.3876226233868E-09
(PID.TID 0000.0001) %MON dynstat_wvel_max             =   1.2839105308937E-06
(PID.TID 0000.0001) %MON dynstat_wvel_min             =  -1.2437024239606E-06
(PID.TID 0000.0001) %MON dynstat_wvel_mean            =  -1.6099607118230E-10
(PID.TID 0000.0001) %MON dynstat_wvel_sd              =   3.8126587767394E-08
(PID.TID 0000.0001) %MON dynstat_wvel_del2            =   1.5664448099665E-10
(PID.TID 0000.0001) %MON dynstat_theta_max            =  -1.9000000000000E+00
(PID.TID 0000.0001) %MON dynstat_theta_min            =  -1.9135145297940E+00
(PID.TID 0000.0001) %MON dynstat_theta_mean           =  -1.9001140687657E+00
(PID.TID 0000.0001) %MON dynstat_theta_sd             =   8.7958363313992E-04
(PID.TID 0000.0001) %MON dynstat_theta_del2           =   1.0137199008482E-06
(PID.TID 0000.0001) %MON dynstat_salt_max             =   3.4400000000000E+01
(PID.TID 0000.0001) %MON dynstat_salt_min             =   3.4394485219671E+01
(PID.TID 0000.0001) %MON dynstat_salt_mean            =   3.4399953677373E+01
(PID.TID 0000.0001) %MON dynstat_salt_sd              =   3.5802514196537E-04
(PID.TID 0000.0001) %MON dynstat_salt_del2            =   4.1218290973478E-07
(PID.TID 0000.0001) %MON advcfl_uvel_max              =   8.0128393570842E-05
(PID.TID 0000.0001) %MON advcfl_vvel_max              =   9.0921416365996E-06
(PID.TID 0000.0001) %MON advcfl_wvel_max              =   7.7034631853623E-05
(PID.TID 0000.0001) %MON advcfl_W_hf_max              =   8.2554251312170E-05
(PID.TID 0000.0001) %MON pe_b_mean                    =  -9.2340750448527E-08
(PID.TID 0000.0001) %MON ke_max                       =   3.6723628818008E-08
(PID.TID 0000.0001) %MON ke_mean                      =   1.5450516101404E-10
(PID.TID 0000.0001) %MON ke_vol                       =   3.4703745874271E+14
(PID.TID 0000.0001) %MON vort_r_min                   =  -9.3816485791300E-09
(PID.TID 0000.0001) %MON vort_r_max                   =   1.3101603229421E-08
(PID.TID 0000.0001) %MON vort_a_mean                  =  -1.3992981963818E-04
(PID.TID 0000.0001) %MON vort_a_sd                    =   1.7365051361968E-06
(PID.TID 0000.0001) %MON vort_p_mean                  =  -1.4746660587143E-04
(PID.TID 0000.0001) %MON vort_p_sd                    =   7.7971057847422E-05
(PID.TID 0000.0001) %MON surfExpan_theta_mean         =  -2.3926381524328E-12
(PID.TID 0000.0001) %MON surfExpan_salt_mean          =  -9.7330143161434E-13
(PID.TID 0000.0001) // =======================================================
(PID.TID 0000.0001) // End MONITOR dynamic field statistics
(PID.TID 0000.0001) // =======================================================
 Computing Diagnostic #    177  SHIfwFlx     Counter:      10   Parms: SM      L1      
 Computing Diagnostic #    178  SHIhtFlx     Counter:      10   Parms: SM      L1      
 Computing Diagnostic #    183  ICFfwFlx     Counter:      10   Parms: SM      MR      
 Computing Diagnostic #    184  ICFhtFlx     Counter:      10   Parms: SM      MR      
(PID.TID 0000.0001) %CHECKPOINT        20 ckptA
(PID.TID 0000.0001)   Seconds in section "ALL                    [THE_MODEL_MAIN]":
(PID.TID 0000.0001)           User time:  15.0407138
(PID.TID 0000.0001)         System time:  0.129981
(PID.TID 0000.0001)     Wall clock time:  15.2082829
(PID.TID 0000.0001)          No. starts: 1
(PID.TID 0000.0001)           No. stops: 1
(PID.TID 0000.0001)   Seconds in section "INITIALISE_FIXED       [THE_MODEL_MAIN]":
(PID.TID 0000.0001)           User time:  0.112982999
(PID.TID 0000.0001)         System time:  0.0249969995
(PID.TID 0000.0001)     Wall clock time:  0.137573004
(PID.TID 0000.0001)          No. starts: 1
(PID.TID 0000.0001)           No. stops: 1
(PID.TID 0000.0001)   Seconds in section "THE_MAIN_LOOP          [THE_MODEL_MAIN]":
(PID.TID 0000.0001)           User time:  14.9277308
(PID.TID 0000.0001)         System time:  0.104984
(PID.TID 0000.0001)     Wall clock time:  15.0706508
(PID.TID 0000.0001)          No. starts: 1
(PID.TID 0000.0001)           No. stops: 1
(PID.TID 0000.0001)   Seconds in section "INITIALISE_VARIA    [THE_MAIN_LOOP]":
(PID.TID 0000.0001)           User time:  0.269958995
(PID.TID 0000.0001)         System time:  0.0249960013
(PID.TID 0000.0001)     Wall clock time:  0.299674988
(PID.TID 0000.0001)          No. starts: 1
(PID.TID 0000.0001)           No. stops: 1
(PID.TID 0000.0001)   Seconds in section "MAIN LOOP           [THE_MAIN_LOOP]":
(PID.TID 0000.0001)           User time:  14.6577718
(PID.TID 0000.0001)         System time:  0.0799879991
(PID.TID 0000.0001)     Wall clock time:  14.7709281
(PID.TID 0000.0001)          No. starts: 1
(PID.TID 0000.0001)           No. stops: 1
(PID.TID 0000.0001)   Seconds in section "FORWARD_STEP        [THE_MAIN_LOOP]":
(PID.TID 0000.0001)           User time:  14.6577718
(PID.TID 0000.0001)         System time:  0.0799879991
(PID.TID 0000.0001)     Wall clock time:  14.7706037
(PID.TID 0000.0001)          No. starts: 20
(PID.TID 0000.0001)           No. stops: 20
(PID.TID 0000.0001)   Seconds in section "DO_STATEVARS_DIAGS  [FORWARD_STEP]":
(PID.TID 0000.0001)           User time:  0.000999927521
(PID.TID 0000.0001)         System time:  0.
(PID.TID 0000.0001)     Wall clock time:  0.000881433487
(PID.TID 0000.0001)          No. starts: 40
(PID.TID 0000.0001)           No. stops: 40
(PID.TID 0000.0001)   Seconds in section "LOAD_FIELDS_DRIVER  [FORWARD_STEP]":
(PID.TID 0000.0001)           User time:  0.
(PID.TID 0000.0001)         System time:  0.
(PID.TID 0000.0001)     Wall clock time:  0.000929117203
(PID.TID 0000.0001)          No. starts: 20
(PID.TID 0000.0001)           No. stops: 20
(PID.TID 0000.0001)   Seconds in section "EXTERNAL_FLDS_LOAD [LOAD_FLDS_DRIVER]":
(PID.TID 0000.0001)           User time:  0.
(PID.TID 0000.0001)         System time:  0.
(PID.TID 0000.0001)     Wall clock time:  0.000311374664
(PID.TID 0000.0001)          No. starts: 20
(PID.TID 0000.0001)           No. stops: 20
(PID.TID 0000.0001)   Seconds in section "DO_ATMOSPHERIC_PHYS [FORWARD_STEP]":
(PID.TID 0000.0001)           User time:  0.000999450684
(PID.TID 0000.0001)         System time:  0.
(PID.TID 0000.0001)     Wall clock time:  0.000306129456
(PID.TID 0000.0001)          No. starts: 20
(PID.TID 0000.0001)           No. stops: 20
(PID.TID 0000.0001)   Seconds in section "DO_OCEANIC_PHYS     [FORWARD_STEP]":
(PID.TID 0000.0001)           User time:  0.976848572
(PID.TID 0000.0001)         System time:  0.000999994576
(PID.TID 0000.0001)     Wall clock time:  0.974212646
(PID.TID 0000.0001)          No. starts: 20
(PID.TID 0000.0001)           No. stops: 20
(PID.TID 0000.0001)   Seconds in section "SHELFICE_THERMODYNAMICS [DO_OCEANIC_PHYS]":
(PID.TID 0000.0001)           User time:  0.0459908545
(PID.TID 0000.0001)         System time:  0.
(PID.TID 0000.0001)     Wall clock time:  0.0451757908
(PID.TID 0000.0001)          No. starts: 20
(PID.TID 0000.0001)           No. stops: 20
(PID.TID 0000.0001)   Seconds in section "ICEFRONT_THERMODYNAMICS [DO_OCEANIC_PHYS]":
(PID.TID 0000.0001)           User time:  0.252958924
(PID.TID 0000.0001)         System time:  0.
(PID.TID 0000.0001)     Wall clock time:  0.254122496
(PID.TID 0000.0001)          No. starts: 20
(PID.TID 0000.0001)           No. stops: 20
(PID.TID 0000.0001)   Seconds in section "THERMODYNAMICS      [FORWARD_STEP]":
(PID.TID 0000.0001)           User time:  2.28665528
(PID.TID 0000.0001)         System time:  0.00199900195
(PID.TID 0000.0001)     Wall clock time:  2.29591894
(PID.TID 0000.0001)          No. starts: 20
(PID.TID 0000.0001)           No. stops: 20
(PID.TID 0000.0001)   Seconds in section "DYNAMICS            [FORWARD_STEP]":
(PID.TID 0000.0001)           User time:  5.15121609
(PID.TID 0000.0001)         System time:  0.000999998301
(PID.TID 0000.0001)     Wall clock time:  5.15683389
(PID.TID 0000.0001)          No. starts: 20
(PID.TID 0000.0001)           No. stops: 20
(PID.TID 0000.0001)   Seconds in section "SOLVE_FOR_PRESSURE  [FORWARD_STEP]":
(PID.TID 0000.0001)           User time:  2.13867337
(PID.TID 0000.0001)         System time:  0.
(PID.TID 0000.0001)     Wall clock time:  2.13873982
(PID.TID 0000.0001)          No. starts: 20
(PID.TID 0000.0001)           No. stops: 20
(PID.TID 0000.0001)   Seconds in section "MOM_CORRECTION_STEP [FORWARD_STEP]":
(PID.TID 0000.0001)           User time:  0.500923336
(PID.TID 0000.0001)         System time:  0.
(PID.TID 0000.0001)     Wall clock time:  0.501456738
(PID.TID 0000.0001)          No. starts: 20
(PID.TID 0000.0001)           No. stops: 20
(PID.TID 0000.0001)   Seconds in section "UPDATE_ETAH         [FORWARD_STEP]":
(PID.TID 0000.0001)           User time:  0.00499916077
(PID.TID 0000.0001)         System time:  0.
(PID.TID 0000.0001)     Wall clock time:  0.00228333473
(PID.TID 0000.0001)          No. starts: 20
(PID.TID 0000.0001)           No. stops: 20
(PID.TID 0000.0001)   Seconds in section "TRC_CORRECTION_STEP [FORWARD_STEP]":
(PID.TID 0000.0001)           User time:  1.47177607
(PID.TID 0000.0001)         System time:  0.00100000203
(PID.TID 0000.0001)     Wall clock time:  1.47633243
(PID.TID 0000.0001)          No. starts: 20
(PID.TID 0000.0001)           No. stops: 20
(PID.TID 0000.0001)   Seconds in section "BLOCKING_EXCHANGES  [FORWARD_STEP]":
(PID.TID 0000.0001)           User time:  0.150979996
(PID.TID 0000.0001)         System time:  0.
(PID.TID 0000.0001)     Wall clock time:  0.15126276
(PID.TID 0000.0001)          No. starts: 20
(PID.TID 0000.0001)           No. stops: 20
(PID.TID 0000.0001)   Seconds in section "DO_STATEVARS_TAVE   [FORWARD_STEP]":
(PID.TID 0000.0001)           User time:  0.000999450684
(PID.TID 0000.0001)         System time:  0.
(PID.TID 0000.0001)     Wall clock time:  0.000308513641
(PID.TID 0000.0001)          No. starts: 20
(PID.TID 0000.0001)           No. stops: 20
(PID.TID 0000.0001)   Seconds in section "MONITOR             [FORWARD_STEP]":
(PID.TID 0000.0001)           User time:  1.75973368
(PID.TID 0000.0001)         System time:  0.
(PID.TID 0000.0001)     Wall clock time:  1.75821853
(PID.TID 0000.0001)          No. starts: 20
(PID.TID 0000.0001)           No. stops: 20
(PID.TID 0000.0001)   Seconds in section "DO_THE_MODEL_IO     [FORWARD_STEP]":
(PID.TID 0000.0001)           User time:  0.0829863548
(PID.TID 0000.0001)         System time:  0.0269960016
(PID.TID 0000.0001)     Wall clock time:  0.110226154
(PID.TID 0000.0001)          No. starts: 20
(PID.TID 0000.0001)           No. stops: 20
(PID.TID 0000.0001)   Seconds in section "DO_WRITE_PICKUP     [FORWARD_STEP]":
(PID.TID 0000.0001)           User time:  0.126980782
(PID.TID 0000.0001)         System time:  0.0469930023
(PID.TID 0000.0001)     Wall clock time:  0.197160006
(PID.TID 0000.0001)          No. starts: 20
(PID.TID 0000.0001)           No. stops: 20
(PID.TID 0000.0001) // ======================================================
(PID.TID 0000.0001) // Tile <-> Tile communication statistics
(PID.TID 0000.0001) // ======================================================
(PID.TID 0000.0001) // o Tile number: 000001
(PID.TID 0000.0001) //         No. X exchanges =              0
(PID.TID 0000.0001) //            Max. X spins =              0
(PID.TID 0000.0001) //            Min. X spins =     1000000000
(PID.TID 0000.0001) //          Total. X spins =              0
(PID.TID 0000.0001) //            Avg. X spins =       0.00E+00
(PID.TID 0000.0001) //         No. Y exchanges =              0
(PID.TID 0000.0001) //            Max. Y spins =              0
(PID.TID 0000.0001) //            Min. Y spins =     1000000000
(PID.TID 0000.0001) //          Total. Y spins =              0
(PID.TID 0000.0001) //            Avg. Y spins =       0.00E+00
(PID.TID 0000.0001) // o Tile number: 000002
(PID.TID 0000.0001) //         No. X exchanges =              0
(PID.TID 0000.0001) //            Max. X spins =              0
(PID.TID 0000.0001) //            Min. X spins =     1000000000
(PID.TID 0000.0001) //          Total. X spins =              0
(PID.TID 0000.0001) //            Avg. X spins =       0.00E+00
(PID.TID 0000.0001) //         No. Y exchanges =              0
(PID.TID 0000.0001) //            Max. Y spins =              0
(PID.TID 0000.0001) //            Min. Y spins =     1000000000
(PID.TID 0000.0001) //          Total. Y spins =              0
(PID.TID 0000.0001) //            Avg. Y spins =       0.00E+00
(PID.TID 0000.0001) // o Thread number: 000001
(PID.TID 0000.0001) //            No. barriers =          28296
(PID.TID 0000.0001) //      Max. barrier spins =              1
(PID.TID 0000.0001) //      Min. barrier spins =              1
(PID.TID 0000.0001) //     Total barrier spins =          28296
(PID.TID 0000.0001) //      Avg. barrier spins =       1.00E+00
