(PID.TID 0000.0001) 
(PID.TID 0000.0001) // ======================================================
(PID.TID 0000.0001) //                      MITgcm UV
(PID.TID 0000.0001) //                      =========
(PID.TID 0000.0001) // ======================================================
(PID.TID 0000.0001) // execution environment starting up...
(PID.TID 0000.0001) 
(PID.TID 0000.0001) // MITgcmUV version:  checkpoint63e
(PID.TID 0000.0001) // Build user:        jmc
(PID.TID 0000.0001) // Build host:        baudelaire
(PID.TID 0000.0001) // Build date:        Mon Nov  7 16:02:43 EST 2011
(PID.TID 0000.0001) 
(PID.TID 0000.0001) // =======================================================
(PID.TID 0000.0001) // Execution Environment parameter file "eedata"
(PID.TID 0000.0001) // =======================================================
(PID.TID 0000.0001) ># Example "eedata" file
(PID.TID 0000.0001) ># Lines beginning "#" are comments
(PID.TID 0000.0001) ># nTx - No. threads per process in X
(PID.TID 0000.0001) ># nTy - No. threads per process in Y
(PID.TID 0000.0001) > &EEPARMS
(PID.TID 0000.0001) > /
(PID.TID 0000.0001) ># Note: Some systems use & as the
(PID.TID 0000.0001) ># namelist terminator. Other systems
(PID.TID 0000.0001) ># use a / character (as shown here).
(PID.TID 0000.0001) 
(PID.TID 0000.0001) // =======================================================
(PID.TID 0000.0001) // Computational Grid Specification ( see files "SIZE.h" )
(PID.TID 0000.0001) //                                  ( and "eedata"       )
(PID.TID 0000.0001) // =======================================================
(PID.TID 0000.0001)      nPx =    1 ; /* No. processes in X */
(PID.TID 0000.0001)      nPy =    1 ; /* No. processes in Y */
(PID.TID 0000.0001)      nSx =    1 ; /* No. tiles in X per process */
(PID.TID 0000.0001)      nSy =    2 ; /* No. tiles in Y per process */
(PID.TID 0000.0001)      sNx =   50 ; /* Tile size in X */
(PID.TID 0000.0001)      sNy =   50 ; /* Tile size in Y */
(PID.TID 0000.0001)      OLx =    3 ; /* Tile overlap distance in X */
(PID.TID 0000.0001)      OLy =    3 ; /* Tile overlap distance in Y */
(PID.TID 0000.0001)      nTx =    1 ; /* No. threads in X per process */
(PID.TID 0000.0001)      nTy =    1 ; /* No. threads in Y per process */
(PID.TID 0000.0001)       Nr =   30 ; /* No. levels in the vertical   */
(PID.TID 0000.0001)       Nx =   50 ; /* Total domain size in X ( = nPx*nSx*sNx ) */
(PID.TID 0000.0001)       Ny =  100 ; /* Total domain size in Y ( = nPy*nSy*sNy ) */
(PID.TID 0000.0001)   nTiles =    2 ; /* Total no. tiles per process ( = nSx*nSy ) */
(PID.TID 0000.0001)   nProcs =    1 ; /* Total no. processes ( = nPx*nPy ) */
(PID.TID 0000.0001) nThreads =    1 ; /* Total no. threads per process ( = nTx*nTy ) */
(PID.TID 0000.0001) usingMPI =    F ; /* Flag used to control whether MPI is in use */
(PID.TID 0000.0001)                   /*  note: To execute a program with MPI calls */
(PID.TID 0000.0001)                   /*  it must be launched appropriately e.g     */
(PID.TID 0000.0001)                   /*  "mpirun -np 64 ......"                    */
(PID.TID 0000.0001) useCoupler=    F ;/* Flag used to control communications with   */
(PID.TID 0000.0001)                   /*  other model components, through a coupler */
(PID.TID 0000.0001) debugMode =    F ; /* print debug msg. (sequence of S/R calls)  */
(PID.TID 0000.0001) printMapIncludesZeros=    F ; /* print zeros in Std.Output maps */
(PID.TID 0000.0001) maxLengthPrt1D=   65 /* maxLength of 1D array printed to StdOut */
(PID.TID 0000.0001) 
(PID.TID 0000.0001) // ======================================================
(PID.TID 0000.0001) // Mapping of tiles to threads
(PID.TID 0000.0001) // ======================================================
(PID.TID 0000.0001) // -o- Thread   1, tiles (   1:   1,   1:   2)
(PID.TID 0000.0001) 
(PID.TID 0000.0001) // ======================================================
(PID.TID 0000.0001) // Tile <-> Tile connectvity table
(PID.TID 0000.0001) // ======================================================
(PID.TID 0000.0001) // Tile number: 000001 (process no. = 000001)
(PID.TID 0000.0001) //        WEST: Tile = 000001, Process = 000001, Comm = put
(PID.TID 0000.0001) //                bi = 000001, bj = 000001
(PID.TID 0000.0001) //        EAST: Tile = 000001, Process = 000001, Comm = put
(PID.TID 0000.0001) //                bi = 000001, bj = 000001
(PID.TID 0000.0001) //       SOUTH: Tile = 000002, Process = 000001, Comm = put
(PID.TID 0000.0001) //                bi = 000001, bj = 000002
(PID.TID 0000.0001) //       NORTH: Tile = 000002, Process = 000001, Comm = put
(PID.TID 0000.0001) //                bi = 000001, bj = 000002
(PID.TID 0000.0001) // Tile number: 000002 (process no. = 000001)
(PID.TID 0000.0001) //        WEST: Tile = 000002, Process = 000001, Comm = put
(PID.TID 0000.0001) //                bi = 000001, bj = 000002
(PID.TID 0000.0001) //        EAST: Tile = 000002, Process = 000001, Comm = put
(PID.TID 0000.0001) //                bi = 000001, bj = 000002
(PID.TID 0000.0001) //       SOUTH: Tile = 000001, Process = 000001, Comm = put
(PID.TID 0000.0001) //                bi = 000001, bj = 000001
(PID.TID 0000.0001) //       NORTH: Tile = 000001, Process = 000001, Comm = put
(PID.TID 0000.0001) //                bi = 000001, bj = 000001
(PID.TID 0000.0001) 
(PID.TID 0000.0001)  INI_PARMS: opening model parameter file "data"
(PID.TID 0000.0001)  OPEN_COPY_DATA_FILE: opening file data
(PID.TID 0000.0001) // =======================================================
(PID.TID 0000.0001) // Parameter file "data"
(PID.TID 0000.0001) // =======================================================
(PID.TID 0000.0001) ># ====================
(PID.TID 0000.0001) ># | Model parameters |
(PID.TID 0000.0001) ># ====================
(PID.TID 0000.0001) >#
(PID.TID 0000.0001) ># Continuous equation parameters
(PID.TID 0000.0001) > &PARM01
(PID.TID 0000.0001) > Tref = 30*-1.9,
(PID.TID 0000.0001) > Sref = 30*34.4,
(PID.TID 0000.0001) > viscAz=1.E-3,
(PID.TID 0000.0001) > viscAh=600.0,
(PID.TID 0000.0001) > no_slip_sides=.FALSE.,
(PID.TID 0000.0001) > no_slip_bottom=.FALSE.,
(PID.TID 0000.0001) > diffKhT=100.0,
(PID.TID 0000.0001) > diffKzT=5.E-5,
(PID.TID 0000.0001) > diffKhS=100.0,
(PID.TID 0000.0001) > diffKzS=5.E-5,
(PID.TID 0000.0001) > bottomDragQuadratic=2.5E-3,
(PID.TID 0000.0001) > eosType='JMD95Z',
(PID.TID 0000.0001) > HeatCapacity_cp = 3974.0,
(PID.TID 0000.0001) > rhoConst=1030.,
(PID.TID 0000.0001) > rhoNil=1030.,
(PID.TID 0000.0001) > gravity=9.81,
(PID.TID 0000.0001) > convertFW2Salt = 33.4,
(PID.TID 0000.0001) > rigidLid=.FALSE.,
(PID.TID 0000.0001) > implicitFreeSurface=.TRUE.,
(PID.TID 0000.0001) > exactConserv=.TRUE.,
(PID.TID 0000.0001) > hFacMin=0.05,
(PID.TID 0000.0001) > nonHydrostatic=.FALSE.,
(PID.TID 0000.0001) > readBinaryPrec=64,
(PID.TID 0000.0001) > useCDScheme = .TRUE.,
(PID.TID 0000.0001) > /
(PID.TID 0000.0001) >
(PID.TID 0000.0001) ># Elliptic solver parameters
(PID.TID 0000.0001) > &PARM02
(PID.TID 0000.0001) > cg2dMaxIters=1000,
(PID.TID 0000.0001) > cg2dTargetResidual=1.E-13,
(PID.TID 0000.0001) > cg3dMaxIters=400,
(PID.TID 0000.0001) > cg3dTargetResidual=1.E-13,
(PID.TID 0000.0001) > /
(PID.TID 0000.0001) >
(PID.TID 0000.0001) ># Time stepping parameters
(PID.TID 0000.0001) > &PARM03
(PID.TID 0000.0001) > nIter0=0,
(PID.TID 0000.0001) > nTimeSteps=20,
(PID.TID 0000.0001) > deltaT=1800.0,
(PID.TID 0000.0001) > abEps=0.1,
(PID.TID 0000.0001) > cAdjFreq = -1.,
(PID.TID 0000.0001) > tauCD = 400000.,
(PID.TID 0000.0001) > pChkptFreq=0.0,
(PID.TID 0000.0001) > chkptFreq=0.0,
(PID.TID 0000.0001) > dumpFreq=0.0,
(PID.TID 0000.0001) > taveFreq=0.0,
(PID.TID 0000.0001) > monitorFreq=1.,
(PID.TID 0000.0001) > monitorSelect=2,
(PID.TID 0000.0001) > /
(PID.TID 0000.0001) >
(PID.TID 0000.0001) ># Gridding parameters
(PID.TID 0000.0001) > &PARM04
(PID.TID 0000.0001) > usingSphericalPolarGrid=.TRUE.,
(PID.TID 0000.0001) > ygOrigin = -80.0,
(PID.TID 0000.0001) > delX=50*0.3,
(PID.TID 0000.0001) > delY=100*0.1,
(PID.TID 0000.0001) > delZ=30*30.0,
(PID.TID 0000.0001) > /
(PID.TID 0000.0001) >
(PID.TID 0000.0001) ># Input datasets
(PID.TID 0000.0001) > &PARM05
(PID.TID 0000.0001) > bathyFile='bathy.box',
(PID.TID 0000.0001) > /
(PID.TID 0000.0001) 
(PID.TID 0000.0001)  INI_PARMS ; starts to read PARM01
(PID.TID 0000.0001)  INI_PARMS ; read PARM01 : OK
(PID.TID 0000.0001)  INI_PARMS ; starts to read PARM02
(PID.TID 0000.0001)  INI_PARMS ; read PARM02 : OK
(PID.TID 0000.0001)  INI_PARMS ; starts to read PARM03
(PID.TID 0000.0001)  INI_PARMS ; read PARM03 : OK
(PID.TID 0000.0001)  INI_PARMS ; starts to read PARM04
(PID.TID 0000.0001)  INI_PARMS ; read PARM04 : OK
(PID.TID 0000.0001)  INI_PARMS ; starts to read PARM05
(PID.TID 0000.0001)  INI_PARMS ; read PARM05 : OK
(PID.TID 0000.0001)  INI_PARMS: finished reading file "data"
(PID.TID 0000.0001)  PACKAGES_BOOT: opening data.pkg
(PID.TID 0000.0001)  OPEN_COPY_DATA_FILE: opening file data.pkg
(PID.TID 0000.0001) // =======================================================
(PID.TID 0000.0001) // Parameter file "data.pkg"
(PID.TID 0000.0001) // =======================================================
(PID.TID 0000.0001) ># Packages
(PID.TID 0000.0001) > &PACKAGES
(PID.TID 0000.0001) > useMNC=.TRUE.,
(PID.TID 0000.0001) > useShelfIce=.true.,
(PID.TID 0000.0001) > /
(PID.TID 0000.0001) 
(PID.TID 0000.0001)  PACKAGES_BOOT: finished reading data.pkg
(PID.TID 0000.0001)  MNC_READPARMS: opening file 'data.mnc'
(PID.TID 0000.0001)  OPEN_COPY_DATA_FILE: opening file data.mnc
(PID.TID 0000.0001) // =======================================================
(PID.TID 0000.0001) // Parameter file "data.mnc"
(PID.TID 0000.0001) // =======================================================
(PID.TID 0000.0001) ># Example "data.mnc" file
(PID.TID 0000.0001) ># Lines beginning "#" are comments
(PID.TID 0000.0001) > &MNC_01
(PID.TID 0000.0001) ># mnc_echo_gvtypes=.FALSE.,
(PID.TID 0000.0001) ># mnc_use_indir=.FALSE.,
(PID.TID 0000.0001) > mnc_use_outdir=.TRUE.,
(PID.TID 0000.0001) > mnc_outdir_str='mnc_test_',
(PID.TID 0000.0001) >#mnc_outdir_date=.TRUE.,
(PID.TID 0000.0001) > monitor_mnc=.FALSE.,
(PID.TID 0000.0001) >#snapshot_mnc=.FALSE.,
(PID.TID 0000.0001) >#timeave_mnc=.FALSE.,
(PID.TID 0000.0001) > pickup_read_mnc=.FALSE.,
(PID.TID 0000.0001) > pickup_write_mnc=.FALSE.,
(PID.TID 0000.0001) > /
(PID.TID 0000.0001) ># Note: Some systems use & as the
(PID.TID 0000.0001) ># namelist terminator. Other systems
(PID.TID 0000.0001) ># use a / character (as shown here).
(PID.TID 0000.0001) 
(PID.TID 0000.0001)  MNC_READPARMS: finished reading data.mnc
(PID.TID 0000.0001)  SHELFICE_READPARMS: opening data.shelfice
(PID.TID 0000.0001)  OPEN_COPY_DATA_FILE: opening file data.shelfice
(PID.TID 0000.0001) // =======================================================
(PID.TID 0000.0001) // Parameter file "data.shelfice"
(PID.TID 0000.0001) // =======================================================
(PID.TID 0000.0001) ># ===================================
(PID.TID 0000.0001) ># | Parameters for SHELFICE package |
(PID.TID 0000.0001) ># ===================================
(PID.TID 0000.0001) > &SHELFICE_PARM01
(PID.TID 0000.0001) > SHELFICEboundaryLayer = .TRUE.,
(PID.TID 0000.0001) > SHELFICEtopoFile='icetopo.exp1',
(PID.TID 0000.0001) > SHELFICEloadAnomalyFile = 'phi0surf.exp1.jmd95z',
(PID.TID 0000.0001) > useISOMIPTD = .TRUE.,
(PID.TID 0000.0001) > SHELFICEuseGammaFrict = .FALSE.
(PID.TID 0000.0001) > no_slip_shelfice = .false.,
(PID.TID 0000.0001) > SHELFICEwriteState = .TRUE.,
(PID.TID 0000.0001) > /
(PID.TID 0000.0001) 
(PID.TID 0000.0001)  SHELFICE_READPARMS: finished reading data.shelfice
(PID.TID 0000.0001) SET_PARMS: done
(PID.TID 0000.0001) Enter INI_VERTICAL_GRID: setInterFDr=    T ; setCenterDr=    F
(PID.TID 0000.0001) %MON XC_max                       =   1.4850000000000E+01
(PID.TID 0000.0001) %MON XC_min                       =   1.5000000000000E-01
(PID.TID 0000.0001) %MON XC_mean                      =   7.5000000000000E+00
(PID.TID 0000.0001) %MON XC_sd                        =   4.3292609068985E+00
(PID.TID 0000.0001) %MON XG_max                       =   1.4700000000000E+01
(PID.TID 0000.0001) %MON XG_min                       =   1.1102230246252E-16
(PID.TID 0000.0001) %MON XG_mean                      =   7.3500000000000E+00
(PID.TID 0000.0001) %MON XG_sd                        =   4.3292609068985E+00
(PID.TID 0000.0001) %MON DXC_max                      =   1.1380125394806E+04
(PID.TID 0000.0001) %MON DXC_min                      =   5.8203914905589E+03
(PID.TID 0000.0001) %MON DXC_mean                     =   8.6215028627206E+03
(PID.TID 0000.0001) %MON DXC_sd                       =   1.6219001271572E+03
(PID.TID 0000.0001) %MON DXF_max                      =   1.1380125394806E+04
(PID.TID 0000.0001) %MON DXF_min                      =   5.8203914905589E+03
(PID.TID 0000.0001) %MON DXF_mean                     =   8.6215028627206E+03
(PID.TID 0000.0001) %MON DXF_sd                       =   1.6219001271572E+03
(PID.TID 0000.0001) %MON DXG_max                      =   1.1352761512017E+04
(PID.TID 0000.0001) %MON DXG_min                      =   5.7917296935586E+03
(PID.TID 0000.0001) %MON DXG_mean                     =   8.5934208253080E+03
(PID.TID 0000.0001) %MON DXG_sd                       =   1.6222785520817E+03
(PID.TID 0000.0001) %MON DXV_max                      =   1.1352761512017E+04
(PID.TID 0000.0001) %MON DXV_min                      =   5.7917296935586E+03
(PID.TID 0000.0001) %MON DXV_mean                     =   8.5934208253080E+03
(PID.TID 0000.0001) %MON DXV_sd                       =   1.6222785520817E+03
(PID.TID 0000.0001) %MON YC_max                       =  -7.0050000000001E+01
(PID.TID 0000.0001) %MON YC_min                       =  -7.9950000000000E+01
(PID.TID 0000.0001) %MON YC_mean                      =  -7.5000000000000E+01
(PID.TID 0000.0001) %MON YC_sd                        =   2.8866070047720E+00
(PID.TID 0000.0001) %MON YG_max                       =  -7.0100000000001E+01
(PID.TID 0000.0001) %MON YG_min                       =  -8.0000000000000E+01
(PID.TID 0000.0001) %MON YG_mean                      =  -7.5050000000000E+01
(PID.TID 0000.0001) %MON YG_sd                        =   2.8866070047720E+00
(PID.TID 0000.0001) %MON DYC_max                      =   1.1117747335204E+04
(PID.TID 0000.0001) %MON DYC_min                      =   1.1117747335204E+04
(PID.TID 0000.0001) %MON DYC_mean                     =   1.1117747335203E+04
(PID.TID 0000.0001) %MON DYC_sd                       =   6.0754246078432E-10
(PID.TID 0000.0001) %MON DYF_max                      =   1.1117747335204E+04
(PID.TID 0000.0001) %MON DYF_min                      =   1.1117747335204E+04
(PID.TID 0000.0001) %MON DYF_mean                     =   1.1117747335203E+04
(PID.TID 0000.0001) %MON DYF_sd                       =   6.0754246078432E-10
(PID.TID 0000.0001) %MON DYG_max                      =   1.1117747335204E+04
(PID.TID 0000.0001) %MON DYG_min                      =   1.1117747335204E+04
(PID.TID 0000.0001) %MON DYG_mean                     =   1.1117747335203E+04
(PID.TID 0000.0001) %MON DYG_sd                       =   6.0754246078432E-10
(PID.TID 0000.0001) %MON DYU_max                      =   1.1117747335204E+04
(PID.TID 0000.0001) %MON DYU_min                      =   1.1117747335204E+04
(PID.TID 0000.0001) %MON DYU_mean                     =   1.1117747335203E+04
(PID.TID 0000.0001) %MON DYU_sd                       =   6.0754246078432E-10
(PID.TID 0000.0001) %MON RA_max                       =   1.2652134272379E+08
(PID.TID 0000.0001) %MON RA_min                       =   6.4709633770803E+07
(PID.TID 0000.0001) %MON RA_mean                      =   9.5851678311588E+07
(PID.TID 0000.0001) %MON RA_sd                        =   1.8031873527991E+07
(PID.TID 0000.0001) %MON RAW_max                      =   1.2652134272379E+08
(PID.TID 0000.0001) %MON RAW_min                      =   6.4709633770803E+07
(PID.TID 0000.0001) %MON RAW_mean                     =   9.5851678311588E+07
(PID.TID 0000.0001) %MON RAW_sd                       =   1.8031873527991E+07
(PID.TID 0000.0001) %MON RAS_max                      =   1.2621711802744E+08
(PID.TID 0000.0001) %MON RAS_min                      =   6.4390979194019E+07
(PID.TID 0000.0001) %MON RAS_mean                     =   9.5539469354603E+07
(PID.TID 0000.0001) %MON RAS_sd                       =   1.8036080760153E+07
(PID.TID 0000.0001) %MON RAZ_max                      =   1.2621711802744E+08
(PID.TID 0000.0001) %MON RAZ_min                      =   6.4390979194019E+07
(PID.TID 0000.0001) %MON RAZ_mean                     =   9.5539469354603E+07
(PID.TID 0000.0001) %MON RAZ_sd                       =   1.8036080760153E+07
(PID.TID 0000.0001) %MON AngleCS_max                  =   1.0000000000000E+00
(PID.TID 0000.0001) %MON AngleCS_min                  =   1.0000000000000E+00
(PID.TID 0000.0001) %MON AngleCS_mean                 =   1.0000000000000E+00
(PID.TID 0000.0001) %MON AngleCS_sd                   =   0.0000000000000E+00
(PID.TID 0000.0001) %MON AngleSN_max                  =   0.0000000000000E+00
(PID.TID 0000.0001) %MON AngleSN_min                  =   0.0000000000000E+00
(PID.TID 0000.0001) %MON AngleSN_mean                 =   0.0000000000000E+00
(PID.TID 0000.0001) %MON AngleSN_sd                   =   0.0000000000000E+00
(PID.TID 0000.0001)  MDS_READ_FIELD: opening global file: bathy.box
(PID.TID 0000.0001)  MDS_READ_FIELD: opening global file: icetopo.exp1
(PID.TID 0000.0001) // =======================================================
(PID.TID 0000.0001) // Field Model R_low (ini_masks_etc)
(PID.TID 0000.0001) // CMIN =         -9.000000000000000E+02
(PID.TID 0000.0001) // CMAX =         -9.000000000000000E+02
(PID.TID 0000.0001) // CINT =          0.000000000000000E+00
(PID.TID 0000.0001) // SYMBOLS (CMIN->CMAX): -abcdefghijklmnopqrstuvwxyz+
(PID.TID 0000.0001) //                  0.0: .
(PID.TID 0000.0001) // RANGE I (Lo:Hi:Step):(    -2:    53:     1)
(PID.TID 0000.0001) // RANGE J (Lo:Hi:Step):(   103:    -2:    -1)
(PID.TID 0000.0001) // RANGE K (Lo:Hi:Step):(   1:   1:   1)
(PID.TID 0000.0001) // =======================================================
(PID.TID 0000.0001) // =======================================================
(PID.TID 0000.0001) // END OF FIELD                                          =
(PID.TID 0000.0001) // =======================================================
(PID.TID 0000.0001) 
(PID.TID 0000.0001) // =======================================================
(PID.TID 0000.0001) // Field Model Ro_surf (ini_masks_etc)
(PID.TID 0000.0001) // CMIN =         -6.812500000000010E+02
(PID.TID 0000.0001) // CMAX =         -2.000000000000000E+02
(PID.TID 0000.0001) // CINT =          1.782407407407411E+01
(PID.TID 0000.0001) // SYMBOLS (CMIN->CMAX): -abcdefghijklmnopqrstuvwxyz+
(PID.TID 0000.0001) //                  0.0: .
(PID.TID 0000.0001) // RANGE I (Lo:Hi:Step):(    -2:    53:     1)
(PID.TID 0000.0001) // RANGE J (Lo:Hi:Step):(   103:    -2:    -1)
(PID.TID 0000.0001) // RANGE K (Lo:Hi:Step):(   1:   1:   1)
(PID.TID 0000.0001) // =======================================================
(PID.TID 0000.0001) K =   1
(PID.TID 0000.0001) //                I=7       I=17      I=27      I=37      I=47
(PID.TID 0000.0001) // |--J--|210123456|890123456|890123456|890123456|890123456|890123
(PID.TID 0000.0001) //    103 aaa.aaaaaaaaaaaaaaaaaaaaaaaaaaaaaaaaaaaaaaaaaaaaaaaaa.aa
(PID.TID 0000.0001) //    102 ---.-------------------------------------------------.--
(PID.TID 0000.0001) //    101 ........................................................
(PID.TID 0000.0001) //    100 +++.+++++++++++++++++++++++++++++++++++++++++++++++++.++
(PID.TID 0000.0001) //     99 +++.+++++++++++++++++++++++++++++++++++++++++++++++++.++
(PID.TID 0000.0001) //     98 +++.+++++++++++++++++++++++++++++++++++++++++++++++++.++
(PID.TID 0000.0001) //     97 +++.+++++++++++++++++++++++++++++++++++++++++++++++++.++
(PID.TID 0000.0001) //     96 +++.+++++++++++++++++++++++++++++++++++++++++++++++++.++
(PID.TID 0000.0001) //     95 +++.+++++++++++++++++++++++++++++++++++++++++++++++++.++
(PID.TID 0000.0001) //     94 +++.+++++++++++++++++++++++++++++++++++++++++++++++++.++
(PID.TID 0000.0001) //     93 +++.+++++++++++++++++++++++++++++++++++++++++++++++++.++
(PID.TID 0000.0001) //     92 +++.+++++++++++++++++++++++++++++++++++++++++++++++++.++
(PID.TID 0000.0001) //     91 +++.+++++++++++++++++++++++++++++++++++++++++++++++++.++
(PID.TID 0000.0001) //     90 +++.+++++++++++++++++++++++++++++++++++++++++++++++++.++
(PID.TID 0000.0001) //     89 +++.+++++++++++++++++++++++++++++++++++++++++++++++++.++
(PID.TID 0000.0001) //     88 +++.+++++++++++++++++++++++++++++++++++++++++++++++++.++
(PID.TID 0000.0001) //     87 +++.+++++++++++++++++++++++++++++++++++++++++++++++++.++
(PID.TID 0000.0001) //     86 +++.+++++++++++++++++++++++++++++++++++++++++++++++++.++
(PID.TID 0000.0001) //     85 +++.+++++++++++++++++++++++++++++++++++++++++++++++++.++
(PID.TID 0000.0001) //     84 +++.+++++++++++++++++++++++++++++++++++++++++++++++++.++
(PID.TID 0000.0001) //     83 +++.+++++++++++++++++++++++++++++++++++++++++++++++++.++
(PID.TID 0000.0001) //     82 +++.+++++++++++++++++++++++++++++++++++++++++++++++++.++
(PID.TID 0000.0001) //     81 +++.+++++++++++++++++++++++++++++++++++++++++++++++++.++
(PID.TID 0000.0001) //     80 +++.+++++++++++++++++++++++++++++++++++++++++++++++++.++
(PID.TID 0000.0001) //     79 +++.+++++++++++++++++++++++++++++++++++++++++++++++++.++
(PID.TID 0000.0001) //     78 +++.+++++++++++++++++++++++++++++++++++++++++++++++++.++
(PID.TID 0000.0001) //     77 +++.+++++++++++++++++++++++++++++++++++++++++++++++++.++
(PID.TID 0000.0001) //     76 +++.+++++++++++++++++++++++++++++++++++++++++++++++++.++
(PID.TID 0000.0001) //     75 +++.+++++++++++++++++++++++++++++++++++++++++++++++++.++
(PID.TID 0000.0001) //     74 +++.+++++++++++++++++++++++++++++++++++++++++++++++++.++
(PID.TID 0000.0001) //     73 +++.+++++++++++++++++++++++++++++++++++++++++++++++++.++
(PID.TID 0000.0001) //     72 +++.+++++++++++++++++++++++++++++++++++++++++++++++++.++
(PID.TID 0000.0001) //     71 +++.+++++++++++++++++++++++++++++++++++++++++++++++++.++
(PID.TID 0000.0001) //     70 +++.+++++++++++++++++++++++++++++++++++++++++++++++++.++
(PID.TID 0000.0001) //     69 +++.+++++++++++++++++++++++++++++++++++++++++++++++++.++
(PID.TID 0000.0001) //     68 +++.+++++++++++++++++++++++++++++++++++++++++++++++++.++
(PID.TID 0000.0001) //     67 +++.+++++++++++++++++++++++++++++++++++++++++++++++++.++
(PID.TID 0000.0001) //     66 +++.+++++++++++++++++++++++++++++++++++++++++++++++++.++
(PID.TID 0000.0001) //     65 +++.+++++++++++++++++++++++++++++++++++++++++++++++++.++
(PID.TID 0000.0001) //     64 +++.+++++++++++++++++++++++++++++++++++++++++++++++++.++
(PID.TID 0000.0001) //     63 +++.+++++++++++++++++++++++++++++++++++++++++++++++++.++
(PID.TID 0000.0001) //     62 +++.+++++++++++++++++++++++++++++++++++++++++++++++++.++
(PID.TID 0000.0001) //     61 +++.+++++++++++++++++++++++++++++++++++++++++++++++++.++
(PID.TID 0000.0001) //     60 +++.+++++++++++++++++++++++++++++++++++++++++++++++++.++
(PID.TID 0000.0001) //     59 +++.+++++++++++++++++++++++++++++++++++++++++++++++++.++
(PID.TID 0000.0001) //     58 +++.+++++++++++++++++++++++++++++++++++++++++++++++++.++
(PID.TID 0000.0001) //     57 +++.+++++++++++++++++++++++++++++++++++++++++++++++++.++
(PID.TID 0000.0001) //     56 +++.+++++++++++++++++++++++++++++++++++++++++++++++++.++
(PID.TID 0000.0001) //     55 +++.+++++++++++++++++++++++++++++++++++++++++++++++++.++
(PID.TID 0000.0001) //     54 +++.+++++++++++++++++++++++++++++++++++++++++++++++++.++
(PID.TID 0000.0001) //     53 +++.+++++++++++++++++++++++++++++++++++++++++++++++++.++
(PID.TID 0000.0001) //     52 +++.+++++++++++++++++++++++++++++++++++++++++++++++++.++
(PID.TID 0000.0001) //     51 +++.+++++++++++++++++++++++++++++++++++++++++++++++++.++
(PID.TID 0000.0001) //     50 +++.+++++++++++++++++++++++++++++++++++++++++++++++++.++
(PID.TID 0000.0001) //     49 +++.+++++++++++++++++++++++++++++++++++++++++++++++++.++
(PID.TID 0000.0001) //     48 +++.+++++++++++++++++++++++++++++++++++++++++++++++++.++
(PID.TID 0000.0001) //     53 +++.+++++++++++++++++++++++++++++++++++++++++++++++++.++
(PID.TID 0000.0001) //     52 +++.+++++++++++++++++++++++++++++++++++++++++++++++++.++
(PID.TID 0000.0001) //     51 +++.+++++++++++++++++++++++++++++++++++++++++++++++++.++
(PID.TID 0000.0001) //     50 +++.+++++++++++++++++++++++++++++++++++++++++++++++++.++
(PID.TID 0000.0001) //     49 +++.+++++++++++++++++++++++++++++++++++++++++++++++++.++
(PID.TID 0000.0001) //     48 +++.+++++++++++++++++++++++++++++++++++++++++++++++++.++
(PID.TID 0000.0001) //     47 +++.+++++++++++++++++++++++++++++++++++++++++++++++++.++
(PID.TID 0000.0001) //     46 +++.+++++++++++++++++++++++++++++++++++++++++++++++++.++
(PID.TID 0000.0001) //     45 +++.+++++++++++++++++++++++++++++++++++++++++++++++++.++
(PID.TID 0000.0001) //     44 +++.+++++++++++++++++++++++++++++++++++++++++++++++++.++
(PID.TID 0000.0001) //     43 +++.+++++++++++++++++++++++++++++++++++++++++++++++++.++
(PID.TID 0000.0001) //     42 +++.+++++++++++++++++++++++++++++++++++++++++++++++++.++
(PID.TID 0000.0001) //     41 +++.+++++++++++++++++++++++++++++++++++++++++++++++++.++
(PID.TID 0000.0001) //     40 +++.+++++++++++++++++++++++++++++++++++++++++++++++++.++
(PID.TID 0000.0001) //     39 zzz.zzzzzzzzzzzzzzzzzzzzzzzzzzzzzzzzzzzzzzzzzzzzzzzzz.zz
(PID.TID 0000.0001) //     38 yyy.yyyyyyyyyyyyyyyyyyyyyyyyyyyyyyyyyyyyyyyyyyyyyyyyy.yy
(PID.TID 0000.0001) //     37 yyy.yyyyyyyyyyyyyyyyyyyyyyyyyyyyyyyyyyyyyyyyyyyyyyyyy.yy
(PID.TID 0000.0001) //     36 xxx.xxxxxxxxxxxxxxxxxxxxxxxxxxxxxxxxxxxxxxxxxxxxxxxxx.xx
(PID.TID 0000.0001) //     35 www.wwwwwwwwwwwwwwwwwwwwwwwwwwwwwwwwwwwwwwwwwwwwwwwww.ww
(PID.TID 0000.0001) //     34 vvv.vvvvvvvvvvvvvvvvvvvvvvvvvvvvvvvvvvvvvvvvvvvvvvvvv.vv
(PID.TID 0000.0001) //     33 vvv.vvvvvvvvvvvvvvvvvvvvvvvvvvvvvvvvvvvvvvvvvvvvvvvvv.vv
(PID.TID 0000.0001) //     32 uuu.uuuuuuuuuuuuuuuuuuuuuuuuuuuuuuuuuuuuuuuuuuuuuuuuu.uu
(PID.TID 0000.0001) //     31 ttt.ttttttttttttttttttttttttttttttttttttttttttttttttt.tt
(PID.TID 0000.0001) //     30 ttt.ttttttttttttttttttttttttttttttttttttttttttttttttt.tt
(PID.TID 0000.0001) //     29 sss.sssssssssssssssssssssssssssssssssssssssssssssssss.ss
(PID.TID 0000.0001) //     28 rrr.rrrrrrrrrrrrrrrrrrrrrrrrrrrrrrrrrrrrrrrrrrrrrrrrr.rr
(PID.TID 0000.0001) //     27 rrr.rrrrrrrrrrrrrrrrrrrrrrrrrrrrrrrrrrrrrrrrrrrrrrrrr.rr
(PID.TID 0000.0001) //     26 qqq.qqqqqqqqqqqqqqqqqqqqqqqqqqqqqqqqqqqqqqqqqqqqqqqqq.qq
(PID.TID 0000.0001) //     25 ppp.ppppppppppppppppppppppppppppppppppppppppppppppppp.pp
(PID.TID 0000.0001) //     24 ooo.ooooooooooooooooooooooooooooooooooooooooooooooooo.oo
(PID.TID 0000.0001) //     23 ooo.ooooooooooooooooooooooooooooooooooooooooooooooooo.oo
(PID.TID 0000.0001) //     22 nnn.nnnnnnnnnnnnnnnnnnnnnnnnnnnnnnnnnnnnnnnnnnnnnnnnn.nn
(PID.TID 0000.0001) //     21 mmm.mmmmmmmmmmmmmmmmmmmmmmmmmmmmmmmmmmmmmmmmmmmmmmmmm.mm
(PID.TID 0000.0001) //     20 mmm.mmmmmmmmmmmmmmmmmmmmmmmmmmmmmmmmmmmmmmmmmmmmmmmmm.mm
(PID.TID 0000.0001) //     19 lll.lllllllllllllllllllllllllllllllllllllllllllllllll.ll
(PID.TID 0000.0001) //     18 kkk.kkkkkkkkkkkkkkkkkkkkkkkkkkkkkkkkkkkkkkkkkkkkkkkkk.kk
(PID.TID 0000.0001) //     17 kkk.kkkkkkkkkkkkkkkkkkkkkkkkkkkkkkkkkkkkkkkkkkkkkkkkk.kk
(PID.TID 0000.0001) //     16 jjj.jjjjjjjjjjjjjjjjjjjjjjjjjjjjjjjjjjjjjjjjjjjjjjjjj.jj
(PID.TID 0000.0001) //     15 iii.iiiiiiiiiiiiiiiiiiiiiiiiiiiiiiiiiiiiiiiiiiiiiiiii.ii
(PID.TID 0000.0001) //     14 hhh.hhhhhhhhhhhhhhhhhhhhhhhhhhhhhhhhhhhhhhhhhhhhhhhhh.hh
(PID.TID 0000.0001) //     13 hhh.hhhhhhhhhhhhhhhhhhhhhhhhhhhhhhhhhhhhhhhhhhhhhhhhh.hh
(PID.TID 0000.0001) //     12 ggg.ggggggggggggggggggggggggggggggggggggggggggggggggg.gg
(PID.TID 0000.0001) //     11 fff.fffffffffffffffffffffffffffffffffffffffffffffffff.ff
(PID.TID 0000.0001) //     10 fff.fffffffffffffffffffffffffffffffffffffffffffffffff.ff
(PID.TID 0000.0001) //      9 eee.eeeeeeeeeeeeeeeeeeeeeeeeeeeeeeeeeeeeeeeeeeeeeeeee.ee
(PID.TID 0000.0001) //      8 ddd.ddddddddddddddddddddddddddddddddddddddddddddddddd.dd
(PID.TID 0000.0001) //      7 ddd.ddddddddddddddddddddddddddddddddddddddddddddddddd.dd
(PID.TID 0000.0001) //      6 ccc.ccccccccccccccccccccccccccccccccccccccccccccccccc.cc
(PID.TID 0000.0001) //      5 bbb.bbbbbbbbbbbbbbbbbbbbbbbbbbbbbbbbbbbbbbbbbbbbbbbbb.bb
(PID.TID 0000.0001) //      4 aaa.aaaaaaaaaaaaaaaaaaaaaaaaaaaaaaaaaaaaaaaaaaaaaaaaa.aa
(PID.TID 0000.0001) //      3 aaa.aaaaaaaaaaaaaaaaaaaaaaaaaaaaaaaaaaaaaaaaaaaaaaaaa.aa
(PID.TID 0000.0001) //      2 ---.-------------------------------------------------.--
(PID.TID 0000.0001) //      1 ........................................................
(PID.TID 0000.0001) //      0 +++.+++++++++++++++++++++++++++++++++++++++++++++++++.++
(PID.TID 0000.0001) //     -1 +++.+++++++++++++++++++++++++++++++++++++++++++++++++.++
(PID.TID 0000.0001) //     -2 +++.+++++++++++++++++++++++++++++++++++++++++++++++++.++
(PID.TID 0000.0001) // =======================================================
(PID.TID 0000.0001) // END OF FIELD                                          =
(PID.TID 0000.0001) // =======================================================
(PID.TID 0000.0001) 
(PID.TID 0000.0001) // =======================================================
(PID.TID 0000.0001) // Field hFacC at iteration          0
(PID.TID 0000.0001) // CMIN =          1.000000000000000E+32
(PID.TID 0000.0001) // CMAX =         -1.000000000000000E+32
(PID.TID 0000.0001) // CINT =          0.000000000000000E+00
(PID.TID 0000.0001) // SYMBOLS (CMIN->CMAX): -abcdefghijklmnopqrstuvwxyz+
(PID.TID 0000.0001) //                  0.0: .
(PID.TID 0000.0001) // RANGE I (Lo:Hi:Step):(    -2:    53:     1)
(PID.TID 0000.0001) // RANGE J (Lo:Hi:Step):(   103:    -2:    -1)
(PID.TID 0000.0001) // RANGE K (Lo:Hi:Step):(   1:   1:   1)
(PID.TID 0000.0001) // =======================================================
(PID.TID 0000.0001) // =======================================================
(PID.TID 0000.0001) // END OF FIELD                                          =
(PID.TID 0000.0001) // =======================================================
(PID.TID 0000.0001) 
(PID.TID 0000.0001) // =======================================================
(PID.TID 0000.0001) // Field hFacW at iteration          0
(PID.TID 0000.0001) // CMIN =          1.000000000000000E+32
(PID.TID 0000.0001) // CMAX =         -1.000000000000000E+32
(PID.TID 0000.0001) // CINT =          0.000000000000000E+00
(PID.TID 0000.0001) // SYMBOLS (CMIN->CMAX): -abcdefghijklmnopqrstuvwxyz+
(PID.TID 0000.0001) //                  0.0: .
(PID.TID 0000.0001) // RANGE I (Lo:Hi:Step):(    -2:    53:     1)
(PID.TID 0000.0001) // RANGE J (Lo:Hi:Step):(   103:    -2:    -1)
(PID.TID 0000.0001) // RANGE K (Lo:Hi:Step):(   1:   1:   1)
(PID.TID 0000.0001) // =======================================================
(PID.TID 0000.0001) // =======================================================
(PID.TID 0000.0001) // END OF FIELD                                          =
(PID.TID 0000.0001) // =======================================================
(PID.TID 0000.0001) 
(PID.TID 0000.0001) // =======================================================
(PID.TID 0000.0001) // Field hFacS at iteration          0
(PID.TID 0000.0001) // CMIN =          1.000000000000000E+32
(PID.TID 0000.0001) // CMAX =         -1.000000000000000E+32
(PID.TID 0000.0001) // CINT =          0.000000000000000E+00
(PID.TID 0000.0001) // SYMBOLS (CMIN->CMAX): -abcdefghijklmnopqrstuvwxyz+
(PID.TID 0000.0001) //                  0.0: .
(PID.TID 0000.0001) // RANGE I (Lo:Hi:Step):(    -2:    53:     1)
(PID.TID 0000.0001) // RANGE J (Lo:Hi:Step):(   103:    -2:    -1)
(PID.TID 0000.0001) // RANGE K (Lo:Hi:Step):(   1:   1:   1)
(PID.TID 0000.0001) // =======================================================
(PID.TID 0000.0001) // =======================================================
(PID.TID 0000.0001) // END OF FIELD                                          =
(PID.TID 0000.0001) // =======================================================
(PID.TID 0000.0001) 
(PID.TID 0000.0001) GAD_INIT_FIXED: GAD_OlMinSize=  1  0  1
(PID.TID 0000.0001) 
(PID.TID 0000.0001) // ===================================
(PID.TID 0000.0001) // GAD parameters :
(PID.TID 0000.0001) // ===================================
(PID.TID 0000.0001) tempAdvScheme =   /* Temp. Horiz.Advection scheme selector */
(PID.TID 0000.0001)                       2
(PID.TID 0000.0001)     ;
(PID.TID 0000.0001) tempVertAdvScheme =   /* Temp. Vert. Advection scheme selector */
(PID.TID 0000.0001)                       2
(PID.TID 0000.0001)     ;
(PID.TID 0000.0001) tempMultiDimAdvec =   /* use Muti-Dim Advec method for Temp */
(PID.TID 0000.0001)                   F
(PID.TID 0000.0001)     ;
(PID.TID 0000.0001) tempSOM_Advection = /* use 2nd Order Moment Advection for Temp */
(PID.TID 0000.0001)                   F
(PID.TID 0000.0001)     ;
(PID.TID 0000.0001) AdamsBashforthGt = /* apply Adams-Bashforth extrapolation on Gt */
(PID.TID 0000.0001)                   T
(PID.TID 0000.0001)     ;
(PID.TID 0000.0001) AdamsBashforth_T = /* apply Adams-Bashforth extrapolation on Temp */
(PID.TID 0000.0001)                   F
(PID.TID 0000.0001)     ;
(PID.TID 0000.0001) saltAdvScheme =   /* Salt. Horiz.advection scheme selector */
(PID.TID 0000.0001)                       2
(PID.TID 0000.0001)     ;
(PID.TID 0000.0001) saltVertAdvScheme =   /* Salt. Vert. Advection scheme selector */
(PID.TID 0000.0001)                       2
(PID.TID 0000.0001)     ;
(PID.TID 0000.0001) saltMultiDimAdvec =   /* use Muti-Dim Advec method for Salt */
(PID.TID 0000.0001)                   F
(PID.TID 0000.0001)     ;
(PID.TID 0000.0001) saltSOM_Advection = /* use 2nd Order Moment Advection for Salt */
(PID.TID 0000.0001)                   F
(PID.TID 0000.0001)     ;
(PID.TID 0000.0001) AdamsBashforthGs = /* apply Adams-Bashforth extrapolation on Gs */
(PID.TID 0000.0001)                   T
(PID.TID 0000.0001)     ;
(PID.TID 0000.0001) AdamsBashforth_S = /* apply Adams-Bashforth extrapolation on Salt */
(PID.TID 0000.0001)                   F
(PID.TID 0000.0001)     ;
(PID.TID 0000.0001) // ===================================
(PID.TID 0000.0001) %MON fCori_max                    =  -1.3709057042516E-04
(PID.TID 0000.0001) %MON fCori_min                    =  -1.4360464034757E-04
(PID.TID 0000.0001) %MON fCori_mean                   =  -1.4069429304699E-04
(PID.TID 0000.0001) %MON fCori_sd                     =   1.9069739624987E-06
(PID.TID 0000.0001) %MON fCoriG_max                   =  -1.3713394327439E-04
(PID.TID 0000.0001) %MON fCoriG_min                   =  -1.4362679550910E-04
(PID.TID 0000.0001) %MON fCoriG_mean                  =  -1.4072713798624E-04
(PID.TID 0000.0001) %MON fCoriG_sd                    =   1.9008093726821E-06
(PID.TID 0000.0001) %MON fCoriCos_max                 =   4.9761447480159E-05
(PID.TID 0000.0001) %MON fCoriCos_min                 =   2.5450607565678E-05
(PID.TID 0000.0001) %MON fCoriCos_mean                =   3.7698922201606E-05
(PID.TID 0000.0001) %MON fCoriCos_sd                  =   7.0920218535054E-06
(PID.TID 0000.0001) INI_CG2D: CG2D normalisation factor =  1.0404366262810520E-03
(PID.TID 0000.0001) 
(PID.TID 0000.0001) // =======================================================
(PID.TID 0000.0001) // Model configuration
(PID.TID 0000.0001) // =======================================================
(PID.TID 0000.0001) //
(PID.TID 0000.0001) // "Physical" paramters ( PARM01 in namelist )
(PID.TID 0000.0001) //
(PID.TID 0000.0001) buoyancyRelation = /* Type of relation to get Buoyancy */
(PID.TID 0000.0001)               'OCEANIC'
(PID.TID 0000.0001)     ;
(PID.TID 0000.0001) fluidIsAir   =  /* fluid major constituent is Air */
(PID.TID 0000.0001)                   F
(PID.TID 0000.0001)     ;
(PID.TID 0000.0001) fluidIsWater =  /* fluid major constituent is Water */
(PID.TID 0000.0001)                   T
(PID.TID 0000.0001)     ;
(PID.TID 0000.0001) usingPCoords =  /* use p (or p*) vertical coordinate */
(PID.TID 0000.0001)                   F
(PID.TID 0000.0001)     ;
(PID.TID 0000.0001) usingZCoords =  /* use z (or z*) vertical coordinate */
(PID.TID 0000.0001)                   T
(PID.TID 0000.0001)     ;
(PID.TID 0000.0001) tRef =   /* Reference temperature profile ( oC or K ) */
(PID.TID 0000.0001)    30 @ -1.900000000000000E+00              /* K =  1: 30 */
(PID.TID 0000.0001)     ;
(PID.TID 0000.0001) sRef =   /* Reference salinity profile ( psu ) */
(PID.TID 0000.0001)    30 @  3.440000000000000E+01              /* K =  1: 30 */
(PID.TID 0000.0001)     ;
(PID.TID 0000.0001) viscAh  =   /* Lateral eddy viscosity ( m^2/s ) */
(PID.TID 0000.0001)                 6.000000000000000E+02
(PID.TID 0000.0001)     ;
(PID.TID 0000.0001) viscAhMax = /* Maximum lateral eddy viscosity ( m^2/s ) */
(PID.TID 0000.0001)                 1.000000000000000E+21
(PID.TID 0000.0001)     ;
(PID.TID 0000.0001) viscAhGrid = /* Grid dependent lateral eddy viscosity ( non-dim. ) */
(PID.TID 0000.0001)                 0.000000000000000E+00
(PID.TID 0000.0001)     ;
(PID.TID 0000.0001) useFullLeith = /* Use Full Form of Leith Viscosity on/off flag*/
(PID.TID 0000.0001)                   F
(PID.TID 0000.0001)     ;
(PID.TID 0000.0001) useStrainTensionVisc= /* Use StrainTension Form of Viscous Operator flag*/
(PID.TID 0000.0001)                   F
(PID.TID 0000.0001)     ;
(PID.TID 0000.0001) useAreaViscLength = /* Use area for visc length instead of geom. mean*/
(PID.TID 0000.0001)                   F
(PID.TID 0000.0001)     ;
(PID.TID 0000.0001) viscC2leith = /* Leith harmonic visc. factor (on grad(vort),non-dim.) */
(PID.TID 0000.0001)                 0.000000000000000E+00
(PID.TID 0000.0001)     ;
(PID.TID 0000.0001) viscC2leithD = /* Leith harmonic viscosity factor (on grad(div),non-dim.)*/
(PID.TID 0000.0001)                 0.000000000000000E+00
(PID.TID 0000.0001)     ;
(PID.TID 0000.0001) viscC2smag = /* Smagorinsky harmonic viscosity factor (non-dim.) */
(PID.TID 0000.0001)                 0.000000000000000E+00
(PID.TID 0000.0001)     ;
(PID.TID 0000.0001) viscA4  =   /* Lateral biharmonic viscosity ( m^4/s ) */
(PID.TID 0000.0001)                 0.000000000000000E+00
(PID.TID 0000.0001)     ;
(PID.TID 0000.0001) viscA4Max = /* Maximum biharmonic viscosity ( m^2/s ) */
(PID.TID 0000.0001)                 1.000000000000000E+21
(PID.TID 0000.0001)     ;
(PID.TID 0000.0001) viscA4Grid = /* Grid dependent biharmonic viscosity ( non-dim. ) */
(PID.TID 0000.0001)                 0.000000000000000E+00
(PID.TID 0000.0001)     ;
(PID.TID 0000.0001) viscC4leith = /* Leith biharm viscosity factor (on grad(vort), non-dim.)*/
(PID.TID 0000.0001)                 0.000000000000000E+00
(PID.TID 0000.0001)     ;
(PID.TID 0000.0001) viscC4leithD = /* Leith biharm viscosity factor (on grad(div), non-dim.) */
(PID.TID 0000.0001)                 0.000000000000000E+00
(PID.TID 0000.0001)     ;
(PID.TID 0000.0001) viscC4Smag = /* Smagorinsky biharm viscosity factor (non-dim) */
(PID.TID 0000.0001)                 0.000000000000000E+00
(PID.TID 0000.0001)     ;
(PID.TID 0000.0001) no_slip_sides =  /* Viscous BCs: No-slip sides */
(PID.TID 0000.0001)                   F
(PID.TID 0000.0001)     ;
(PID.TID 0000.0001) sideDragFactor = /* side-drag scaling factor (non-dim) */
(PID.TID 0000.0001)                 2.000000000000000E+00
(PID.TID 0000.0001)     ;
(PID.TID 0000.0001) viscArNr = /* vertical profile of vertical viscosity ( m^2/s )*/
(PID.TID 0000.0001)    30 @  1.000000000000000E-03              /* K =  1: 30 */
(PID.TID 0000.0001)     ;
(PID.TID 0000.0001) no_slip_bottom =  /* Viscous BCs: No-slip bottom */
(PID.TID 0000.0001)                   F
(PID.TID 0000.0001)     ;
(PID.TID 0000.0001) bottomDragLinear = /* linear bottom-drag coefficient ( m/s ) */
(PID.TID 0000.0001)                 0.000000000000000E+00
(PID.TID 0000.0001)     ;
(PID.TID 0000.0001) bottomDragQuadratic = /* quadratic bottom-drag coefficient (-) */
(PID.TID 0000.0001)                 2.500000000000000E-03
(PID.TID 0000.0001)     ;
(PID.TID 0000.0001) diffKhT =   /* Laplacian diffusion of heat laterally ( m^2/s ) */
(PID.TID 0000.0001)                 1.000000000000000E+02
(PID.TID 0000.0001)     ;
(PID.TID 0000.0001) diffK4T =   /* Biharmonic diffusion of heat laterally ( m^4/s ) */
(PID.TID 0000.0001)                 0.000000000000000E+00
(PID.TID 0000.0001)     ;
(PID.TID 0000.0001) diffKhS =   /* Laplacian diffusion of salt laterally ( m^2/s ) */
(PID.TID 0000.0001)                 1.000000000000000E+02
(PID.TID 0000.0001)     ;
(PID.TID 0000.0001) diffK4S =   /* Biharmonic diffusion of salt laterally ( m^4/s ) */
(PID.TID 0000.0001)                 0.000000000000000E+00
(PID.TID 0000.0001)     ;
(PID.TID 0000.0001) diffKrNrT = /* vertical profile of vertical diffusion of Temp ( m^2/s )*/
(PID.TID 0000.0001)    30 @  5.000000000000000E-05              /* K =  1: 30 */
(PID.TID 0000.0001)     ;
(PID.TID 0000.0001) diffKrNrS = /* vertical profile of vertical diffusion of Salt ( m^2/s )*/
(PID.TID 0000.0001)    30 @  5.000000000000000E-05              /* K =  1: 30 */
(PID.TID 0000.0001)     ;
(PID.TID 0000.0001) diffKrBL79surf = /* Surface diffusion for Bryan and Lewis 79 ( m^2/s ) */
(PID.TID 0000.0001)                 0.000000000000000E+00
(PID.TID 0000.0001)     ;
(PID.TID 0000.0001) diffKrBL79deep = /* Deep diffusion for Bryan and Lewis 1979 ( m^2/s ) */
(PID.TID 0000.0001)                 0.000000000000000E+00
(PID.TID 0000.0001)     ;
(PID.TID 0000.0001) diffKrBL79scl = /* Depth scale for Bryan and Lewis 1979 ( m ) */
(PID.TID 0000.0001)                 2.000000000000000E+02
(PID.TID 0000.0001)     ;
(PID.TID 0000.0001) diffKrBL79Ho = /* Turning depth for Bryan and Lewis 1979 ( m ) */
(PID.TID 0000.0001)                -2.000000000000000E+03
(PID.TID 0000.0001)     ;
(PID.TID 0000.0001) ivdc_kappa = /* Implicit Vertical Diffusivity for Convection ( m^2/s) */
(PID.TID 0000.0001)                 0.000000000000000E+00
(PID.TID 0000.0001)     ;
(PID.TID 0000.0001) hMixCriteria=  /* Criteria for mixed-layer diagnostic */
(PID.TID 0000.0001)                -8.000000000000000E-01
(PID.TID 0000.0001)     ;
(PID.TID 0000.0001) dRhoSmall =  /* Parameter for mixed-layer diagnostic */
(PID.TID 0000.0001)                 1.000000000000000E-06
(PID.TID 0000.0001)     ;
(PID.TID 0000.0001) hMixSmooth=  /* Smoothing parameter for mixed-layer diagnostic */
(PID.TID 0000.0001)                 0.000000000000000E+00
(PID.TID 0000.0001)     ;
(PID.TID 0000.0001) eosType =  /* Type of Equation of State */
(PID.TID 0000.0001)               'JMD95Z'
(PID.TID 0000.0001)     ;
(PID.TID 0000.0001) tAlpha =   /* Linear EOS thermal expansion coefficient ( 1/oC ) */
(PID.TID 0000.0001)                 1.234567000000000E+05
(PID.TID 0000.0001)     ;
(PID.TID 0000.0001) sBeta =   /* Linear EOS haline contraction coefficient ( 1/psu ) */
(PID.TID 0000.0001)                 1.234567000000000E+05
(PID.TID 0000.0001)     ;
(PID.TID 0000.0001) rhonil =   /* Reference density ( kg/m^3 ) */
(PID.TID 0000.0001)                 1.030000000000000E+03
(PID.TID 0000.0001)     ;
(PID.TID 0000.0001) rhoConst =   /* Reference density ( kg/m^3 ) */
(PID.TID 0000.0001)                 1.030000000000000E+03
(PID.TID 0000.0001)     ;
(PID.TID 0000.0001) rhoFacC = /* normalized Reference density @ cell-Center (-) */
(PID.TID 0000.0001)    30 @  1.000000000000000E+00              /* K =  1: 30 */
(PID.TID 0000.0001)     ;
(PID.TID 0000.0001) rhoFacF = /* normalized Reference density @ W-Interface (-) */
(PID.TID 0000.0001)    31 @  1.000000000000000E+00              /* K =  1: 31 */
(PID.TID 0000.0001)     ;
(PID.TID 0000.0001) rhoConstFresh =   /* Reference density ( kg/m^3 ) */
(PID.TID 0000.0001)                 1.030000000000000E+03
(PID.TID 0000.0001)     ;
(PID.TID 0000.0001) gravity =   /* Gravitational acceleration ( m/s^2 ) */
(PID.TID 0000.0001)                 9.810000000000000E+00
(PID.TID 0000.0001)     ;
(PID.TID 0000.0001) gBaro =   /* Barotropic gravity ( m/s^2 ) */
(PID.TID 0000.0001)                 9.810000000000000E+00
(PID.TID 0000.0001)     ;
(PID.TID 0000.0001) rotationPeriod =   /* Rotation Period ( s ) */
(PID.TID 0000.0001)                 8.616400000000000E+04
(PID.TID 0000.0001)     ;
(PID.TID 0000.0001) omega =   /* Angular velocity ( rad/s ) */
(PID.TID 0000.0001)                 7.292123516990375E-05
(PID.TID 0000.0001)     ;
(PID.TID 0000.0001) f0 =   /* Reference coriolis parameter ( 1/s ) */
(PID.TID 0000.0001)                 1.000000000000000E-04
(PID.TID 0000.0001)     ;
(PID.TID 0000.0001) beta =   /* Beta ( 1/(m.s) ) */
(PID.TID 0000.0001)                 9.999999999999999E-12
(PID.TID 0000.0001)     ;
(PID.TID 0000.0001) fPrime =   /* Second coriolis parameter ( 1/s ) */
(PID.TID 0000.0001)                 0.000000000000000E+00
(PID.TID 0000.0001)     ;
(PID.TID 0000.0001) rigidLid =   /* Rigid lid on/off flag */
(PID.TID 0000.0001)                   F
(PID.TID 0000.0001)     ;
(PID.TID 0000.0001) implicitFreeSurface =   /* Implicit free surface on/off flag */
(PID.TID 0000.0001)                   T
(PID.TID 0000.0001)     ;
(PID.TID 0000.0001) freeSurfFac =   /* Implicit free surface factor */
(PID.TID 0000.0001)                 1.000000000000000E+00
(PID.TID 0000.0001)     ;
(PID.TID 0000.0001) implicSurfPress =  /* Surface Pressure implicit factor (0-1)*/
(PID.TID 0000.0001)                 1.000000000000000E+00
(PID.TID 0000.0001)     ;
(PID.TID 0000.0001) implicDiv2Dflow =  /* Barot. Flow Div. implicit factor (0-1)*/
(PID.TID 0000.0001)                 1.000000000000000E+00
(PID.TID 0000.0001)     ;
(PID.TID 0000.0001) exactConserv =  /* Exact Volume Conservation on/off flag*/
(PID.TID 0000.0001)                   T
(PID.TID 0000.0001)     ;
(PID.TID 0000.0001) linFSConserveTr = /* Tracer correction for Lin Free Surface on/off flag*/
(PID.TID 0000.0001)                   F
(PID.TID 0000.0001)     ;
(PID.TID 0000.0001) uniformLin_PhiSurf = /* use uniform Bo_surf on/off flag*/
(PID.TID 0000.0001)                   T
(PID.TID 0000.0001)     ;
(PID.TID 0000.0001) hFacMin =   /* minimum partial cell factor (hFac) */
(PID.TID 0000.0001)                 5.000000000000000E-02
(PID.TID 0000.0001)     ;
(PID.TID 0000.0001) hFacMinDr = /* minimum partial cell thickness ( m) */
(PID.TID 0000.0001)                 5.000000000000000E-02
(PID.TID 0000.0001)     ;
(PID.TID 0000.0001) nonlinFreeSurf = /* Non-linear Free Surf. options (-1,0,1,2,3)*/
(PID.TID 0000.0001)                       0
(PID.TID 0000.0001)      -1,0= Off ; 1,2,3= On, 2=+rescale gU,gV, 3=+update cg2d solv.
(PID.TID 0000.0001)     ;
(PID.TID 0000.0001) hFacInf =   /* lower threshold for hFac (nonlinFreeSurf only)*/
(PID.TID 0000.0001)                 2.000000000000000E-01
(PID.TID 0000.0001)     ;
(PID.TID 0000.0001) hFacSup =   /* upper threshold for hFac (nonlinFreeSurf only)*/
(PID.TID 0000.0001)                 2.000000000000000E+00
(PID.TID 0000.0001)     ;
(PID.TID 0000.0001) select_rStar = /* r* Vertical coord. options (=0 r coord.; >0 uses r*)*/
(PID.TID 0000.0001)                       0
(PID.TID 0000.0001)     ;
(PID.TID 0000.0001) selectAddFluid = /* option for mass source/sink of fluid (=0: off) */
(PID.TID 0000.0001)                       0
(PID.TID 0000.0001)     ;
(PID.TID 0000.0001) useRealFreshWaterFlux = /* Real Fresh Water Flux on/off flag*/
(PID.TID 0000.0001)                   F
(PID.TID 0000.0001)     ;
(PID.TID 0000.0001) temp_EvPrRn = /* Temp. of Evap/Prec/R (UNSET=use local T)(oC)*/
(PID.TID 0000.0001)                 1.234567000000000E+05
(PID.TID 0000.0001)     ;
(PID.TID 0000.0001) salt_EvPrRn = /* Salin. of Evap/Prec/R (UNSET=use local S)(psu)*/
(PID.TID 0000.0001)                 0.000000000000000E+00
(PID.TID 0000.0001)     ;
(PID.TID 0000.0001) temp_addMass = /* Temp. of addMass array (UNSET=use local T)(oC)*/
(PID.TID 0000.0001)                 1.234567000000000E+05
(PID.TID 0000.0001)     ;
(PID.TID 0000.0001) salt_addMass = /* Salin. of addMass array (UNSET=use local S)(psu)*/
(PID.TID 0000.0001)                 0.000000000000000E+00
(PID.TID 0000.0001)     ;
(PID.TID 0000.0001) convertFW2Salt = /* convert F.W. Flux to Salt Flux (-1=use local S)(psu)*/
(PID.TID 0000.0001)                 3.340000000000000E+01
(PID.TID 0000.0001)     ;
(PID.TID 0000.0001) use3Dsolver = /* use 3-D pressure solver on/off flag */
(PID.TID 0000.0001)                   F
(PID.TID 0000.0001)     ;
(PID.TID 0000.0001) nonHydrostatic =  /* Non-Hydrostatic on/off flag */
(PID.TID 0000.0001)                   F
(PID.TID 0000.0001)     ;
(PID.TID 0000.0001) nh_Am2 = /* Non-Hydrostatic terms scaling factor */
(PID.TID 0000.0001)                 1.000000000000000E+00
(PID.TID 0000.0001)     ;
(PID.TID 0000.0001) implicitNHPress = /* Non-Hyd Pressure implicit factor (0-1)*/
(PID.TID 0000.0001)                 1.000000000000000E+00
(PID.TID 0000.0001)     ;
(PID.TID 0000.0001) selectNHfreeSurf = /* Non-Hyd (free-)Surface option */
(PID.TID 0000.0001)                       0
(PID.TID 0000.0001)     ;
(PID.TID 0000.0001) quasiHydrostatic = /* Quasi-Hydrostatic on/off flag */
(PID.TID 0000.0001)                   F
(PID.TID 0000.0001)     ;
(PID.TID 0000.0001) momStepping =  /* Momentum equation on/off flag */
(PID.TID 0000.0001)                   T
(PID.TID 0000.0001)     ;
(PID.TID 0000.0001) vectorInvariantMomentum= /* Vector-Invariant Momentum on/off */
(PID.TID 0000.0001)                   F
(PID.TID 0000.0001)     ;
(PID.TID 0000.0001) momAdvection =  /* Momentum advection on/off flag */
(PID.TID 0000.0001)                   T
(PID.TID 0000.0001)     ;
(PID.TID 0000.0001) momViscosity =  /* Momentum viscosity on/off flag */
(PID.TID 0000.0001)                   T
(PID.TID 0000.0001)     ;
(PID.TID 0000.0001) momImplVertAdv= /* Momentum implicit vert. advection on/off*/
(PID.TID 0000.0001)                   F
(PID.TID 0000.0001)     ;
(PID.TID 0000.0001) implicitViscosity = /* Implicit viscosity on/off flag */
(PID.TID 0000.0001)                   F
(PID.TID 0000.0001)     ;
(PID.TID 0000.0001) metricTerms =  /* metric-Terms on/off flag */
(PID.TID 0000.0001)                   T
(PID.TID 0000.0001)     ;
(PID.TID 0000.0001) useNHMTerms = /* Non-Hydrostatic Metric-Terms on/off */
(PID.TID 0000.0001)                   F
(PID.TID 0000.0001)     ;
(PID.TID 0000.0001) selectCoriMap = /* Coriolis Map options (0,1,2,3)*/
(PID.TID 0000.0001)                       2
(PID.TID 0000.0001)     0= f-Plane ; 1= Beta-Plane ; 2= Spherical ; 3= read from file
(PID.TID 0000.0001)     ;
(PID.TID 0000.0001) use3dCoriolis = /* 3-D Coriolis on/off flag */
(PID.TID 0000.0001)                   F
(PID.TID 0000.0001)     ;
(PID.TID 0000.0001) useCoriolis =  /* Coriolis on/off flag */
(PID.TID 0000.0001)                   T
(PID.TID 0000.0001)     ;
(PID.TID 0000.0001) useCDscheme =  /* CD scheme on/off flag */
(PID.TID 0000.0001)                   T
(PID.TID 0000.0001)     ;
(PID.TID 0000.0001) useEnergyConservingCoriolis= /* Flx-Form Coriolis scheme flag */
(PID.TID 0000.0001)                   F
(PID.TID 0000.0001)     ;
(PID.TID 0000.0001) useJamartWetPoints= /* Coriolis WetPoints method flag */
(PID.TID 0000.0001)                   F
(PID.TID 0000.0001)     ;
(PID.TID 0000.0001) useJamartMomAdv= /* V.I Non-linear terms Jamart flag */
(PID.TID 0000.0001)                   F
(PID.TID 0000.0001)     ;
(PID.TID 0000.0001) useAbsVorticity= /* V.I Works with f+zeta in Coriolis */
(PID.TID 0000.0001)                   F
(PID.TID 0000.0001)     ;
(PID.TID 0000.0001) selectVortScheme= /* V.I Scheme selector for Vorticity-Term */
(PID.TID 0000.0001)               123456789
(PID.TID 0000.0001)    = 0 : enstrophy (Shallow-Water Eq.) conserving scheme by Sadourny, JAS 75
(PID.TID 0000.0001)    = 1 : same as 0 with modified hFac
(PID.TID 0000.0001)    = 2 : energy conserving scheme (used by Sadourny in JAS 75 paper)
(PID.TID 0000.0001)    = 3 : energy (general) and enstrophy (2D, nonDiv.) conserving scheme
(PID.TID 0000.0001)          from Sadourny (Burridge & Haseler, ECMWF Rep.4, 1977)
(PID.TID 0000.0001)     ;
(PID.TID 0000.0001) upwindVorticity= /* V.I Upwind bias vorticity flag */
(PID.TID 0000.0001)                   F
(PID.TID 0000.0001)     ;
(PID.TID 0000.0001) highOrderVorticity= /* V.I High order vort. advect. flag */
(PID.TID 0000.0001)                   F
(PID.TID 0000.0001)     ;
(PID.TID 0000.0001) upwindShear= /* V.I Upwind vertical Shear advection flag */
(PID.TID 0000.0001)                   F
(PID.TID 0000.0001)     ;
(PID.TID 0000.0001) selectKEscheme= /* V.I Kinetic Energy scheme selector */
(PID.TID 0000.0001)                       0
(PID.TID 0000.0001)     ;
(PID.TID 0000.0001) momForcing =  /* Momentum forcing on/off flag */
(PID.TID 0000.0001)                   T
(PID.TID 0000.0001)     ;
(PID.TID 0000.0001) momPressureForcing =  /* Momentum pressure term on/off flag */
(PID.TID 0000.0001)                   T
(PID.TID 0000.0001)     ;
(PID.TID 0000.0001) implicitIntGravWave= /* Implicit Internal Gravity Wave flag */
(PID.TID 0000.0001)                   F
(PID.TID 0000.0001)     ;
(PID.TID 0000.0001) staggerTimeStep =   /* Stagger time stepping on/off flag */
(PID.TID 0000.0001)                   F
(PID.TID 0000.0001)     ;
(PID.TID 0000.0001) multiDimAdvection =   /* enable/disable Multi-Dim Advection */
(PID.TID 0000.0001)                   T
(PID.TID 0000.0001)     ;
(PID.TID 0000.0001) useMultiDimAdvec =   /* Multi-Dim Advection is/is-not used */
(PID.TID 0000.0001)                   F
(PID.TID 0000.0001)     ;
(PID.TID 0000.0001) implicitDiffusion = /* Implicit Diffusion on/off flag */
(PID.TID 0000.0001)                   F
(PID.TID 0000.0001)     ;
(PID.TID 0000.0001) tempStepping =  /* Temperature equation on/off flag */
(PID.TID 0000.0001)                   T
(PID.TID 0000.0001)     ;
(PID.TID 0000.0001) tempAdvection=  /* Temperature advection on/off flag */
(PID.TID 0000.0001)                   T
(PID.TID 0000.0001)     ;
(PID.TID 0000.0001) tempImplVertAdv = /* Temp. implicit vert. advection on/off */
(PID.TID 0000.0001)                   F
(PID.TID 0000.0001)     ;
(PID.TID 0000.0001) tempForcing  =  /* Temperature forcing on/off flag */
(PID.TID 0000.0001)                   T
(PID.TID 0000.0001)     ;
(PID.TID 0000.0001) tempIsActiveTr = /* Temp. is a dynamically Active Tracer */
(PID.TID 0000.0001)                   T
(PID.TID 0000.0001)     ;
(PID.TID 0000.0001) saltStepping =  /* Salinity equation on/off flag */
(PID.TID 0000.0001)                   T
(PID.TID 0000.0001)     ;
(PID.TID 0000.0001) saltAdvection=  /* Salinity advection on/off flag */
(PID.TID 0000.0001)                   T
(PID.TID 0000.0001)     ;
(PID.TID 0000.0001) saltImplVertAdv = /* Sali. implicit vert. advection on/off */
(PID.TID 0000.0001)                   F
(PID.TID 0000.0001)     ;
(PID.TID 0000.0001) saltForcing  =  /* Salinity forcing on/off flag */
(PID.TID 0000.0001)                   T
(PID.TID 0000.0001)     ;
(PID.TID 0000.0001) saltIsActiveTr = /* Salt  is a dynamically Active Tracer */
(PID.TID 0000.0001)                   T
(PID.TID 0000.0001)     ;
(PID.TID 0000.0001)  readBinaryPrec = /* Precision used for reading binary files */
(PID.TID 0000.0001)                      64
(PID.TID 0000.0001)     ;
(PID.TID 0000.0001) writeBinaryPrec = /* Precision used for writing binary files */
(PID.TID 0000.0001)                      32
(PID.TID 0000.0001)     ;
(PID.TID 0000.0001)  globalFiles = /* write "global" (=not per tile) files */
(PID.TID 0000.0001)                   F
(PID.TID 0000.0001)     ;
(PID.TID 0000.0001)  useSingleCpuIO = /* only master MPI process does I/O */
(PID.TID 0000.0001)                   F
(PID.TID 0000.0001)     ;
(PID.TID 0000.0001) /* debLev[*]  : level of debug & auxiliary message printing */
(PID.TID 0000.0001) debLevZero =  0 ; /* level of disabled aux. msg printing */
(PID.TID 0000.0001)    debLevA =  1 ; /* level of minimum  aux. msg printing */
(PID.TID 0000.0001)    debLevB =  2 ; /* level of low aux. print (report read-file opening)*/
(PID.TID 0000.0001)    debLevC =  3 ; /* level of moderate debug prt (most pkgs debug msg) */
(PID.TID 0000.0001)    debLevD =  4 ; /* level of enhanced debug prt (add DEBUG_STATS prt) */
(PID.TID 0000.0001)    debLevE =  5 ; /* level of extensive debug printing */
(PID.TID 0000.0001) debugLevel =  /* select debug printing level */
(PID.TID 0000.0001)                       2
(PID.TID 0000.0001)     ;
(PID.TID 0000.0001) //
(PID.TID 0000.0001) // Elliptic solver(s) paramters ( PARM02 in namelist )
(PID.TID 0000.0001) //
(PID.TID 0000.0001) cg2dMaxIters =   /* Upper limit on 2d con. grad iterations  */
(PID.TID 0000.0001)                    1000
(PID.TID 0000.0001)     ;
(PID.TID 0000.0001) cg2dChkResFreq =   /* 2d con. grad convergence test frequency */
(PID.TID 0000.0001)                       1
(PID.TID 0000.0001)     ;
(PID.TID 0000.0001) cg2dTargetResidual =   /* 2d con. grad target residual  */
(PID.TID 0000.0001)                 1.000000000000000E-13
(PID.TID 0000.0001)     ;
(PID.TID 0000.0001) cg2dTargetResWunit =   /* CG2d target residual [W units] */
(PID.TID 0000.0001)                -1.000000000000000E+00
(PID.TID 0000.0001)     ;
(PID.TID 0000.0001) cg2dPreCondFreq =   /* Freq. for updating cg2d preconditioner */
(PID.TID 0000.0001)                       1
(PID.TID 0000.0001)     ;
(PID.TID 0000.0001) useSRCGSolver =  /* use single reduction CG solver(s) */
(PID.TID 0000.0001)                   F
(PID.TID 0000.0001)     ;
(PID.TID 0000.0001) printResidualFreq = /* Freq. for printing CG residual */
(PID.TID 0000.0001)                       0
(PID.TID 0000.0001)     ;
(PID.TID 0000.0001) //
(PID.TID 0000.0001) // Time stepping paramters ( PARM03 in namelist )
(PID.TID 0000.0001) //
(PID.TID 0000.0001) deltaTmom =   /* Momentum equation timestep ( s ) */
(PID.TID 0000.0001)                 1.800000000000000E+03
(PID.TID 0000.0001)     ;
(PID.TID 0000.0001) deltaTfreesurf = /* FreeSurface equation timestep ( s ) */
(PID.TID 0000.0001)                 1.800000000000000E+03
(PID.TID 0000.0001)     ;
(PID.TID 0000.0001) dTtracerLev =  /* Tracer equation timestep ( s ) */
(PID.TID 0000.0001)    30 @  1.800000000000000E+03              /* K =  1: 30 */
(PID.TID 0000.0001)     ;
(PID.TID 0000.0001) deltaTClock  =   /* Model clock timestep ( s ) */
(PID.TID 0000.0001)                 1.800000000000000E+03
(PID.TID 0000.0001)     ;
(PID.TID 0000.0001) cAdjFreq =   /* Convective adjustment interval ( s ) */
(PID.TID 0000.0001)                 1.800000000000000E+03
(PID.TID 0000.0001)     ;
(PID.TID 0000.0001) momForcingOutAB = /* =1: take Momentum Forcing out of Adams-Bash. stepping */
(PID.TID 0000.0001)                       0
(PID.TID 0000.0001)     ;
(PID.TID 0000.0001) tracForcingOutAB = /* =1: take T,S,pTr Forcing out of Adams-Bash. stepping */
(PID.TID 0000.0001)                       0
(PID.TID 0000.0001)     ;
(PID.TID 0000.0001) momDissip_In_AB = /* put Dissipation Tendency in Adams-Bash. stepping */
(PID.TID 0000.0001)                   T
(PID.TID 0000.0001)     ;
(PID.TID 0000.0001) doAB_onGtGs = /* apply AB on Tendencies (rather than on T,S)*/
(PID.TID 0000.0001)                   T
(PID.TID 0000.0001)     ;
(PID.TID 0000.0001) abEps =   /* Adams-Bashforth-2 stabilizing weight */
(PID.TID 0000.0001)                 1.000000000000000E-01
(PID.TID 0000.0001)     ;
(PID.TID 0000.0001) tauCD =   /* CD coupling time-scale ( s ) */
(PID.TID 0000.0001)                 4.000000000000000E+05
(PID.TID 0000.0001)     ;
(PID.TID 0000.0001) rCD =   /* Normalised CD coupling parameter */
(PID.TID 0000.0001)                 9.955000000000001E-01
(PID.TID 0000.0001)     ;
(PID.TID 0000.0001) epsAB_CD = /* AB-2 stabilizing weight for CD-scheme*/
(PID.TID 0000.0001)                 1.000000000000000E-01
(PID.TID 0000.0001)     ;
(PID.TID 0000.0001) pickupStrictlyMatch= /* stop if pickup do not strictly match */
(PID.TID 0000.0001)                   T
(PID.TID 0000.0001)     ;
(PID.TID 0000.0001) nIter0   =   /* Run starting timestep number */
(PID.TID 0000.0001)                       0
(PID.TID 0000.0001)     ;
(PID.TID 0000.0001) nTimeSteps = /* Number of timesteps */
(PID.TID 0000.0001)                      20
(PID.TID 0000.0001)     ;
(PID.TID 0000.0001) nEndIter =   /* Run ending timestep number */
(PID.TID 0000.0001)                      20
(PID.TID 0000.0001)     ;
(PID.TID 0000.0001) baseTime =   /* Model base time ( s ) */
(PID.TID 0000.0001)                 0.000000000000000E+00
(PID.TID 0000.0001)     ;
(PID.TID 0000.0001) startTime =  /* Run start time ( s ) */
(PID.TID 0000.0001)                 0.000000000000000E+00
(PID.TID 0000.0001)     ;
(PID.TID 0000.0001) endTime  =   /* Integration ending time ( s ) */
(PID.TID 0000.0001)                 3.600000000000000E+04
(PID.TID 0000.0001)     ;
(PID.TID 0000.0001) pChkPtFreq = /* Permanent restart/pickup file interval ( s ) */
(PID.TID 0000.0001)                 0.000000000000000E+00
(PID.TID 0000.0001)     ;
(PID.TID 0000.0001) chkPtFreq  = /* Rolling restart/pickup file interval ( s ) */
(PID.TID 0000.0001)                 0.000000000000000E+00
(PID.TID 0000.0001)     ;
(PID.TID 0000.0001) pickup_write_mdsio =   /* Model IO flag. */
(PID.TID 0000.0001)                   T
(PID.TID 0000.0001)     ;
(PID.TID 0000.0001) pickup_read_mdsio =   /* Model IO flag. */
(PID.TID 0000.0001)                   T
(PID.TID 0000.0001)     ;
(PID.TID 0000.0001) pickup_write_mnc =   /* Model IO flag. */
(PID.TID 0000.0001)                   F
(PID.TID 0000.0001)     ;
(PID.TID 0000.0001) pickup_read_mnc =   /* Model IO flag. */
(PID.TID 0000.0001)                   F
(PID.TID 0000.0001)     ;
(PID.TID 0000.0001) pickup_write_immed =   /* Model IO flag. */
(PID.TID 0000.0001)                   F
(PID.TID 0000.0001)     ;
(PID.TID 0000.0001) writePickupAtEnd =   /* Model IO flag. */
(PID.TID 0000.0001)                   T
(PID.TID 0000.0001)     ;
(PID.TID 0000.0001) dumpFreq =   /* Model state write out interval ( s ). */
(PID.TID 0000.0001)                 0.000000000000000E+00
(PID.TID 0000.0001)     ;
(PID.TID 0000.0001) dumpInitAndLast= /* write out Initial & Last iter. model state */
(PID.TID 0000.0001)                   T
(PID.TID 0000.0001)     ;
(PID.TID 0000.0001) snapshot_mdsio =   /* Model IO flag. */
(PID.TID 0000.0001)                   F
(PID.TID 0000.0001)     ;
(PID.TID 0000.0001) snapshot_mnc =   /* Model IO flag. */
(PID.TID 0000.0001)                   T
(PID.TID 0000.0001)     ;
(PID.TID 0000.0001) monitorFreq =   /* Monitor output interval ( s ). */
(PID.TID 0000.0001)                 1.000000000000000E+00
(PID.TID 0000.0001)     ;
(PID.TID 0000.0001) monitorSelect = /* select group of variables to monitor */
(PID.TID 0000.0001)                       2
(PID.TID 0000.0001)     ;
(PID.TID 0000.0001) monitor_stdio =   /* Model IO flag. */
(PID.TID 0000.0001)                   T
(PID.TID 0000.0001)     ;
(PID.TID 0000.0001) monitor_mnc =   /* Model IO flag. */
(PID.TID 0000.0001)                   F
(PID.TID 0000.0001)     ;
(PID.TID 0000.0001) externForcingPeriod =   /* forcing period (s) */
(PID.TID 0000.0001)                 0.000000000000000E+00
(PID.TID 0000.0001)     ;
(PID.TID 0000.0001) externForcingCycle =   /* period of the cyle (s). */
(PID.TID 0000.0001)                 0.000000000000000E+00
(PID.TID 0000.0001)     ;
(PID.TID 0000.0001) tauThetaClimRelax =   /* relaxation time scale (s) */
(PID.TID 0000.0001)                 0.000000000000000E+00
(PID.TID 0000.0001)     ;
(PID.TID 0000.0001) tauSaltClimRelax =   /* relaxation time scale (s) */
(PID.TID 0000.0001)                 0.000000000000000E+00
(PID.TID 0000.0001)     ;
(PID.TID 0000.0001) latBandClimRelax =   /* max. Lat. where relaxation */
(PID.TID 0000.0001)                 1.800000000000000E+02
(PID.TID 0000.0001)     ;
(PID.TID 0000.0001) //
(PID.TID 0000.0001) // Gridding paramters ( PARM04 in namelist )
(PID.TID 0000.0001) //
(PID.TID 0000.0001) usingCartesianGrid = /* Cartesian coordinates flag ( True/False ) */
(PID.TID 0000.0001)                   F
(PID.TID 0000.0001)     ;
(PID.TID 0000.0001) usingCylindricalGrid = /* Cylindrical coordinates flag ( True/False ) */
(PID.TID 0000.0001)                   F
(PID.TID 0000.0001)     ;
(PID.TID 0000.0001) usingSphericalPolarGrid = /* Spherical coordinates flag ( True/False ) */
(PID.TID 0000.0001)                   T
(PID.TID 0000.0001)     ;
(PID.TID 0000.0001) usingCurvilinearGrid = /* Curvilinear coordinates flag ( True/False ) */
(PID.TID 0000.0001)                   F
(PID.TID 0000.0001)     ;
(PID.TID 0000.0001) selectSigmaCoord = /* Hybrid-Sigma Vert. Coordinate option */
(PID.TID 0000.0001)                       0
(PID.TID 0000.0001)     ;
(PID.TID 0000.0001) Ro_SeaLevel = /* r(1) ( units of r ==  m ) */
(PID.TID 0000.0001)                 0.000000000000000E+00
(PID.TID 0000.0001)     ;
(PID.TID 0000.0001) rSigmaBnd = /* r/sigma transition ( units of r ==  m ) */
(PID.TID 0000.0001)                 1.234567000000000E+05
(PID.TID 0000.0001)     ;
(PID.TID 0000.0001) rkSign =   /* index orientation relative to vertical coordinate */
(PID.TID 0000.0001)                -1.000000000000000E+00
(PID.TID 0000.0001)     ;
(PID.TID 0000.0001) gravitySign = /* gravity orientation relative to vertical coordinate */
(PID.TID 0000.0001)                -1.000000000000000E+00
(PID.TID 0000.0001)     ;
(PID.TID 0000.0001) mass2rUnit = /* convert mass per unit area [kg/m2] to r-units [m] */
(PID.TID 0000.0001)                 9.708737864077669E-04
(PID.TID 0000.0001)     ;
(PID.TID 0000.0001) rUnit2mass = /* convert r-units [m] to mass per unit area [kg/m2] */
(PID.TID 0000.0001)                 1.030000000000000E+03
(PID.TID 0000.0001)     ;
(PID.TID 0000.0001) drC =   /* C spacing ( units of r ) */
(PID.TID 0000.0001)                 1.500000000000000E+01,      /* K =  1 */
(PID.TID 0000.0001)    29 @  3.000000000000000E+01              /* K =  2: 30 */
(PID.TID 0000.0001)     ;
(PID.TID 0000.0001) drF =   /* W spacing ( units of r ) */
(PID.TID 0000.0001)    30 @  3.000000000000000E+01              /* K =  1: 30 */
(PID.TID 0000.0001)     ;
(PID.TID 0000.0001) delX = /* U spacing ( m - cartesian, degrees - spherical ) */
(PID.TID 0000.0001)    50 @  3.000000000000000E-01              /* I =  1: 50 */
(PID.TID 0000.0001)     ;
(PID.TID 0000.0001) delY = /* V spacing ( m - cartesian, degrees - spherical ) */
(PID.TID 0000.0001)   100 @  1.000000000000000E-01              /* J =  1:100 */
(PID.TID 0000.0001)     ;
(PID.TID 0000.0001) xgOrigin = /* X-axis origin of West  edge (cartesian: m, lat-lon: deg.) */
(PID.TID 0000.0001)                 0.000000000000000E+00
(PID.TID 0000.0001)     ;
(PID.TID 0000.0001) ygOrigin = /* Y-axis origin of South edge (cartesian: m, lat-lon: deg.) */
(PID.TID 0000.0001)                -8.000000000000000E+01
(PID.TID 0000.0001)     ;
(PID.TID 0000.0001) rSphere =  /* Radius ( ignored - cartesian, m - spherical ) */
(PID.TID 0000.0001)                 6.370000000000000E+06
(PID.TID 0000.0001)     ;
(PID.TID 0000.0001) deepAtmosphere = /* Deep/Shallow Atmosphere flag (True/False) */
(PID.TID 0000.0001)                   F
(PID.TID 0000.0001)     ;
(PID.TID 0000.0001) xC =  /* xC(:,1,:,1) : P-point X coord ( deg. or m if cartesian) */
(PID.TID 0000.0001)                 1.500000000000001E-01,      /* I =  1 */
(PID.TID 0000.0001)                 4.500000000000001E-01,      /* I =  2 */
(PID.TID 0000.0001)                 7.500000000000002E-01,      /* I =  3 */
(PID.TID 0000.0001)                 1.050000000000000E+00,      /* I =  4 */
(PID.TID 0000.0001)                 1.350000000000000E+00,      /* I =  5 */
(PID.TID 0000.0001)                 1.650000000000000E+00,      /* I =  6 */
(PID.TID 0000.0001)                 1.950000000000000E+00,      /* I =  7 */
(PID.TID 0000.0001)                 2.250000000000000E+00,      /* I =  8 */
(PID.TID 0000.0001)                 2.550000000000000E+00,      /* I =  9 */
(PID.TID 0000.0001)                 2.850000000000000E+00,      /* I = 10 */
(PID.TID 0000.0001)                 3.149999999999999E+00,      /* I = 11 */
(PID.TID 0000.0001)                 3.449999999999999E+00,      /* I = 12 */
(PID.TID 0000.0001)                 3.749999999999999E+00,      /* I = 13 */
(PID.TID 0000.0001)                 4.049999999999999E+00,      /* I = 14 */
(PID.TID 0000.0001)                 4.350000000000000E+00,      /* I = 15 */
(PID.TID 0000.0001)                 4.649999999999999E+00,      /* I = 16 */
(PID.TID 0000.0001)                 4.949999999999999E+00,      /* I = 17 */
(PID.TID 0000.0001)                 5.249999999999998E+00,      /* I = 18 */
(PID.TID 0000.0001)                 5.549999999999999E+00,      /* I = 19 */
(PID.TID 0000.0001)                 5.849999999999998E+00,      /* I = 20 */
(PID.TID 0000.0001)                 6.149999999999999E+00,      /* I = 21 */
(PID.TID 0000.0001)                 6.449999999999998E+00,      /* I = 22 */
(PID.TID 0000.0001)                 6.749999999999998E+00,      /* I = 23 */
(PID.TID 0000.0001)                 7.049999999999997E+00,      /* I = 24 */
(PID.TID 0000.0001)                 7.349999999999997E+00,      /* I = 25 */
(PID.TID 0000.0001)                 7.649999999999997E+00,      /* I = 26 */
(PID.TID 0000.0001)                 7.949999999999998E+00,      /* I = 27 */
(PID.TID 0000.0001)                 8.249999999999998E+00,      /* I = 28 */
(PID.TID 0000.0001)                 8.549999999999999E+00,      /* I = 29 */
(PID.TID 0000.0001)                 8.850000000000000E+00,      /* I = 30 */
(PID.TID 0000.0001)                 9.150000000000000E+00,      /* I = 31 */
(PID.TID 0000.0001)                 9.450000000000001E+00,      /* I = 32 */
(PID.TID 0000.0001)                 9.750000000000002E+00,      /* I = 33 */
(PID.TID 0000.0001)                 1.005000000000000E+01,      /* I = 34 */
(PID.TID 0000.0001)                 1.035000000000000E+01,      /* I = 35 */
(PID.TID 0000.0001)                 1.065000000000000E+01,      /* I = 36 */
(PID.TID 0000.0001)                 1.095000000000001E+01,      /* I = 37 */
(PID.TID 0000.0001)                 1.125000000000001E+01,      /* I = 38 */
(PID.TID 0000.0001)                 1.155000000000000E+01,      /* I = 39 */
(PID.TID 0000.0001)                 1.185000000000001E+01,      /* I = 40 */
(PID.TID 0000.0001)                 1.215000000000001E+01,      /* I = 41 */
(PID.TID 0000.0001)                 1.245000000000001E+01,      /* I = 42 */
(PID.TID 0000.0001)                 1.275000000000001E+01,      /* I = 43 */
(PID.TID 0000.0001)                 1.305000000000001E+01,      /* I = 44 */
(PID.TID 0000.0001)                 1.335000000000001E+01,      /* I = 45 */
(PID.TID 0000.0001)                 1.365000000000001E+01,      /* I = 46 */
(PID.TID 0000.0001)                 1.395000000000001E+01,      /* I = 47 */
(PID.TID 0000.0001)                 1.425000000000001E+01,      /* I = 48 */
(PID.TID 0000.0001)                 1.455000000000001E+01,      /* I = 49 */
(PID.TID 0000.0001)                 1.485000000000001E+01       /* I = 50 */
(PID.TID 0000.0001)     ;
(PID.TID 0000.0001) yC =  /* yC(1,:,1,:) : P-point Y coord ( deg. or m if cartesian) */
(PID.TID 0000.0001)                -7.995000000000000E+01,      /* J =  1 */
(PID.TID 0000.0001)                -7.985000000000001E+01,      /* J =  2 */
(PID.TID 0000.0001)                -7.975000000000001E+01,      /* J =  3 */
(PID.TID 0000.0001)      . . .
(PID.TID 0000.0001)                -7.775000000000013E+01,      /* J = 23 */
(PID.TID 0000.0001)                -7.765000000000013E+01,      /* J = 24 */
(PID.TID 0000.0001)                -7.755000000000014E+01,      /* J = 25 */
(PID.TID 0000.0001)                -7.745000000000014E+01,      /* J = 26 */
(PID.TID 0000.0001)                -7.735000000000015E+01,      /* J = 27 */
(PID.TID 0000.0001)                -7.725000000000016E+01,      /* J = 28 */
(PID.TID 0000.0001)      . . .
(PID.TID 0000.0001)                -7.525000000000027E+01,      /* J = 48 */
(PID.TID 0000.0001)                -7.515000000000028E+01,      /* J = 49 */
(PID.TID 0000.0001)                -7.505000000000028E+01,      /* J = 50 */
(PID.TID 0000.0001)                -7.495000000000029E+01,      /* J = 51 */
(PID.TID 0000.0001)                -7.485000000000029E+01,      /* J = 52 */
(PID.TID 0000.0001)                -7.475000000000030E+01,      /* J = 53 */
(PID.TID 0000.0001)      . . .
(PID.TID 0000.0001)                -7.275000000000041E+01,      /* J = 73 */
(PID.TID 0000.0001)                -7.265000000000042E+01,      /* J = 74 */
(PID.TID 0000.0001)                -7.255000000000042E+01,      /* J = 75 */
(PID.TID 0000.0001)                -7.245000000000043E+01,      /* J = 76 */
(PID.TID 0000.0001)                -7.235000000000043E+01,      /* J = 77 */
(PID.TID 0000.0001)                -7.225000000000044E+01,      /* J = 78 */
(PID.TID 0000.0001)      . . .
(PID.TID 0000.0001)                -7.025000000000055E+01,      /* J = 98 */
(PID.TID 0000.0001)                -7.015000000000056E+01,      /* J = 99 */
(PID.TID 0000.0001)                -7.005000000000057E+01       /* J =100 */
(PID.TID 0000.0001)     ;
(PID.TID 0000.0001) rcoord = /* P-point R coordinate (  units of r ) */
(PID.TID 0000.0001)                -1.500000000000000E+01,      /* K =  1 */
(PID.TID 0000.0001)                -4.500000000000000E+01,      /* K =  2 */
(PID.TID 0000.0001)                -7.500000000000000E+01,      /* K =  3 */
(PID.TID 0000.0001)                -1.050000000000000E+02,      /* K =  4 */
(PID.TID 0000.0001)                -1.350000000000000E+02,      /* K =  5 */
(PID.TID 0000.0001)                -1.650000000000000E+02,      /* K =  6 */
(PID.TID 0000.0001)                -1.950000000000000E+02,      /* K =  7 */
(PID.TID 0000.0001)                -2.250000000000000E+02,      /* K =  8 */
(PID.TID 0000.0001)                -2.550000000000000E+02,      /* K =  9 */
(PID.TID 0000.0001)                -2.850000000000000E+02,      /* K = 10 */
(PID.TID 0000.0001)                -3.150000000000000E+02,      /* K = 11 */
(PID.TID 0000.0001)                -3.450000000000000E+02,      /* K = 12 */
(PID.TID 0000.0001)                -3.750000000000000E+02,      /* K = 13 */
(PID.TID 0000.0001)                -4.050000000000000E+02,      /* K = 14 */
(PID.TID 0000.0001)                -4.350000000000000E+02,      /* K = 15 */
(PID.TID 0000.0001)                -4.650000000000000E+02,      /* K = 16 */
(PID.TID 0000.0001)                -4.950000000000000E+02,      /* K = 17 */
(PID.TID 0000.0001)                -5.250000000000000E+02,      /* K = 18 */
(PID.TID 0000.0001)                -5.550000000000000E+02,      /* K = 19 */
(PID.TID 0000.0001)                -5.850000000000000E+02,      /* K = 20 */
(PID.TID 0000.0001)                -6.150000000000000E+02,      /* K = 21 */
(PID.TID 0000.0001)                -6.450000000000000E+02,      /* K = 22 */
(PID.TID 0000.0001)                -6.750000000000000E+02,      /* K = 23 */
(PID.TID 0000.0001)                -7.050000000000000E+02,      /* K = 24 */
(PID.TID 0000.0001)                -7.350000000000000E+02,      /* K = 25 */
(PID.TID 0000.0001)                -7.650000000000000E+02,      /* K = 26 */
(PID.TID 0000.0001)                -7.950000000000000E+02,      /* K = 27 */
(PID.TID 0000.0001)                -8.250000000000000E+02,      /* K = 28 */
(PID.TID 0000.0001)                -8.550000000000000E+02,      /* K = 29 */
(PID.TID 0000.0001)                -8.850000000000000E+02       /* K = 30 */
(PID.TID 0000.0001)     ;
(PID.TID 0000.0001) rF =   /* W-Interf. R coordinate (  units of r ) */
(PID.TID 0000.0001)                 0.000000000000000E+00,      /* K =  1 */
(PID.TID 0000.0001)                -3.000000000000000E+01,      /* K =  2 */
(PID.TID 0000.0001)                -6.000000000000000E+01,      /* K =  3 */
(PID.TID 0000.0001)                -9.000000000000000E+01,      /* K =  4 */
(PID.TID 0000.0001)                -1.200000000000000E+02,      /* K =  5 */
(PID.TID 0000.0001)                -1.500000000000000E+02,      /* K =  6 */
(PID.TID 0000.0001)                -1.800000000000000E+02,      /* K =  7 */
(PID.TID 0000.0001)                -2.100000000000000E+02,      /* K =  8 */
(PID.TID 0000.0001)                -2.400000000000000E+02,      /* K =  9 */
(PID.TID 0000.0001)                -2.700000000000000E+02,      /* K = 10 */
(PID.TID 0000.0001)                -3.000000000000000E+02,      /* K = 11 */
(PID.TID 0000.0001)                -3.300000000000000E+02,      /* K = 12 */
(PID.TID 0000.0001)                -3.600000000000000E+02,      /* K = 13 */
(PID.TID 0000.0001)                -3.900000000000000E+02,      /* K = 14 */
(PID.TID 0000.0001)                -4.200000000000000E+02,      /* K = 15 */
(PID.TID 0000.0001)                -4.500000000000000E+02,      /* K = 16 */
(PID.TID 0000.0001)                -4.800000000000000E+02,      /* K = 17 */
(PID.TID 0000.0001)                -5.100000000000000E+02,      /* K = 18 */
(PID.TID 0000.0001)                -5.400000000000000E+02,      /* K = 19 */
(PID.TID 0000.0001)                -5.700000000000000E+02,      /* K = 20 */
(PID.TID 0000.0001)                -6.000000000000000E+02,      /* K = 21 */
(PID.TID 0000.0001)                -6.300000000000000E+02,      /* K = 22 */
(PID.TID 0000.0001)                -6.600000000000000E+02,      /* K = 23 */
(PID.TID 0000.0001)                -6.900000000000000E+02,      /* K = 24 */
(PID.TID 0000.0001)                -7.200000000000000E+02,      /* K = 25 */
(PID.TID 0000.0001)                -7.500000000000000E+02,      /* K = 26 */
(PID.TID 0000.0001)                -7.800000000000000E+02,      /* K = 27 */
(PID.TID 0000.0001)                -8.100000000000000E+02,      /* K = 28 */
(PID.TID 0000.0001)                -8.400000000000000E+02,      /* K = 29 */
(PID.TID 0000.0001)                -8.700000000000000E+02,      /* K = 30 */
(PID.TID 0000.0001)                -9.000000000000000E+02       /* K = 31 */
(PID.TID 0000.0001)     ;
(PID.TID 0000.0001) deepFacC = /* deep-model grid factor @ cell-Center (-) */
(PID.TID 0000.0001)    30 @  1.000000000000000E+00              /* K =  1: 30 */
(PID.TID 0000.0001)     ;
(PID.TID 0000.0001) deepFacF = /* deep-model grid factor @ W-Interface (-) */
(PID.TID 0000.0001)    31 @  1.000000000000000E+00              /* K =  1: 31 */
(PID.TID 0000.0001)     ;
(PID.TID 0000.0001) rVel2wUnit = /* convert units: rVel -> wSpeed (=1 if z-coord)*/
(PID.TID 0000.0001)    31 @  1.000000000000000E+00              /* K =  1: 31 */
(PID.TID 0000.0001)     ;
(PID.TID 0000.0001) wUnit2rVel = /* convert units: wSpeed -> rVel (=1 if z-coord)*/
(PID.TID 0000.0001)    31 @  1.000000000000000E+00              /* K =  1: 31 */
(PID.TID 0000.0001)     ;
(PID.TID 0000.0001) dBdrRef = /* Vertical grad. of reference buoyancy [(m/s/r)^2] */
(PID.TID 0000.0001)    30 @  0.000000000000000E+00              /* K =  1: 30 */
(PID.TID 0000.0001)     ;
(PID.TID 0000.0001) rotateGrid = /* use rotated grid ( True/False ) */
(PID.TID 0000.0001)                   F
(PID.TID 0000.0001)     ;
(PID.TID 0000.0001) phiEuler = /* Euler angle, rotation about original z-coordinate [rad] */
(PID.TID 0000.0001)                 0.000000000000000E+00
(PID.TID 0000.0001)     ;
(PID.TID 0000.0001) thetaEuler = /* Euler angle, rotation about new x-coordinate [rad] */
(PID.TID 0000.0001)                 0.000000000000000E+00
(PID.TID 0000.0001)     ;
(PID.TID 0000.0001) psiEuler = /* Euler angle, rotation about new z-coordinate [rad] */
(PID.TID 0000.0001)                 0.000000000000000E+00
(PID.TID 0000.0001)     ;
(PID.TID 0000.0001) dxF =  /* dxF(:,1,:,1) ( units: m ) */
(PID.TID 0000.0001)    50 @  5.820391490558872E+03              /* I =  1: 50 */
(PID.TID 0000.0001)     ;
(PID.TID 0000.0001) dxF =  /* dxF(1,:,1,:) ( units: m ) */
(PID.TID 0000.0001)                 5.820391490558872E+03,      /* J =  1 */
(PID.TID 0000.0001)                 5.877701765291692E+03,      /* J =  2 */
(PID.TID 0000.0001)                 5.934994135525598E+03,      /* J =  3 */
(PID.TID 0000.0001)      . . .
(PID.TID 0000.0001)                 7.076813247621209E+03,      /* J = 23 */
(PID.TID 0000.0001)                 7.133689397375063E+03,      /* J = 24 */
(PID.TID 0000.0001)                 7.190543816673855E+03,      /* J = 25 */
(PID.TID 0000.0001)                 7.247376332329164E+03,      /* J = 26 */
(PID.TID 0000.0001)                 7.304186771219292E+03,      /* J = 27 */
(PID.TID 0000.0001)                 7.360974960289787E+03,      /* J = 28 */
(PID.TID 0000.0001)      . . .
(PID.TID 0000.0001)                 8.491800393599013E+03,      /* J = 48 */
(PID.TID 0000.0001)                 8.548081485571185E+03,      /* J = 49 */
(PID.TID 0000.0001)                 8.604336538604706E+03,      /* J = 50 */
(PID.TID 0000.0001)                 8.660565381336924E+03,      /* J = 51 */
(PID.TID 0000.0001)                 8.716767842485036E+03,      /* J = 52 */
(PID.TID 0000.0001)                 8.772943750846600E+03,      /* J = 53 */
(PID.TID 0000.0001)      . . .
(PID.TID 0000.0001)                 9.890622914885218E+03,      /* J = 73 */
(PID.TID 0000.0001)                 9.946201814818334E+03,      /* J = 74 */
(PID.TID 0000.0001)                 1.000175041689580E+04,      /* J = 75 */
(PID.TID 0000.0001)                 1.005726855190695E+04,      /* J = 76 */
(PID.TID 0000.0001)                 1.011275605073392E+04,      /* J = 77 */
(PID.TID 0000.0001)                 1.016821274435215E+04,      /* J = 78 */
(PID.TID 0000.0001)      . . .
(PID.TID 0000.0001)                 1.127061807330668E+04,      /* J = 98 */
(PID.TID 0000.0001)                 1.132538898360582E+04,      /* J = 99 */
(PID.TID 0000.0001)                 1.138012539480601E+04       /* J =100 */
(PID.TID 0000.0001)     ;
(PID.TID 0000.0001) dyF =  /* dyF(:,1,:,1) ( units: m ) */
(PID.TID 0000.0001)    50 @  1.111774733520388E+04              /* I =  1: 50 */
(PID.TID 0000.0001)     ;
(PID.TID 0000.0001) dyF =  /* dyF(1,:,1,:) ( units: m ) */
(PID.TID 0000.0001)   100 @  1.111774733520388E+04              /* J =  1:100 */
(PID.TID 0000.0001)     ;
(PID.TID 0000.0001) dxG =  /* dxG(:,1,:,1) ( units: m ) */
(PID.TID 0000.0001)    50 @  5.791729693558576E+03              /* I =  1: 50 */
(PID.TID 0000.0001)     ;
(PID.TID 0000.0001) dxG =  /* dxG(1,:,1,:) ( units: m ) */
(PID.TID 0000.0001)                 5.791729693558576E+03,      /* J =  1 */
(PID.TID 0000.0001)                 5.849048855077854E+03,      /* J =  2 */
(PID.TID 0000.0001)                 5.906350199379949E+03,      /* J =  3 */
(PID.TID 0000.0001)      . . .
(PID.TID 0000.0001)                 7.048367077963129E+03,      /* J = 23 */
(PID.TID 0000.0001)                 7.105254027978149E+03,      /* J = 24 */
(PID.TID 0000.0001)                 7.162119334157175E+03,      /* J = 25 */
(PID.TID 0000.0001)                 7.218962823278620E+03,      /* J = 26 */
(PID.TID 0000.0001)                 7.275784322187360E+03,      /* J = 27 */
(PID.TID 0000.0001)                 7.332583657795253E+03,      /* J = 28 */
(PID.TID 0000.0001)      . . .
(PID.TID 0000.0001)                 8.463650136583461E+03,      /* J = 48 */
(PID.TID 0000.0001)                 8.519944183739159E+03,      /* J = 49 */
(PID.TID 0000.0001)                 8.576212277667308E+03,      /* J = 50 */
(PID.TID 0000.0001)                 8.632454246965530E+03,      /* J = 51 */
(PID.TID 0000.0001)                 8.688669920311038E+03,      /* J = 52 */
(PID.TID 0000.0001)                 8.744859126461139E+03,      /* J = 53 */
(PID.TID 0000.0001)      . . .
(PID.TID 0000.0001)                 9.862822156126382E+03,      /* J = 73 */
(PID.TID 0000.0001)                 9.918416141504455E+03,      /* J = 74 */
(PID.TID 0000.0001)                 9.973979913666863E+03,      /* J = 75 */
(PID.TID 0000.0001)                 1.002951330335672E+04,      /* J = 76 */
(PID.TID 0000.0001)                 1.008501614140969E+04,      /* J = 77 */
(PID.TID 0000.0001)                 1.014048825875450E+04,      /* J = 78 */
(PID.TID 0000.0001)      . . .
(PID.TID 0000.0001)                 1.124321973312895E+04,      /* J = 98 */
(PID.TID 0000.0001)                 1.129800783041847E+04,      /* J = 99 */
(PID.TID 0000.0001)                 1.135276151201679E+04       /* J =100 */
(PID.TID 0000.0001)     ;
(PID.TID 0000.0001) dyG =  /* dyG(:,1,:,1) ( units: m ) */
(PID.TID 0000.0001)    50 @  1.111774733520388E+04              /* I =  1: 50 */
(PID.TID 0000.0001)     ;
(PID.TID 0000.0001) dyG =  /* dyG(1,:,1,:) ( units: m ) */
(PID.TID 0000.0001)   100 @  1.111774733520388E+04              /* J =  1:100 */
(PID.TID 0000.0001)     ;
(PID.TID 0000.0001) dxC =  /* dxC(:,1,:,1) ( units: m ) */
(PID.TID 0000.0001)    50 @  5.820391490558872E+03              /* I =  1: 50 */
(PID.TID 0000.0001)     ;
(PID.TID 0000.0001) dxC =  /* dxC(1,:,1,:) ( units: m ) */
(PID.TID 0000.0001)                 5.820391490558872E+03,      /* J =  1 */
(PID.TID 0000.0001)                 5.877701765291692E+03,      /* J =  2 */
(PID.TID 0000.0001)                 5.934994135525598E+03,      /* J =  3 */
(PID.TID 0000.0001)      . . .
(PID.TID 0000.0001)                 7.076813247621209E+03,      /* J = 23 */
(PID.TID 0000.0001)                 7.133689397375063E+03,      /* J = 24 */
(PID.TID 0000.0001)                 7.190543816673855E+03,      /* J = 25 */
(PID.TID 0000.0001)                 7.247376332329164E+03,      /* J = 26 */
(PID.TID 0000.0001)                 7.304186771219292E+03,      /* J = 27 */
(PID.TID 0000.0001)                 7.360974960289787E+03,      /* J = 28 */
(PID.TID 0000.0001)      . . .
(PID.TID 0000.0001)                 8.491800393599013E+03,      /* J = 48 */
(PID.TID 0000.0001)                 8.548081485571185E+03,      /* J = 49 */
(PID.TID 0000.0001)                 8.604336538604706E+03,      /* J = 50 */
(PID.TID 0000.0001)                 8.660565381336924E+03,      /* J = 51 */
(PID.TID 0000.0001)                 8.716767842485036E+03,      /* J = 52 */
(PID.TID 0000.0001)                 8.772943750846600E+03,      /* J = 53 */
(PID.TID 0000.0001)      . . .
(PID.TID 0000.0001)                 9.890622914885218E+03,      /* J = 73 */
(PID.TID 0000.0001)                 9.946201814818334E+03,      /* J = 74 */
(PID.TID 0000.0001)                 1.000175041689580E+04,      /* J = 75 */
(PID.TID 0000.0001)                 1.005726855190695E+04,      /* J = 76 */
(PID.TID 0000.0001)                 1.011275605073392E+04,      /* J = 77 */
(PID.TID 0000.0001)                 1.016821274435215E+04,      /* J = 78 */
(PID.TID 0000.0001)      . . .
(PID.TID 0000.0001)                 1.127061807330668E+04,      /* J = 98 */
(PID.TID 0000.0001)                 1.132538898360582E+04,      /* J = 99 */
(PID.TID 0000.0001)                 1.138012539480601E+04       /* J =100 */
(PID.TID 0000.0001)     ;
(PID.TID 0000.0001) dyC =  /* dyC(:,1,:,1) ( units: m ) */
(PID.TID 0000.0001)    50 @  1.111774733520388E+04              /* I =  1: 50 */
(PID.TID 0000.0001)     ;
(PID.TID 0000.0001) dyC =  /* dyC(1,:,1,:) ( units: m ) */
(PID.TID 0000.0001)   100 @  1.111774733520388E+04              /* J =  1:100 */
(PID.TID 0000.0001)     ;
(PID.TID 0000.0001) dxV =  /* dxV(:,1,:,1) ( units: m ) */
(PID.TID 0000.0001)    50 @  5.791729693558576E+03              /* I =  1: 50 */
(PID.TID 0000.0001)     ;
(PID.TID 0000.0001) dxV =  /* dxV(1,:,1,:) ( units: m ) */
(PID.TID 0000.0001)                 5.791729693558576E+03,      /* J =  1 */
(PID.TID 0000.0001)                 5.849048855077854E+03,      /* J =  2 */
(PID.TID 0000.0001)                 5.906350199379949E+03,      /* J =  3 */
(PID.TID 0000.0001)      . . .
(PID.TID 0000.0001)                 7.048367077963129E+03,      /* J = 23 */
(PID.TID 0000.0001)                 7.105254027978149E+03,      /* J = 24 */
(PID.TID 0000.0001)                 7.162119334157175E+03,      /* J = 25 */
(PID.TID 0000.0001)                 7.218962823278620E+03,      /* J = 26 */
(PID.TID 0000.0001)                 7.275784322187360E+03,      /* J = 27 */
(PID.TID 0000.0001)                 7.332583657795253E+03,      /* J = 28 */
(PID.TID 0000.0001)      . . .
(PID.TID 0000.0001)                 8.463650136583461E+03,      /* J = 48 */
(PID.TID 0000.0001)                 8.519944183739159E+03,      /* J = 49 */
(PID.TID 0000.0001)                 8.576212277667308E+03,      /* J = 50 */
(PID.TID 0000.0001)                 8.632454246965530E+03,      /* J = 51 */
(PID.TID 0000.0001)                 8.688669920311038E+03,      /* J = 52 */
(PID.TID 0000.0001)                 8.744859126461139E+03,      /* J = 53 */
(PID.TID 0000.0001)      . . .
(PID.TID 0000.0001)                 9.862822156126382E+03,      /* J = 73 */
(PID.TID 0000.0001)                 9.918416141504455E+03,      /* J = 74 */
(PID.TID 0000.0001)                 9.973979913666863E+03,      /* J = 75 */
(PID.TID 0000.0001)                 1.002951330335672E+04,      /* J = 76 */
(PID.TID 0000.0001)                 1.008501614140969E+04,      /* J = 77 */
(PID.TID 0000.0001)                 1.014048825875450E+04,      /* J = 78 */
(PID.TID 0000.0001)      . . .
(PID.TID 0000.0001)                 1.124321973312895E+04,      /* J = 98 */
(PID.TID 0000.0001)                 1.129800783041847E+04,      /* J = 99 */
(PID.TID 0000.0001)                 1.135276151201679E+04       /* J =100 */
(PID.TID 0000.0001)     ;
(PID.TID 0000.0001) dyU =  /* dyU(:,1,:,1) ( units: m ) */
(PID.TID 0000.0001)    50 @  1.111774733520388E+04              /* I =  1: 50 */
(PID.TID 0000.0001)     ;
(PID.TID 0000.0001) dyU =  /* dyU(1,:,1,:) ( units: m ) */
(PID.TID 0000.0001)   100 @  1.111774733520388E+04              /* J =  1:100 */
(PID.TID 0000.0001)     ;
(PID.TID 0000.0001) rA  =  /* rA (:,1,:,1) ( units: m^2 ) */
(PID.TID 0000.0001)    50 @  6.470963377080289E+07              /* I =  1: 50 */
(PID.TID 0000.0001)     ;
(PID.TID 0000.0001) rA  =  /* rA (1,:,1,:) ( units: m^2 ) */
(PID.TID 0000.0001)                 6.470963377080289E+07,      /* J =  1 */
(PID.TID 0000.0001)                 6.534679484410104E+07,      /* J =  2 */
(PID.TID 0000.0001)                 6.598375685977945E+07,      /* J =  3 */
(PID.TID 0000.0001)      . . .
(PID.TID 0000.0001)                 7.867821163932665E+07,      /* J = 23 */
(PID.TID 0000.0001)                 7.931054622142966E+07,      /* J = 24 */
(PID.TID 0000.0001)                 7.994263920984067E+07,      /* J = 25 */
(PID.TID 0000.0001)                 8.057448867913349E+07,      /* J = 26 */
(PID.TID 0000.0001)                 8.120609270456599E+07,      /* J = 27 */
(PID.TID 0000.0001)                 8.183744936212724E+07,      /* J = 28 */
(PID.TID 0000.0001)      . . .
(PID.TID 0000.0001)                 9.440967921416211E+07,      /* J = 48 */
(PID.TID 0000.0001)                 9.503539809503193E+07,      /* J = 49 */
(PID.TID 0000.0001)                 9.566082748163140E+07,      /* J = 50 */
(PID.TID 0000.0001)                 9.628596546870193E+07,      /* J = 51 */
(PID.TID 0000.0001)                 9.691081015209354E+07,      /* J = 52 */
(PID.TID 0000.0001)                 9.753535962826957E+07,      /* J = 53 */
(PID.TID 0000.0001)      . . .
(PID.TID 0000.0001)                 1.099614325987181E+08,      /* J = 73 */
(PID.TID 0000.0001)                 1.105793446869293E+08,      /* J = 74 */
(PID.TID 0000.0001)                 1.111969199312560E+08,      /* J = 75 */
(PID.TID 0000.0001)                 1.118141564504991E+08,      /* J = 76 */
(PID.TID 0000.0001)                 1.124310523644033E+08,      /* J = 77 */
(PID.TID 0000.0001)                 1.130476057938687E+08,      /* J = 78 */
(PID.TID 0000.0001)      . . .
(PID.TID 0000.0001)                 1.253038681465364E+08,      /* J = 98 */
(PID.TID 0000.0001)                 1.259127972112936E+08,      /* J = 99 */
(PID.TID 0000.0001)                 1.265213427237870E+08       /* J =100 */
(PID.TID 0000.0001)     ;
(PID.TID 0000.0001) rAw =  /* rAw(:,1,:,1) ( units: m^2 ) */
(PID.TID 0000.0001)    50 @  6.470963377080289E+07              /* I =  1: 50 */
(PID.TID 0000.0001)     ;
(PID.TID 0000.0001) rAw =  /* rAw(1,:,1,:) ( units: m^2 ) */
(PID.TID 0000.0001)                 6.470963377080289E+07,      /* J =  1 */
(PID.TID 0000.0001)                 6.534679484410104E+07,      /* J =  2 */
(PID.TID 0000.0001)                 6.598375685977945E+07,      /* J =  3 */
(PID.TID 0000.0001)      . . .
(PID.TID 0000.0001)                 7.867821163932665E+07,      /* J = 23 */
(PID.TID 0000.0001)                 7.931054622142966E+07,      /* J = 24 */
(PID.TID 0000.0001)                 7.994263920984067E+07,      /* J = 25 */
(PID.TID 0000.0001)                 8.057448867913349E+07,      /* J = 26 */
(PID.TID 0000.0001)                 8.120609270456599E+07,      /* J = 27 */
(PID.TID 0000.0001)                 8.183744936212724E+07,      /* J = 28 */
(PID.TID 0000.0001)      . . .
(PID.TID 0000.0001)                 9.440967921416211E+07,      /* J = 48 */
(PID.TID 0000.0001)                 9.503539809503193E+07,      /* J = 49 */
(PID.TID 0000.0001)                 9.566082748163140E+07,      /* J = 50 */
(PID.TID 0000.0001)                 9.628596546870193E+07,      /* J = 51 */
(PID.TID 0000.0001)                 9.691081015209354E+07,      /* J = 52 */
(PID.TID 0000.0001)                 9.753535962826957E+07,      /* J = 53 */
(PID.TID 0000.0001)      . . .
(PID.TID 0000.0001)                 1.099614325987181E+08,      /* J = 73 */
(PID.TID 0000.0001)                 1.105793446869293E+08,      /* J = 74 */
(PID.TID 0000.0001)                 1.111969199312560E+08,      /* J = 75 */
(PID.TID 0000.0001)                 1.118141564504991E+08,      /* J = 76 */
(PID.TID 0000.0001)                 1.124310523644033E+08,      /* J = 77 */
(PID.TID 0000.0001)                 1.130476057938687E+08,      /* J = 78 */
(PID.TID 0000.0001)      . . .
(PID.TID 0000.0001)                 1.253038681465364E+08,      /* J = 98 */
(PID.TID 0000.0001)                 1.259127972112936E+08,      /* J = 99 */
(PID.TID 0000.0001)                 1.265213427237870E+08       /* J =100 */
(PID.TID 0000.0001)     ;
(PID.TID 0000.0001) rAs =  /* rAs(:,1,:,1) ( units: m^2 ) */
(PID.TID 0000.0001)    50 @  6.439097919401864E+07              /* I =  1: 50 */
(PID.TID 0000.0001)     ;
(PID.TID 0000.0001) rAs =  /* rAs(1,:,1,:) ( units: m^2 ) */
(PID.TID 0000.0001)                 6.439097919401864E+07,      /* J =  1 */
(PID.TID 0000.0001)                 6.502823906837179E+07,      /* J =  2 */
(PID.TID 0000.0001)                 6.566530085543716E+07,      /* J =  3 */
(PID.TID 0000.0001)      . . .
(PID.TID 0000.0001)                 7.836195435256335E+07,      /* J = 23 */
(PID.TID 0000.0001)                 7.899440900921808E+07,      /* J = 24 */
(PID.TID 0000.0001)                 7.962662303520055E+07,      /* J = 25 */
(PID.TID 0000.0001)                 8.025859450470714E+07,      /* J = 26 */
(PID.TID 0000.0001)                 8.089032149259475E+07,      /* J = 27 */
(PID.TID 0000.0001)                 8.152180207452223E+07,      /* J = 28 */
(PID.TID 0000.0001)      . . .
(PID.TID 0000.0001)                 9.409671180895932E+07,      /* J = 48 */
(PID.TID 0000.0001)                 9.472257472228888E+07,      /* J = 49 */
(PID.TID 0000.0001)                 9.534814909420149E+07,      /* J = 50 */
(PID.TID 0000.0001)                 9.597343301913190E+07,      /* J = 51 */
(PID.TID 0000.0001)                 9.659842459236403E+07,      /* J = 52 */
(PID.TID 0000.0001)                 9.722312190998378E+07,      /* J = 53 */
(PID.TID 0000.0001)      . . .
(PID.TID 0000.0001)                 1.096523508263446E+08,      /* J = 73 */
(PID.TID 0000.0001)                 1.102704306306916E+08,      /* J = 74 */
(PID.TID 0000.0001)                 1.108881745321664E+08,      /* J = 75 */
(PID.TID 0000.0001)                 1.115055806490511E+08,      /* J = 76 */
(PID.TID 0000.0001)                 1.121226471005947E+08,      /* J = 77 */
(PID.TID 0000.0001)                 1.127393720071080E+08,      /* J = 78 */
(PID.TID 0000.0001)      . . .
(PID.TID 0000.0001)                 1.249992603617116E+08,      /* J = 98 */
(PID.TID 0000.0001)                 1.256083805070198E+08,      /* J = 99 */
(PID.TID 0000.0001)                 1.262171180274426E+08       /* J =100 */
(PID.TID 0000.0001)     ;
(PID.TID 0000.0001) globalArea = /* Integrated horizontal Area (m^2) */
(PID.TID 0000.0001)                 4.665024516720103E+11
(PID.TID 0000.0001)     ;
(PID.TID 0000.0001) // =======================================================
(PID.TID 0000.0001) // End of Model config. summary
(PID.TID 0000.0001) // =======================================================
(PID.TID 0000.0001) 
(PID.TID 0000.0001) == Packages configuration : Check & print summary ==
(PID.TID 0000.0001) 
(PID.TID 0000.0001) SHELFICE_CHECK: #define ALLOW_SHELFICE
(PID.TID 0000.0001) GAD_CHECK: #define ALLOW_GENERIC_ADVDIFF
(PID.TID 0000.0001) // =======================================================
(PID.TID 0000.0001) // CONFIG_CHECK : Normal End
(PID.TID 0000.0001) // =======================================================
(PID.TID 0000.0001) 
(PID.TID 0000.0001) Start initial hydrostatic pressure computation
(PID.TID 0000.0001) Pressure is predetermined for buoyancyRelation OCEANIC
(PID.TID 0000.0001) 
(PID.TID 0000.0001)  MDS_READ_FIELD: opening global file: phi0surf.exp1.jmd95z
(PID.TID 0000.0001) // =======================================================
(PID.TID 0000.0001) // Model current state
(PID.TID 0000.0001) // =======================================================
(PID.TID 0000.0001) 
(PID.TID 0000.0001) // =======================================================
(PID.TID 0000.0001) // Begin MONITOR dynamic field statistics
(PID.TID 0000.0001) // =======================================================
(PID.TID 0000.0001) %MON time_tsnumber                =                     0
(PID.TID 0000.0001) %MON time_secondsf                =   0.0000000000000E+00
(PID.TID 0000.0001) %MON dynstat_eta_max              =   0.0000000000000E+00
(PID.TID 0000.0001) %MON dynstat_eta_min              =   0.0000000000000E+00
(PID.TID 0000.0001) %MON dynstat_eta_mean             =   0.0000000000000E+00
(PID.TID 0000.0001) %MON dynstat_eta_sd               =   0.0000000000000E+00
(PID.TID 0000.0001) %MON dynstat_eta_del2             =   0.0000000000000E+00
(PID.TID 0000.0001) %MON dynstat_uvel_max             =   0.0000000000000E+00
(PID.TID 0000.0001) %MON dynstat_uvel_min             =   0.0000000000000E+00
(PID.TID 0000.0001) %MON dynstat_uvel_mean            =   0.0000000000000E+00
(PID.TID 0000.0001) %MON dynstat_uvel_sd              =   0.0000000000000E+00
(PID.TID 0000.0001) %MON dynstat_uvel_del2            =   0.0000000000000E+00
(PID.TID 0000.0001) %MON dynstat_vvel_max             =   0.0000000000000E+00
(PID.TID 0000.0001) %MON dynstat_vvel_min             =   0.0000000000000E+00
(PID.TID 0000.0001) %MON dynstat_vvel_mean            =   0.0000000000000E+00
(PID.TID 0000.0001) %MON dynstat_vvel_sd              =   0.0000000000000E+00
(PID.TID 0000.0001) %MON dynstat_vvel_del2            =   0.0000000000000E+00
(PID.TID 0000.0001) %MON dynstat_wvel_max             =  -0.0000000000000E+00
(PID.TID 0000.0001) %MON dynstat_wvel_min             =  -0.0000000000000E+00
(PID.TID 0000.0001) %MON dynstat_wvel_mean            =   0.0000000000000E+00
(PID.TID 0000.0001) %MON dynstat_wvel_sd              =   0.0000000000000E+00
(PID.TID 0000.0001) %MON dynstat_wvel_del2            =   0.0000000000000E+00
(PID.TID 0000.0001) %MON dynstat_theta_max            =  -1.9000000000000E+00
(PID.TID 0000.0001) %MON dynstat_theta_min            =  -1.9000000000000E+00
(PID.TID 0000.0001) %MON dynstat_theta_mean           =  -1.9000000000000E+00
(PID.TID 0000.0001) %MON dynstat_theta_sd             =   0.0000000000000E+00
(PID.TID 0000.0001) %MON dynstat_theta_del2           =   0.0000000000000E+00
(PID.TID 0000.0001) %MON dynstat_salt_max             =   3.4400000000000E+01
(PID.TID 0000.0001) %MON dynstat_salt_min             =   3.4400000000000E+01
(PID.TID 0000.0001) %MON dynstat_salt_mean            =   3.4400000000002E+01
(PID.TID 0000.0001) %MON dynstat_salt_sd              =   2.0961010704923E-12
(PID.TID 0000.0001) %MON dynstat_salt_del2            =   0.0000000000000E+00
(PID.TID 0000.0001) %MON advcfl_uvel_max              =   0.0000000000000E+00
(PID.TID 0000.0001) %MON advcfl_vvel_max              =   0.0000000000000E+00
(PID.TID 0000.0001) %MON advcfl_wvel_max              =   0.0000000000000E+00
(PID.TID 0000.0001) %MON advcfl_W_hf_max              =   0.0000000000000E+00
(PID.TID 0000.0001) %MON pe_b_mean                    =   0.0000000000000E+00
(PID.TID 0000.0001) %MON ke_max                       =   0.0000000000000E+00
(PID.TID 0000.0001) %MON ke_mean                      =   0.0000000000000E+00
(PID.TID 0000.0001) %MON ke_vol                       =   2.9241705273104E+14
(PID.TID 0000.0001) %MON vort_r_min                   =   0.0000000000000E+00
(PID.TID 0000.0001) %MON vort_r_max                   =   0.0000000000000E+00
(PID.TID 0000.0001) %MON vort_a_mean                  =  -1.4007437277915E-04
(PID.TID 0000.0001) %MON vort_a_sd                    =   1.7682771465337E-06
(PID.TID 0000.0001) %MON vort_p_mean                  =  -1.5039772194955E-04
(PID.TID 0000.0001) %MON vort_p_sd                    =   8.7081213929711E-05
(PID.TID 0000.0001) %MON surfExpan_theta_mean         =   0.0000000000000E+00
(PID.TID 0000.0001) %MON surfExpan_salt_mean          =   0.0000000000000E+00
(PID.TID 0000.0001) // =======================================================
(PID.TID 0000.0001) // End MONITOR dynamic field statistics
(PID.TID 0000.0001) // =======================================================
(PID.TID 0000.0001) SOLVE_FOR_PRESSURE: putPmEinXvector =    F
(PID.TID 0000.0001) SOLVE_FOR_PRESSURE: zeroPsNH=    F , zeroMeanPnh=    F
(PID.TID 0000.0001) SOLVE_FOR_PRESSURE: oldFreeSurfTerm =    F
 cg2d: Sum(rhs),rhsMax =  -1.83186799063151E-14  3.88700162323895E-14
(PID.TID 0000.0001)                    cg2d_init_res =    2.18953287600515E+01
(PID.TID 0000.0001)                       cg2d_iters =   216
(PID.TID 0000.0001)                         cg2d_res =    9.20750847985007E-14
(PID.TID 0000.0001) // =======================================================
(PID.TID 0000.0001) // Begin MONITOR dynamic field statistics
(PID.TID 0000.0001) // =======================================================
(PID.TID 0000.0001) %MON time_tsnumber                =                     1
(PID.TID 0000.0001) %MON time_secondsf                =   1.8000000000000E+03
(PID.TID 0000.0001) %MON dynstat_eta_max              =   2.9172428893540E-14
(PID.TID 0000.0001) %MON dynstat_eta_min              =  -1.8475101007472E-14
(PID.TID 0000.0001) %MON dynstat_eta_mean             =   2.9748584938996E-30
(PID.TID 0000.0001) %MON dynstat_eta_sd               =   7.3556156094534E-15
(PID.TID 0000.0001) %MON dynstat_eta_del2             =   5.3861920695784E-17
(PID.TID 0000.0001) %MON dynstat_uvel_max             =   1.0788672123772E-15
(PID.TID 0000.0001) %MON dynstat_uvel_min             =  -1.2238471730638E-15
(PID.TID 0000.0001) %MON dynstat_uvel_mean            =   9.9170813469251E-17
(PID.TID 0000.0001) %MON dynstat_uvel_sd              =   3.5676722034974E-16
(PID.TID 0000.0001) %MON dynstat_uvel_del2            =   2.2575769680939E-18
(PID.TID 0000.0001) %MON dynstat_vvel_max             =   9.6860214043329E-17
(PID.TID 0000.0001) %MON dynstat_vvel_min             =  -4.1124222343785E-15
(PID.TID 0000.0001) %MON dynstat_vvel_mean            =  -9.0699308283666E-16
(PID.TID 0000.0001) %MON dynstat_vvel_sd              =   1.1550308930280E-15
(PID.TID 0000.0001) %MON dynstat_vvel_del2            =   3.3025708310499E-19
(PID.TID 0000.0001) %MON dynstat_wvel_max             =   1.6206904940856E-17
(PID.TID 0000.0001) %MON dynstat_wvel_min             =  -1.3159813703832E-17
(PID.TID 0000.0001) %MON dynstat_wvel_mean            =  -7.2632899150968E-19
(PID.TID 0000.0001) %MON dynstat_wvel_sd              =   2.0036033020317E-18
(PID.TID 0000.0001) %MON dynstat_wvel_del2            =   3.9742372651536E-21
(PID.TID 0000.0001) %MON dynstat_theta_max            =  -1.9000000000000E+00
(PID.TID 0000.0001) %MON dynstat_theta_min            =  -1.9031618178858E+00
(PID.TID 0000.0001) %MON dynstat_theta_mean           =  -1.9000578104861E+00
(PID.TID 0000.0001) %MON dynstat_theta_sd             =   2.6340590637834E-04
(PID.TID 0000.0001) %MON dynstat_theta_del2           =   2.7690132361455E-07
(PID.TID 0000.0001) %MON dynstat_salt_max             =   3.4400000000000E+01
(PID.TID 0000.0001) %MON dynstat_salt_min             =   3.4398743493572E+01
(PID.TID 0000.0001) %MON dynstat_salt_mean            =   3.4399977026115E+01
(PID.TID 0000.0001) %MON dynstat_salt_sd              =   1.0467750719494E-04
(PID.TID 0000.0001) %MON dynstat_salt_del2            =   1.1004058600462E-07
(PID.TID 0000.0001) %MON advcfl_uvel_max              =   3.4650666880849E-16
(PID.TID 0000.0001) %MON advcfl_vvel_max              =   6.6581473734719E-16
(PID.TID 0000.0001) %MON advcfl_wvel_max              =   9.7241429645133E-16
(PID.TID 0000.0001) %MON advcfl_W_hf_max              =   1.0607925590322E-14
(PID.TID 0000.0001) %MON pe_b_mean                    =  -5.9508927605322E-18
(PID.TID 0000.0001) %MON ke_max                       =   7.9251101869563E-30
(PID.TID 0000.0001) %MON ke_mean                      =   1.1328472119094E-30
(PID.TID 0000.0001) %MON ke_vol                       =   2.9241705273104E+14
(PID.TID 0000.0001) %MON vort_r_min                   =  -5.7096094687164E-19
(PID.TID 0000.0001) %MON vort_r_max                   =   6.0802152751963E-19
(PID.TID 0000.0001) %MON vort_a_mean                  =  -1.4007437277915E-04
(PID.TID 0000.0001) %MON vort_a_sd                    =   1.7682771465365E-06
(PID.TID 0000.0001) %MON vort_p_mean                  =  -1.5039772194955E-04
(PID.TID 0000.0001) %MON vort_p_sd                    =   8.7081213929711E-05
(PID.TID 0000.0001) %MON surfExpan_theta_mean         =  -2.1959982212670E-21
(PID.TID 0000.0001) %MON surfExpan_salt_mean          =  -8.7268969308587E-22
(PID.TID 0000.0001) // =======================================================
(PID.TID 0000.0001) // End MONITOR dynamic field statistics
(PID.TID 0000.0001) // =======================================================
 cg2d: Sum(rhs),rhsMax =   8.69736446265306E-15  8.00029713269188E-05
(PID.TID 0000.0001)                    cg2d_init_res =    3.41999868463821E+01
(PID.TID 0000.0001)                       cg2d_iters =   212
(PID.TID 0000.0001)                         cg2d_res =    9.23535084208744E-14
(PID.TID 0000.0001) // =======================================================
(PID.TID 0000.0001) // Begin MONITOR dynamic field statistics
(PID.TID 0000.0001) // =======================================================
(PID.TID 0000.0001) %MON time_tsnumber                =                     2
(PID.TID 0000.0001) %MON time_secondsf                =   3.6000000000000E+03
(PID.TID 0000.0001) %MON dynstat_eta_max              =   1.8498299510309E-05
(PID.TID 0000.0001) %MON dynstat_eta_min              =  -1.5651918307847E-05
(PID.TID 0000.0001) %MON dynstat_eta_mean             =  -3.6600551915831E-22
(PID.TID 0000.0001) %MON dynstat_eta_sd               =   4.5233826654011E-06
(PID.TID 0000.0001) %MON dynstat_eta_del2             =   2.2083407393583E-07
(PID.TID 0000.0001) %MON dynstat_uvel_max             =   6.8703225402879E-06
(PID.TID 0000.0001) %MON dynstat_uvel_min             =  -7.6164287496894E-06
(PID.TID 0000.0001) %MON dynstat_uvel_mean            =   1.6997579182857E-08
(PID.TID 0000.0001) %MON dynstat_uvel_sd              =   9.6275252678977E-07
(PID.TID 0000.0001) %MON dynstat_uvel_del2            =   8.5005143387779E-09
(PID.TID 0000.0001) %MON dynstat_vvel_max             =   2.6966369911103E-05
(PID.TID 0000.0001) %MON dynstat_vvel_min             =  -7.0147794922645E-06
(PID.TID 0000.0001) %MON dynstat_vvel_mean            =  -1.6955289925419E-07
(PID.TID 0000.0001) %MON dynstat_vvel_sd              =   1.5902161608308E-06
(PID.TID 0000.0001) %MON dynstat_vvel_del2            =   3.3663966810653E-09
(PID.TID 0000.0001) %MON dynstat_wvel_max             =   6.3926341942128E-08
(PID.TID 0000.0001) %MON dynstat_wvel_min             =  -6.3271532523701E-08
(PID.TID 0000.0001) %MON dynstat_wvel_mean            =  -1.1148919361185E-10
(PID.TID 0000.0001) %MON dynstat_wvel_sd              =   4.3680268283099E-09
(PID.TID 0000.0001) %MON dynstat_wvel_del2            =   4.6742424512106E-11
(PID.TID 0000.0001) %MON dynstat_theta_max            =  -1.9000000000000E+00
(PID.TID 0000.0001) %MON dynstat_theta_min            =  -1.9062982113462E+00
(PID.TID 0000.0001) %MON dynstat_theta_mean           =  -1.9001151625410E+00
(PID.TID 0000.0001) %MON dynstat_theta_sd             =   5.2455526009694E-04
(PID.TID 0000.0001) %MON dynstat_theta_del2           =   5.4968123256326E-07
(PID.TID 0000.0001) %MON dynstat_salt_max             =   3.4400000000000E+01
(PID.TID 0000.0001) %MON dynstat_salt_min             =   3.4397497090811E+01
(PID.TID 0000.0001) %MON dynstat_salt_mean            =   3.4399954234409E+01
(PID.TID 0000.0001) %MON dynstat_salt_sd              =   2.0845826036265E-04
(PID.TID 0000.0001) %MON dynstat_salt_del2            =   2.1844332182057E-07
(PID.TID 0000.0001) %MON advcfl_uvel_max              =   2.3099553995139E-06
(PID.TID 0000.0001) %MON advcfl_vvel_max              =   4.3659443209585E-06
(PID.TID 0000.0001) %MON advcfl_wvel_max              =   3.8355805165277E-06
(PID.TID 0000.0001) %MON advcfl_W_hf_max              =   1.6037656852459E-05
(PID.TID 0000.0001) %MON pe_b_mean                    =  -1.3792620769571E-09
(PID.TID 0000.0001) %MON ke_max                       =   1.9952462814186E-10
(PID.TID 0000.0001) %MON ke_mean                      =   1.7178623940498E-12
(PID.TID 0000.0001) %MON ke_vol                       =   2.9241705273104E+14
(PID.TID 0000.0001) %MON vort_r_min                   =  -4.5596701590623E-09
(PID.TID 0000.0001) %MON vort_r_max                   =   4.4787953603584E-09
(PID.TID 0000.0001) %MON vort_a_mean                  =  -1.4007437277908E-04
(PID.TID 0000.0001) %MON vort_a_sd                    =   1.7682771807646E-06
(PID.TID 0000.0001) %MON vort_p_mean                  =  -1.5039772194947E-04
(PID.TID 0000.0001) %MON vort_p_sd                    =   8.7081210239709E-05
(PID.TID 0000.0001) %MON surfExpan_theta_mean         =  -7.7373845902091E-13
(PID.TID 0000.0001) %MON surfExpan_salt_mean          =  -3.0748366363321E-13
(PID.TID 0000.0001) // =======================================================
(PID.TID 0000.0001) // End MONITOR dynamic field statistics
(PID.TID 0000.0001) // =======================================================
 cg2d: Sum(rhs),rhsMax =  -2.78110867668602E-14  1.29106415462996E-04
(PID.TID 0000.0001)                    cg2d_init_res =    1.31706043573219E+01
(PID.TID 0000.0001)                       cg2d_iters =   208
(PID.TID 0000.0001)                         cg2d_res =    9.14739531589323E-14
(PID.TID 0000.0001) // =======================================================
(PID.TID 0000.0001) // Begin MONITOR dynamic field statistics
(PID.TID 0000.0001) // =======================================================
(PID.TID 0000.0001) %MON time_tsnumber                =                     3
(PID.TID 0000.0001) %MON time_secondsf                =   5.4000000000000E+03
(PID.TID 0000.0001) %MON dynstat_eta_max              =   3.4684754375619E-05
(PID.TID 0000.0001) %MON dynstat_eta_min              =  -2.2819239062965E-05
(PID.TID 0000.0001) %MON dynstat_eta_mean             =   1.8633008248059E-21
(PID.TID 0000.0001) %MON dynstat_eta_sd               =   8.0599685424111E-06
(PID.TID 0000.0001) %MON dynstat_eta_del2             =   3.5838356303738E-07
(PID.TID 0000.0001) %MON dynstat_uvel_max             =   1.3992436944124E-05
(PID.TID 0000.0001) %MON dynstat_uvel_min             =  -2.3407853562421E-05
(PID.TID 0000.0001) %MON dynstat_uvel_mean            =   3.3316415591189E-08
(PID.TID 0000.0001) %MON dynstat_uvel_sd              =   2.1968132945359E-06
(PID.TID 0000.0001) %MON dynstat_uvel_del2            =   1.6095750384404E-08
(PID.TID 0000.0001) %MON dynstat_vvel_max             =   6.5699018828978E-05
(PID.TID 0000.0001) %MON dynstat_vvel_min             =  -1.4831706169873E-05
(PID.TID 0000.0001) %MON dynstat_vvel_mean            =  -4.0140153996426E-07
(PID.TID 0000.0001) %MON dynstat_vvel_sd              =   3.9570154007225E-06
(PID.TID 0000.0001) %MON dynstat_vvel_del2            =   8.1077862686838E-09
(PID.TID 0000.0001) %MON dynstat_wvel_max             =   1.6301606541231E-07
(PID.TID 0000.0001) %MON dynstat_wvel_min             =  -1.6598403141807E-07
(PID.TID 0000.0001) %MON dynstat_wvel_mean            =  -2.5401265120622E-10
(PID.TID 0000.0001) %MON dynstat_wvel_sd              =   1.0642745284983E-08
(PID.TID 0000.0001) %MON dynstat_wvel_del2            =   1.1268849500108E-10
(PID.TID 0000.0001) %MON dynstat_theta_max            =  -1.9000000000000E+00
(PID.TID 0000.0001) %MON dynstat_theta_min            =  -1.9094189307448E+00
(PID.TID 0000.0001) %MON dynstat_theta_mean           =  -1.9001722318842E+00
(PID.TID 0000.0001) %MON dynstat_theta_sd             =   7.8431410730827E-04
(PID.TID 0000.0001) %MON dynstat_theta_del2           =   8.1995057595756E-07
(PID.TID 0000.0001) %MON dynstat_salt_max             =   3.4400000000000E+01
(PID.TID 0000.0001) %MON dynstat_salt_min             =   3.4396256916922E+01
(PID.TID 0000.0001) %MON dynstat_salt_mean            =   3.4399931555052E+01
(PID.TID 0000.0001) %MON dynstat_salt_sd              =   3.1168642624442E-04
(PID.TID 0000.0001) %MON dynstat_salt_del2            =   3.2584835888552E-07
(PID.TID 0000.0001) %MON advcfl_uvel_max              =   7.0992717853169E-06
(PID.TID 0000.0001) %MON advcfl_vvel_max              =   1.0636888060741E-05
(PID.TID 0000.0001) %MON advcfl_wvel_max              =   9.9590418850844E-06
(PID.TID 0000.0001) %MON advcfl_W_hf_max              =   1.9880831675246E-05
(PID.TID 0000.0001) %MON pe_b_mean                    =  -4.0612599882881E-09
(PID.TID 0000.0001) %MON ke_max                       =   1.2609129862759E-09
(PID.TID 0000.0001) %MON ke_mean                      =   1.0180844038712E-11
(PID.TID 0000.0001) %MON ke_vol                       =   2.9241705273104E+14
(PID.TID 0000.0001) %MON vort_r_min                   =  -1.1123456102324E-08
(PID.TID 0000.0001) %MON vort_r_max                   =   1.0855662050699E-08
(PID.TID 0000.0001) %MON vort_a_mean                  =  -1.4007437277785E-04
(PID.TID 0000.0001) %MON vort_a_sd                    =   1.7682771524466E-06
(PID.TID 0000.0001) %MON vort_p_mean                  =  -1.5039772194814E-04
(PID.TID 0000.0001) %MON vort_p_sd                    =   8.7081103277731E-05
(PID.TID 0000.0001) %MON surfExpan_theta_mean         =  -2.3858671912295E-12
(PID.TID 0000.0001) %MON surfExpan_salt_mean          =  -9.4814362179705E-13
(PID.TID 0000.0001) // =======================================================
(PID.TID 0000.0001) // End MONITOR dynamic field statistics
(PID.TID 0000.0001) // =======================================================
 cg2d: Sum(rhs),rhsMax =  -2.99760216648792E-14  1.78169476465142E-04
(PID.TID 0000.0001)                    cg2d_init_res =    9.44862405692009E+00
(PID.TID 0000.0001)                       cg2d_iters =   210
(PID.TID 0000.0001)                         cg2d_res =    9.35814783333524E-14
(PID.TID 0000.0001) // =======================================================
(PID.TID 0000.0001) // Begin MONITOR dynamic field statistics
(PID.TID 0000.0001) // =======================================================
(PID.TID 0000.0001) %MON time_tsnumber                =                     4
(PID.TID 0000.0001) %MON time_secondsf                =   7.2000000000000E+03
(PID.TID 0000.0001) %MON dynstat_eta_max              =   5.2853369729593E-05
(PID.TID 0000.0001) %MON dynstat_eta_min              =  -2.6553754421932E-05
(PID.TID 0000.0001) %MON dynstat_eta_mean             =  -5.3237166423027E-21
(PID.TID 0000.0001) %MON dynstat_eta_sd               =   1.2165263778832E-05
(PID.TID 0000.0001) %MON dynstat_eta_del2             =   4.9432780895753E-07
(PID.TID 0000.0001) %MON dynstat_uvel_max             =   2.2763321591280E-05
(PID.TID 0000.0001) %MON dynstat_uvel_min             =  -4.9661951363027E-05
(PID.TID 0000.0001) %MON dynstat_uvel_mean            =   4.3209125712750E-08
(PID.TID 0000.0001) %MON dynstat_uvel_sd              =   4.1296578554851E-06
(PID.TID 0000.0001) %MON dynstat_uvel_del2            =   2.4662413882815E-08
(PID.TID 0000.0001) %MON dynstat_vvel_max             =   1.1354014604482E-04
(PID.TID 0000.0001) %MON dynstat_vvel_min             =  -2.3738680747742E-05
(PID.TID 0000.0001) %MON dynstat_vvel_mean            =  -6.5689315845673E-07
(PID.TID 0000.0001) %MON dynstat_vvel_sd              =   6.9159249902111E-06
(PID.TID 0000.0001) %MON dynstat_vvel_del2            =   1.3996063784894E-08
(PID.TID 0000.0001) %MON dynstat_wvel_max             =   3.0370198429220E-07
(PID.TID 0000.0001) %MON dynstat_wvel_min             =  -3.2621564017309E-07
(PID.TID 0000.0001) %MON dynstat_wvel_mean            =  -3.7350538372830E-10
(PID.TID 0000.0001) %MON dynstat_wvel_sd              =   1.8969433230103E-08
(PID.TID 0000.0001) %MON dynstat_wvel_del2            =   1.9625768238468E-10
(PID.TID 0000.0001) %MON dynstat_theta_max            =  -1.9000000000000E+00
(PID.TID 0000.0001) %MON dynstat_theta_min            =  -1.9125240258972E+00
(PID.TID 0000.0001) %MON dynstat_theta_mean           =  -1.9002290194338E+00
(PID.TID 0000.0001) %MON dynstat_theta_sd             =   1.0426872735519E-03
(PID.TID 0000.0001) %MON dynstat_theta_del2           =   1.0877285542075E-06
(PID.TID 0000.0001) %MON dynstat_salt_max             =   3.4400000000000E+01
(PID.TID 0000.0001) %MON dynstat_salt_min             =   3.4395022952108E+01
(PID.TID 0000.0001) %MON dynstat_salt_mean            =   3.4399908987679E+01
(PID.TID 0000.0001) %MON dynstat_salt_sd              =   4.1436392250973E-04
(PID.TID 0000.0001) %MON dynstat_salt_del2            =   4.3226332744207E-07
(PID.TID 0000.0001) %MON advcfl_uvel_max              =   1.5061769297862E-05
(PID.TID 0000.0001) %MON advcfl_vvel_max              =   1.8382524509577E-05
(PID.TID 0000.0001) %MON advcfl_wvel_max              =   1.9572938410386E-05
(PID.TID 0000.0001) %MON advcfl_W_hf_max              =   2.9847411823217E-05
(PID.TID 0000.0001) %MON pe_b_mean                    =  -7.8371037361740E-09
(PID.TID 0000.0001) %MON ke_max                       =   4.2391143985164E-09
(PID.TID 0000.0001) %MON ke_mean                      =   3.2200977425399E-11
(PID.TID 0000.0001) %MON ke_vol                       =   2.9241705273104E+14
(PID.TID 0000.0001) %MON vort_r_min                   =  -1.9223404746251E-08
(PID.TID 0000.0001) %MON vort_r_max                   =   1.8715251438083E-08
(PID.TID 0000.0001) %MON vort_a_mean                  =  -1.4007437277195E-04
(PID.TID 0000.0001) %MON vort_a_sd                    =   1.7682770593884E-06
(PID.TID 0000.0001) %MON vort_p_mean                  =  -1.5039772194181E-04
(PID.TID 0000.0001) %MON vort_p_sd                    =   8.7080880970281E-05
(PID.TID 0000.0001) %MON surfExpan_theta_mean         =  -4.6017112117372E-12
(PID.TID 0000.0001) %MON surfExpan_salt_mean          =  -1.8287200355817E-12
(PID.TID 0000.0001) // =======================================================
(PID.TID 0000.0001) // End MONITOR dynamic field statistics
(PID.TID 0000.0001) // =======================================================
 cg2d: Sum(rhs),rhsMax =  -2.88657986402541E-14  2.27500925446877E-04
(PID.TID 0000.0001)                    cg2d_init_res =    7.37154935489111E+00
(PID.TID 0000.0001)                       cg2d_iters =   209
(PID.TID 0000.0001)                         cg2d_res =    9.62384552721191E-14
(PID.TID 0000.0001) // =======================================================
(PID.TID 0000.0001) // Begin MONITOR dynamic field statistics
(PID.TID 0000.0001) // =======================================================
(PID.TID 0000.0001) %MON time_tsnumber                =                     5
(PID.TID 0000.0001) %MON time_secondsf                =   9.0000000000000E+03
(PID.TID 0000.0001) %MON dynstat_eta_max              =   7.2201791250790E-05
(PID.TID 0000.0001) %MON dynstat_eta_min              =  -3.0336884460669E-05
(PID.TID 0000.0001) %MON dynstat_eta_mean             =  -9.5826899561448E-21
(PID.TID 0000.0001) %MON dynstat_eta_sd               =   1.6799729744659E-05
(PID.TID 0000.0001) %MON dynstat_eta_del2             =   6.2980329009213E-07
(PID.TID 0000.0001) %MON dynstat_uvel_max             =   3.3042068510148E-05
(PID.TID 0000.0001) %MON dynstat_uvel_min             =  -8.7447140337024E-05
(PID.TID 0000.0001) %MON dynstat_uvel_mean            =   4.3251617442009E-08
(PID.TID 0000.0001) %MON dynstat_uvel_sd              =   6.9036262449017E-06
(PID.TID 0000.0001) %MON dynstat_uvel_del2            =   3.3963916854528E-08
(PID.TID 0000.0001) %MON dynstat_vvel_max             =   1.6691224622308E-04
(PID.TID 0000.0001) %MON dynstat_vvel_min             =  -3.2979730669546E-05
(PID.TID 0000.0001) %MON dynstat_vvel_mean            =  -8.9625839993336E-07
(PID.TID 0000.0001) %MON dynstat_vvel_sd              =   1.0243856312207E-05
(PID.TID 0000.0001) %MON dynstat_vvel_del2            =   2.0571678023790E-08
(PID.TID 0000.0001) %MON dynstat_wvel_max             =   5.2062592964810E-07
(PID.TID 0000.0001) %MON dynstat_wvel_min             =  -5.4335491028559E-07
(PID.TID 0000.0001) %MON dynstat_wvel_mean            =  -4.6179902687159E-10
(PID.TID 0000.0001) %MON dynstat_wvel_sd              =   2.8913365729683E-08
(PID.TID 0000.0001) %MON dynstat_wvel_del2            =   2.9029786437864E-10
(PID.TID 0000.0001) %MON dynstat_theta_max            =  -1.9000000000000E+00
(PID.TID 0000.0001) %MON dynstat_theta_min            =  -1.9156135792371E+00
(PID.TID 0000.0001) %MON dynstat_theta_mean           =  -1.9002855266491E+00
(PID.TID 0000.0001) %MON dynstat_theta_sd             =   1.2996823862822E-03
(PID.TID 0000.0001) %MON dynstat_theta_del2           =   1.3530422437297E-06
(PID.TID 0000.0001) %MON dynstat_salt_max             =   3.4400000000000E+01
(PID.TID 0000.0001) %MON dynstat_salt_min             =   3.4393795163611E+01
(PID.TID 0000.0001) %MON dynstat_salt_mean            =   3.4399886531712E+01
(PID.TID 0000.0001) %MON dynstat_salt_sd              =   5.1649378030876E-04
(PID.TID 0000.0001) %MON dynstat_salt_del2            =   5.3769898765816E-07
(PID.TID 0000.0001) %MON advcfl_uvel_max              =   2.6521484101299E-05
(PID.TID 0000.0001) %MON advcfl_vvel_max              =   2.7023643742127E-05
(PID.TID 0000.0001) %MON advcfl_wvel_max              =   3.2601294617135E-05
(PID.TID 0000.0001) %MON advcfl_W_hf_max              =   4.1800676188486E-05
(PID.TID 0000.0001) %MON pe_b_mean                    =  -1.2479750802465E-08
(PID.TID 0000.0001) %MON ke_max                       =   1.0400443262010E-08
(PID.TID 0000.0001) %MON ke_mean                      =   7.5592937093662E-11
(PID.TID 0000.0001) %MON ke_vol                       =   2.9241705273104E+14
(PID.TID 0000.0001) %MON vort_r_min                   =  -2.8259798652942E-08
(PID.TID 0000.0001) %MON vort_r_max                   =   2.7463873228786E-08
(PID.TID 0000.0001) %MON vort_a_mean                  =  -1.4007437275547E-04
(PID.TID 0000.0001) %MON vort_a_sd                    =   1.7682769221774E-06
(PID.TID 0000.0001) %MON vort_p_mean                  =  -1.5039772192412E-04
(PID.TID 0000.0001) %MON vort_p_sd                    =   8.7080525653452E-05
(PID.TID 0000.0001) %MON surfExpan_theta_mean         =  -7.0512051587240E-12
(PID.TID 0000.0001) %MON surfExpan_salt_mean          =  -2.8021489301030E-12
(PID.TID 0000.0001) // =======================================================
(PID.TID 0000.0001) // End MONITOR dynamic field statistics
(PID.TID 0000.0001) // =======================================================
 cg2d: Sum(rhs),rhsMax =   1.02140518265514E-14  2.77007214057773E-04
(PID.TID 0000.0001)                    cg2d_init_res =    6.02323253642281E+00
(PID.TID 0000.0001)                       cg2d_iters =   208
(PID.TID 0000.0001)                         cg2d_res =    9.50237287218807E-14
(PID.TID 0000.0001) // =======================================================
(PID.TID 0000.0001) // Begin MONITOR dynamic field statistics
(PID.TID 0000.0001) // =======================================================
(PID.TID 0000.0001) %MON time_tsnumber                =                     6
(PID.TID 0000.0001) %MON time_secondsf                =   1.0800000000000E+04
(PID.TID 0000.0001) %MON dynstat_eta_max              =   9.1647588585040E-05
(PID.TID 0000.0001) %MON dynstat_eta_min              =  -3.5241813919678E-05
(PID.TID 0000.0001) %MON dynstat_eta_mean             =   1.2776919941526E-20
(PID.TID 0000.0001) %MON dynstat_eta_sd               =   2.1811940960182E-05
(PID.TID 0000.0001) %MON dynstat_eta_del2             =   7.6459615061775E-07
(PID.TID 0000.0001) %MON dynstat_uvel_max             =   4.4517781107624E-05
(PID.TID 0000.0001) %MON dynstat_uvel_min             =  -1.3695759835293E-04
(PID.TID 0000.0001) %MON dynstat_uvel_mean            =   3.3493329350791E-08
(PID.TID 0000.0001) %MON dynstat_uvel_sd              =   1.0575361392924E-05
(PID.TID 0000.0001) %MON dynstat_uvel_del2            =   4.3839191709566E-08
(PID.TID 0000.0001) %MON dynstat_vvel_max             =   2.2209879759564E-04
(PID.TID 0000.0001) %MON dynstat_vvel_min             =  -4.1904695552564E-05
(PID.TID 0000.0001) %MON dynstat_vvel_mean            =  -1.0847911797539E-06
(PID.TID 0000.0001) %MON dynstat_vvel_sd              =   1.3704416954083E-05
(PID.TID 0000.0001) %MON dynstat_vvel_del2            =   2.7374540538393E-08
(PID.TID 0000.0001) %MON dynstat_wvel_max             =   7.9530069241566E-07
(PID.TID 0000.0001) %MON dynstat_wvel_min             =  -8.1435384982275E-07
(PID.TID 0000.0001) %MON dynstat_wvel_mean            =  -5.1398098115725E-10
(PID.TID 0000.0001) %MON dynstat_wvel_sd              =   4.0124750370830E-08
(PID.TID 0000.0001) %MON dynstat_wvel_del2            =   3.8856420336475E-10
(PID.TID 0000.0001) %MON dynstat_theta_max            =  -1.9000000000000E+00
(PID.TID 0000.0001) %MON dynstat_theta_min            =  -1.9186876758502E+00
(PID.TID 0000.0001) %MON dynstat_theta_mean           =  -1.9003417549818E+00
(PID.TID 0000.0001) %MON dynstat_theta_sd             =   1.5553070296466E-03
(PID.TID 0000.0001) %MON dynstat_theta_del2           =   1.6159183999635E-06
(PID.TID 0000.0001) %MON dynstat_salt_max             =   3.4400000000000E+01
(PID.TID 0000.0001) %MON dynstat_salt_min             =   3.4392573517617E+01
(PID.TID 0000.0001) %MON dynstat_salt_mean            =   3.4399864186572E+01
(PID.TID 0000.0001) %MON dynstat_salt_sd              =   6.1807901358172E-04
(PID.TID 0000.0001) %MON dynstat_salt_del2            =   6.4216597214538E-07
(PID.TID 0000.0001) %MON advcfl_uvel_max              =   4.1537307604003E-05
(PID.TID 0000.0001) %MON advcfl_vvel_max              =   3.5958528613641E-05
(PID.TID 0000.0001) %MON advcfl_wvel_max              =   4.8861230989365E-05
(PID.TID 0000.0001) %MON advcfl_W_hf_max              =   6.2103989947953E-05
(PID.TID 0000.0001) %MON pe_b_mean                    =  -1.7715271569946E-08
(PID.TID 0000.0001) %MON ke_max                       =   2.1118515371560E-08
(PID.TID 0000.0001) %MON ke_mean                      =   1.4816137961820E-10
(PID.TID 0000.0001) %MON ke_vol                       =   2.9241705273104E+14
(PID.TID 0000.0001) %MON vort_r_min                   =  -3.7603396054744E-08
(PID.TID 0000.0001) %MON vort_r_max                   =   3.6479883830123E-08
(PID.TID 0000.0001) %MON vort_a_mean                  =  -1.4007437272301E-04
(PID.TID 0000.0001) %MON vort_a_sd                    =   1.7682767751663E-06
(PID.TID 0000.0001) %MON vort_p_mean                  =  -1.5039772188927E-04
(PID.TID 0000.0001) %MON vort_p_sd                    =   8.7080029761305E-05
(PID.TID 0000.0001) %MON surfExpan_theta_mean         =  -9.3627434955035E-12
(PID.TID 0000.0001) %MON surfExpan_salt_mean          =  -3.7207542649634E-12
(PID.TID 0000.0001) // =======================================================
(PID.TID 0000.0001) // End MONITOR dynamic field statistics
(PID.TID 0000.0001) // =======================================================
 cg2d: Sum(rhs),rhsMax =   3.99680288865056E-15  3.26668825888976E-04
(PID.TID 0000.0001)                    cg2d_init_res =    5.08103008158319E+00
(PID.TID 0000.0001)                       cg2d_iters =   207
(PID.TID 0000.0001)                         cg2d_res =    9.46460381695911E-14
(PID.TID 0000.0001) // =======================================================
(PID.TID 0000.0001) // Begin MONITOR dynamic field statistics
(PID.TID 0000.0001) // =======================================================
(PID.TID 0000.0001) %MON time_tsnumber                =                     7
(PID.TID 0000.0001) %MON time_secondsf                =   1.2600000000000E+04
(PID.TID 0000.0001) %MON dynstat_eta_max              =   1.1212780613810E-04
(PID.TID 0000.0001) %MON dynstat_eta_min              =  -3.8850725744600E-05
(PID.TID 0000.0001) %MON dynstat_eta_mean             =   1.2776919941526E-20
(PID.TID 0000.0001) %MON dynstat_eta_sd               =   2.7019409888264E-05
(PID.TID 0000.0001) %MON dynstat_eta_del2             =   8.9869521501805E-07
(PID.TID 0000.0001) %MON dynstat_uvel_max             =   5.6848526870782E-05
(PID.TID 0000.0001) %MON dynstat_uvel_min             =  -1.9757135133838E-04
(PID.TID 0000.0001) %MON dynstat_uvel_mean            =   1.6123022504317E-08
(PID.TID 0000.0001) %MON dynstat_uvel_sd              =   1.5128435578906E-05
(PID.TID 0000.0001) %MON dynstat_uvel_del2            =   5.4191378181440E-08
(PID.TID 0000.0001) %MON dynstat_vvel_max             =   2.7548793517698E-04
(PID.TID 0000.0001) %MON dynstat_vvel_min             =  -4.9969288950500E-05
(PID.TID 0000.0001) %MON dynstat_vvel_mean            =  -1.1978678292114E-06
(PID.TID 0000.0001) %MON dynstat_vvel_sd              =   1.7063487975543E-05
(PID.TID 0000.0001) %MON dynstat_vvel_del2            =   3.3963824021198E-08
(PID.TID 0000.0001) %MON dynstat_wvel_max             =   1.1224295216343E-06
(PID.TID 0000.0001) %MON dynstat_wvel_min             =  -1.1330593718578E-06
(PID.TID 0000.0001) %MON dynstat_wvel_mean            =  -5.3092112652789E-10
(PID.TID 0000.0001) %MON dynstat_wvel_sd              =   5.2259042108274E-08
(PID.TID 0000.0001) %MON dynstat_wvel_del2            =   4.8517403373037E-10
(PID.TID 0000.0001) %MON dynstat_theta_max            =  -1.9000000000000E+00
(PID.TID 0000.0001) %MON dynstat_theta_min            =  -1.9217464040928E+00
(PID.TID 0000.0001) %MON dynstat_theta_mean           =  -1.9003977058764E+00
(PID.TID 0000.0001) %MON dynstat_theta_sd             =   1.8095687511750E-03
(PID.TID 0000.0001) %MON dynstat_theta_del2           =   1.8763833560099E-06
(PID.TID 0000.0001) %MON dynstat_salt_max             =   3.4400000000000E+01
(PID.TID 0000.0001) %MON dynstat_salt_min             =   3.4391357979014E+01
(PID.TID 0000.0001) %MON dynstat_salt_mean            =   3.4399841951687E+01
(PID.TID 0000.0001) %MON dynstat_salt_sd              =   7.1912262171718E-04
(PID.TID 0000.0001) %MON dynstat_salt_del2            =   7.4567474567824E-07
(PID.TID 0000.0001) %MON advcfl_uvel_max              =   5.9920603843627E-05
(PID.TID 0000.0001) %MON advcfl_vvel_max              =   4.4602406258001E-05
(PID.TID 0000.0001) %MON advcfl_wvel_max              =   6.7983562311470E-05
(PID.TID 0000.0001) %MON advcfl_W_hf_max              =   8.5566980984658E-05
(PID.TID 0000.0001) %MON pe_b_mean                    =  -2.3231984475533E-08
(PID.TID 0000.0001) %MON ke_max                       =   3.7670436215766E-08
(PID.TID 0000.0001) %MON ke_mean                      =   2.5667816620514E-10
(PID.TID 0000.0001) %MON ke_vol                       =   2.9241705273104E+14
(PID.TID 0000.0001) %MON vort_r_min                   =  -4.6642674552539E-08
(PID.TID 0000.0001) %MON vort_r_max                   =   4.5163803378971E-08
(PID.TID 0000.0001) %MON vort_a_mean                  =  -1.4007437267345E-04
(PID.TID 0000.0001) %MON vort_a_sd                    =   1.7682766440057E-06
(PID.TID 0000.0001) %MON vort_p_mean                  =  -1.5039772183606E-04
(PID.TID 0000.0001) %MON vort_p_sd                    =   8.7079395592783E-05
(PID.TID 0000.0001) %MON surfExpan_theta_mean         =  -1.1235269593921E-11
(PID.TID 0000.0001) %MON surfExpan_salt_mean          =  -4.4648961365253E-12
(PID.TID 0000.0001) // =======================================================
(PID.TID 0000.0001) // End MONITOR dynamic field statistics
(PID.TID 0000.0001) // =======================================================
 cg2d: Sum(rhs),rhsMax =   4.44089209850063E-15  3.76430838348810E-04
(PID.TID 0000.0001)                    cg2d_init_res =    4.38626032578042E+00
(PID.TID 0000.0001)                       cg2d_iters =   207
(PID.TID 0000.0001)                         cg2d_res =    9.65512006554630E-14
(PID.TID 0000.0001) // =======================================================
(PID.TID 0000.0001) // Begin MONITOR dynamic field statistics
(PID.TID 0000.0001) // =======================================================
(PID.TID 0000.0001) %MON time_tsnumber                =                     8
(PID.TID 0000.0001) %MON time_secondsf                =   1.4400000000000E+04
(PID.TID 0000.0001) %MON dynstat_eta_max              =   1.3391364450723E-04
(PID.TID 0000.0001) %MON dynstat_eta_min              =  -4.1377690457962E-05
(PID.TID 0000.0001) %MON dynstat_eta_mean             =   2.1294866569211E-21
(PID.TID 0000.0001) %MON dynstat_eta_sd               =   3.2225796081486E-05
(PID.TID 0000.0001) %MON dynstat_eta_del2             =   1.0320980562904E-06
(PID.TID 0000.0001) %MON dynstat_uvel_max             =   6.9637335991255E-05
(PID.TID 0000.0001) %MON dynstat_uvel_min             =  -2.6795621049067E-04
(PID.TID 0000.0001) %MON dynstat_uvel_mean            =  -5.5255421852597E-09
(PID.TID 0000.0001) %MON dynstat_uvel_sd              =   2.0483086250285E-05
(PID.TID 0000.0001) %MON dynstat_uvel_del2            =   6.4960242438270E-08
(PID.TID 0000.0001) %MON dynstat_vvel_max             =   3.2381054801302E-04
(PID.TID 0000.0001) %MON dynstat_vvel_min             =  -5.6730730397373E-05
(PID.TID 0000.0001) %MON dynstat_vvel_mean            =  -1.2242368498361E-06
(PID.TID 0000.0001) %MON dynstat_vvel_sd              =   2.0104496163714E-05
(PID.TID 0000.0001) %MON dynstat_vvel_del2            =   3.9944386410915E-08
(PID.TID 0000.0001) %MON dynstat_wvel_max             =   1.4935545741854E-06
(PID.TID 0000.0001) %MON dynstat_wvel_min             =  -1.4905922430557E-06
(PID.TID 0000.0001) %MON dynstat_wvel_mean            =  -5.1688360357328E-10
(PID.TID 0000.0001) %MON dynstat_wvel_sd              =   6.4983987093367E-08
(PID.TID 0000.0001) %MON dynstat_wvel_del2            =   5.7494816027356E-10
(PID.TID 0000.0001) %MON dynstat_theta_max            =  -1.9000000000000E+00
(PID.TID 0000.0001) %MON dynstat_theta_min            =  -1.9247898557764E+00
(PID.TID 0000.0001) %MON dynstat_theta_mean           =  -1.9004533807711E+00
(PID.TID 0000.0001) %MON dynstat_theta_sd             =   2.0624750590581E-03
(PID.TID 0000.0001) %MON dynstat_theta_del2           =   2.1344629477240E-06
(PID.TID 0000.0001) %MON dynstat_salt_max             =   3.4400000000000E+01
(PID.TID 0000.0001) %MON dynstat_salt_min             =   3.4390148511314E+01
(PID.TID 0000.0001) %MON dynstat_salt_mean            =   3.4399819826484E+01
(PID.TID 0000.0001) %MON dynstat_salt_sd              =   8.1962758846994E-04
(PID.TID 0000.0001) %MON dynstat_salt_del2            =   8.4823557542537E-07
(PID.TID 0000.0001) %MON advcfl_uvel_max              =   8.1267338748682E-05
(PID.TID 0000.0001) %MON advcfl_vvel_max              =   5.2425996818423E-05
(PID.TID 0000.0001) %MON advcfl_wvel_max              =   8.9613274451122E-05
(PID.TID 0000.0001) %MON advcfl_W_hf_max              =   1.1147397704190E-04
(PID.TID 0000.0001) %MON pe_b_mean                    =  -2.8714362916320E-08
(PID.TID 0000.0001) %MON ke_max                       =   6.1034671699368E-08
(PID.TID 0000.0001) %MON ke_mean                      =   4.0595707354398E-10
(PID.TID 0000.0001) %MON ke_vol                       =   2.9241705273104E+14
(PID.TID 0000.0001) %MON vort_r_min                   =  -5.4824143198676E-08
(PID.TID 0000.0001) %MON vort_r_max                   =   5.2979585817090E-08
(PID.TID 0000.0001) %MON vort_a_mean                  =  -1.4007437261193E-04
(PID.TID 0000.0001) %MON vort_a_sd                    =   1.7682765306538E-06
(PID.TID 0000.0001) %MON vort_p_mean                  =  -1.5039772177000E-04
(PID.TID 0000.0001) %MON vort_p_sd                    =   8.7078634445225E-05
(PID.TID 0000.0001) %MON surfExpan_theta_mean         =  -1.2463129032001E-11
(PID.TID 0000.0001) %MON surfExpan_salt_mean          =  -4.9528474772125E-12
(PID.TID 0000.0001) // =======================================================
(PID.TID 0000.0001) // End MONITOR dynamic field statistics
(PID.TID 0000.0001) // =======================================================
 cg2d: Sum(rhs),rhsMax =   7.54951656745106E-15  4.26196671788950E-04
(PID.TID 0000.0001)                    cg2d_init_res =    3.85360869831450E+00
(PID.TID 0000.0001)                       cg2d_iters =   206
(PID.TID 0000.0001)                         cg2d_res =    9.99200954148372E-14
(PID.TID 0000.0001) // =======================================================
(PID.TID 0000.0001) // Begin MONITOR dynamic field statistics
(PID.TID 0000.0001) // =======================================================
(PID.TID 0000.0001) %MON time_tsnumber                =                     9
(PID.TID 0000.0001) %MON time_secondsf                =   1.6200000000000E+04
(PID.TID 0000.0001) %MON dynstat_eta_max              =   1.5505580886797E-04
(PID.TID 0000.0001) %MON dynstat_eta_min              =  -4.3158881340392E-05
(PID.TID 0000.0001) %MON dynstat_eta_mean             =   1.4906406598448E-20
(PID.TID 0000.0001) %MON dynstat_eta_sd               =   3.7239170511667E-05
(PID.TID 0000.0001) %MON dynstat_eta_del2             =   1.1648004995476E-06
(PID.TID 0000.0001) %MON dynstat_uvel_max             =   8.2495600391123E-05
(PID.TID 0000.0001) %MON dynstat_uvel_min             =  -3.4621908771672E-04
(PID.TID 0000.0001) %MON dynstat_uvel_mean            =  -2.7555684285782E-08
(PID.TID 0000.0001) %MON dynstat_uvel_sd              =   2.6507085508985E-05
(PID.TID 0000.0001) %MON dynstat_uvel_del2            =   7.6095034501966E-08
(PID.TID 0000.0001) %MON dynstat_vvel_max             =   3.6434305831400E-04
(PID.TID 0000.0001) %MON dynstat_vvel_min             =  -6.1980474438887E-05
(PID.TID 0000.0001) %MON dynstat_vvel_mean            =  -1.1664567446065E-06
(PID.TID 0000.0001) %MON dynstat_vvel_sd              =   2.2642036548137E-05
(PID.TID 0000.0001) %MON dynstat_vvel_del2            =   4.4989022974826E-08
(PID.TID 0000.0001) %MON dynstat_wvel_max             =   1.8977767151598E-06
(PID.TID 0000.0001) %MON dynstat_wvel_min             =  -1.8760983547604E-06
(PID.TID 0000.0001) %MON dynstat_wvel_mean            =  -4.7774286382000E-10
(PID.TID 0000.0001) %MON dynstat_wvel_sd              =   7.7988122900542E-08
(PID.TID 0000.0001) %MON dynstat_wvel_del2            =   6.5370912437044E-10
(PID.TID 0000.0001) %MON dynstat_theta_max            =  -1.9000000000000E+00
(PID.TID 0000.0001) %MON dynstat_theta_min            =  -1.9278181260015E+00
(PID.TID 0000.0001) %MON dynstat_theta_mean           =  -1.9005087810965E+00
(PID.TID 0000.0001) %MON dynstat_theta_sd             =   2.3140334202715E-03
(PID.TID 0000.0001) %MON dynstat_theta_del2           =   2.3901824667497E-06
(PID.TID 0000.0001) %MON dynstat_salt_max             =   3.4400000000000E+01
(PID.TID 0000.0001) %MON dynstat_salt_min             =   3.4388945076727E+01
(PID.TID 0000.0001) %MON dynstat_salt_mean            =   3.4399797810395E+01
(PID.TID 0000.0001) %MON dynstat_salt_sd              =   9.1959688121614E-04
(PID.TID 0000.0001) %MON dynstat_salt_del2            =   9.4985851228618E-07
(PID.TID 0000.0001) %MON advcfl_uvel_max              =   1.0500336540516E-04
(PID.TID 0000.0001) %MON advcfl_vvel_max              =   5.8988344058565E-05
(PID.TID 0000.0001) %MON advcfl_wvel_max              =   1.1386660290959E-04
(PID.TID 0000.0001) %MON advcfl_W_hf_max              =   1.3898325213672E-04
(PID.TID 0000.0001) %MON pe_b_mean                    =  -3.3879643685618E-08
(PID.TID 0000.0001) %MON ke_max                       =   9.1720702650419E-08
(PID.TID 0000.0001) %MON ke_mean                      =   5.9813296833573E-10
(PID.TID 0000.0001) %MON ke_vol                       =   2.9241705273104E+14
(PID.TID 0000.0001) %MON vort_r_min                   =  -6.1686674893763E-08
(PID.TID 0000.0001) %MON vort_r_max                   =   5.9485907732032E-08
(PID.TID 0000.0001) %MON vort_a_mean                  =  -1.4007437254858E-04
(PID.TID 0000.0001) %MON vort_a_sd                    =   1.7682764181225E-06
(PID.TID 0000.0001) %MON vort_p_mean                  =  -1.5039772170198E-04
(PID.TID 0000.0001) %MON vort_p_sd                    =   8.7077765372487E-05
(PID.TID 0000.0001) %MON surfExpan_theta_mean         =  -1.2936082013700E-11
(PID.TID 0000.0001) %MON surfExpan_salt_mean          =  -5.1407989921977E-12
(PID.TID 0000.0001) // =======================================================
(PID.TID 0000.0001) // End MONITOR dynamic field statistics
(PID.TID 0000.0001) // =======================================================
 cg2d: Sum(rhs),rhsMax =   3.46389583683049E-14  4.75846068969979E-04
(PID.TID 0000.0001)                    cg2d_init_res =    3.43310022058675E+00
(PID.TID 0000.0001)                       cg2d_iters =   206
(PID.TID 0000.0001)                         cg2d_res =    8.03322635938886E-14
(PID.TID 0000.0001) // =======================================================
(PID.TID 0000.0001) // Begin MONITOR dynamic field statistics
(PID.TID 0000.0001) // =======================================================
(PID.TID 0000.0001) %MON time_tsnumber                =                    10
(PID.TID 0000.0001) %MON time_secondsf                =   1.8000000000000E+04
(PID.TID 0000.0001) %MON dynstat_eta_max              =   1.7501183743012E-04
(PID.TID 0000.0001) %MON dynstat_eta_min              =  -4.5595090577440E-05
(PID.TID 0000.0001) %MON dynstat_eta_mean             =  -6.3884599707632E-21
(PID.TID 0000.0001) %MON dynstat_eta_sd               =   4.1895787772795E-05
(PID.TID 0000.0001) %MON dynstat_eta_del2             =   1.2967980581393E-06
(PID.TID 0000.0001) %MON dynstat_uvel_max             =   9.5007439325460E-05
(PID.TID 0000.0001) %MON dynstat_uvel_min             =  -4.3016295171707E-04
(PID.TID 0000.0001) %MON dynstat_uvel_mean            =  -4.6097503230555E-08
(PID.TID 0000.0001) %MON dynstat_uvel_sd              =   3.3028098521228E-05
(PID.TID 0000.0001) %MON dynstat_uvel_del2            =   8.7529946331784E-08
(PID.TID 0000.0001) %MON dynstat_vvel_max             =   3.9505420428389E-04
(PID.TID 0000.0001) %MON dynstat_vvel_min             =  -6.7385278688554E-05
(PID.TID 0000.0001) %MON dynstat_vvel_mean            =  -1.0386824458055E-06
(PID.TID 0000.0001) %MON dynstat_vvel_sd              =   2.4532757141651E-05
(PID.TID 0000.0001) %MON dynstat_vvel_del2            =   4.8854882338591E-08
(PID.TID 0000.0001) %MON dynstat_wvel_max             =   2.3226694381152E-06
(PID.TID 0000.0001) %MON dynstat_wvel_min             =  -2.2775912289625E-06
(PID.TID 0000.0001) %MON dynstat_wvel_mean            =  -4.2007089825326E-10
(PID.TID 0000.0001) %MON dynstat_wvel_sd              =   9.0987735559147E-08
(PID.TID 0000.0001) %MON dynstat_wvel_del2            =   7.1849903508809E-10
(PID.TID 0000.0001) %MON dynstat_theta_max            =  -1.9000000000000E+00
(PID.TID 0000.0001) %MON dynstat_theta_min            =  -1.9308313126020E+00
(PID.TID 0000.0001) %MON dynstat_theta_mean           =  -1.9005639082762E+00
(PID.TID 0000.0001) %MON dynstat_theta_sd             =   2.5642512593820E-03
(PID.TID 0000.0001) %MON dynstat_theta_del2           =   2.6435666408835E-06
(PID.TID 0000.0001) %MON dynstat_salt_max             =   3.4400000000000E+01
(PID.TID 0000.0001) %MON dynstat_salt_min             =   3.4387747636372E+01
(PID.TID 0000.0001) %MON dynstat_salt_mean            =   3.4399775902853E+01
(PID.TID 0000.0001) %MON dynstat_salt_sd              =   1.0190334504785E-03
(PID.TID 0000.0001) %MON dynstat_salt_del2            =   1.0505533830870E-06
(PID.TID 0000.0001) %MON advcfl_uvel_max              =   1.3046235521211E-04
(PID.TID 0000.0001) %MON advcfl_vvel_max              =   6.3960579987219E-05
(PID.TID 0000.0001) %MON advcfl_wvel_max              =   1.3936016628691E-04
(PID.TID 0000.0001) %MON advcfl_W_hf_max              =   1.6719634979093E-04
(PID.TID 0000.0001) %MON pe_b_mean                    =  -3.8504832019395E-08
(PID.TID 0000.0001) %MON ke_max                       =   1.2966160978088E-07
(PID.TID 0000.0001) %MON ke_mean                      =   8.3222059053004E-10
(PID.TID 0000.0001) %MON ke_vol                       =   2.9241705273104E+14
(PID.TID 0000.0001) %MON vort_r_min                   =  -6.6886358087471E-08
(PID.TID 0000.0001) %MON vort_r_max                   =   6.4358132882338E-08
(PID.TID 0000.0001) %MON vort_a_mean                  =  -1.4007437249512E-04
(PID.TID 0000.0001) %MON vort_a_sd                    =   1.7682762807777E-06
(PID.TID 0000.0001) %MON vort_p_mean                  =  -1.5039772164458E-04
(PID.TID 0000.0001) %MON vort_p_sd                    =   8.7076813593141E-05
(PID.TID 0000.0001) %MON surfExpan_theta_mean         =  -1.2633891630110E-11
(PID.TID 0000.0001) %MON surfExpan_salt_mean          =  -5.0207085338386E-12
(PID.TID 0000.0001) // =======================================================
(PID.TID 0000.0001) // End MONITOR dynamic field statistics
(PID.TID 0000.0001) // =======================================================
 cg2d: Sum(rhs),rhsMax =   2.17603712826531E-14  5.25252230885729E-04
(PID.TID 0000.0001)                    cg2d_init_res =    3.09341762516370E+00
(PID.TID 0000.0001)                       cg2d_iters =   205
(PID.TID 0000.0001)                         cg2d_res =    8.78402979826218E-14
(PID.TID 0000.0001) // =======================================================
(PID.TID 0000.0001) // Begin MONITOR dynamic field statistics
(PID.TID 0000.0001) // =======================================================
(PID.TID 0000.0001) %MON time_tsnumber                =                    11
(PID.TID 0000.0001) %MON time_secondsf                =   1.9800000000000E+04
(PID.TID 0000.0001) %MON dynstat_eta_max              =   1.9342559920696E-04
(PID.TID 0000.0001) %MON dynstat_eta_min              =  -5.2276259931895E-05
(PID.TID 0000.0001) %MON dynstat_eta_mean             =  -2.5553839883053E-20
(PID.TID 0000.0001) %MON dynstat_eta_sd               =   4.6082758587475E-05
(PID.TID 0000.0001) %MON dynstat_eta_del2             =   1.4280866593613E-06
(PID.TID 0000.0001) %MON dynstat_uvel_max             =   1.0683781217837E-04
(PID.TID 0000.0001) %MON dynstat_uvel_min             =  -5.1705001798250E-04
(PID.TID 0000.0001) %MON dynstat_uvel_mean            =  -5.7996949997506E-08
(PID.TID 0000.0001) %MON dynstat_uvel_sd              =   3.9847460081042E-05
(PID.TID 0000.0001) %MON dynstat_uvel_del2            =   9.9167142998796E-08
(PID.TID 0000.0001) %MON dynstat_vvel_max             =   4.1469247459072E-04
(PID.TID 0000.0001) %MON dynstat_vvel_min             =  -7.1151126271497E-05
(PID.TID 0000.0001) %MON dynstat_vvel_mean            =  -8.6285124435564E-07
(PID.TID 0000.0001) %MON dynstat_vvel_sd              =   2.5682866829233E-05
(PID.TID 0000.0001) %MON dynstat_vvel_del2            =   5.1393339371084E-08
(PID.TID 0000.0001) %MON dynstat_wvel_max             =   2.7552552015180E-06
(PID.TID 0000.0001) %MON dynstat_wvel_min             =  -2.6828103259599E-06
(PID.TID 0000.0001) %MON dynstat_wvel_mean            =  -3.5080267523000E-10
(PID.TID 0000.0001) %MON dynstat_wvel_sd              =   1.0373176163219E-07
(PID.TID 0000.0001) %MON dynstat_wvel_del2            =   7.6770456675868E-10
(PID.TID 0000.0001) %MON dynstat_theta_max            =  -1.9000000000000E+00
(PID.TID 0000.0001) %MON dynstat_theta_min            =  -1.9338295152602E+00
(PID.TID 0000.0001) %MON dynstat_theta_mean           =  -1.9006187637259E+00
(PID.TID 0000.0001) %MON dynstat_theta_sd             =   2.8131359575999E-03
(PID.TID 0000.0001) %MON dynstat_theta_del2           =   2.8946396418531E-06
(PID.TID 0000.0001) %MON dynstat_salt_max             =   3.4400000000000E+01
(PID.TID 0000.0001) %MON dynstat_salt_min             =   3.4386556150636E+01
(PID.TID 0000.0001) %MON dynstat_salt_mean            =   3.4399754103298E+01
(PID.TID 0000.0001) %MON dynstat_salt_sd              =   1.1179402295502E-03
(PID.TID 0000.0001) %MON dynstat_salt_del2            =   1.1503297936723E-06
(PID.TID 0000.0001) %MON advcfl_uvel_max              =   1.5681397674811E-04
(PID.TID 0000.0001) %MON advcfl_vvel_max              =   6.7140080787743E-05
(PID.TID 0000.0001) %MON advcfl_wvel_max              =   1.6531531209108E-04
(PID.TID 0000.0001) %MON advcfl_W_hf_max              =   1.9522965692081E-04
(PID.TID 0000.0001) %MON pe_b_mean                    =  -4.2442589448394E-08
(PID.TID 0000.0001) %MON ke_max                       =   1.7417048952711E-07
(PID.TID 0000.0001) %MON ke_mean                      =   1.1040045609912E-09
(PID.TID 0000.0001) %MON ke_vol                       =   2.9241705273104E+14
(PID.TID 0000.0001) %MON vort_r_min                   =  -7.0211300249124E-08
(PID.TID 0000.0001) %MON vort_r_max                   =   6.7400982643116E-08
(PID.TID 0000.0001) %MON vort_a_mean                  =  -1.4007437246125E-04
(PID.TID 0000.0001) %MON vort_a_sd                    =   1.7682760986804E-06
(PID.TID 0000.0001) %MON vort_p_mean                  =  -1.5039772160822E-04
(PID.TID 0000.0001) %MON vort_p_sd                    =   8.7075808602681E-05
(PID.TID 0000.0001) %MON surfExpan_theta_mean         =  -1.1624233901495E-11
(PID.TID 0000.0001) %MON surfExpan_salt_mean          =  -4.6194705524940E-12
(PID.TID 0000.0001) // =======================================================
(PID.TID 0000.0001) // End MONITOR dynamic field statistics
(PID.TID 0000.0001) // =======================================================
 cg2d: Sum(rhs),rhsMax =   4.84057238736568E-14  5.74292676550283E-04
(PID.TID 0000.0001)                    cg2d_init_res =    2.81389002065325E+00
(PID.TID 0000.0001)                       cg2d_iters =   205
(PID.TID 0000.0001)                         cg2d_res =    9.48544951062199E-14
(PID.TID 0000.0001) // =======================================================
(PID.TID 0000.0001) // Begin MONITOR dynamic field statistics
(PID.TID 0000.0001) // =======================================================
(PID.TID 0000.0001) %MON time_tsnumber                =                    12
(PID.TID 0000.0001) %MON time_secondsf                =   2.1600000000000E+04
(PID.TID 0000.0001) %MON dynstat_eta_max              =   2.1011266121724E-04
(PID.TID 0000.0001) %MON dynstat_eta_min              =  -5.9912122408210E-05
(PID.TID 0000.0001) %MON dynstat_eta_mean             =   6.3884599707632E-21
(PID.TID 0000.0001) %MON dynstat_eta_sd               =   4.9751653900561E-05
(PID.TID 0000.0001) %MON dynstat_eta_del2             =   1.5586631245623E-06
(PID.TID 0000.0001) %MON dynstat_uvel_max             =   1.1768620984142E-04
(PID.TID 0000.0001) %MON dynstat_uvel_min             =  -6.0422450673608E-04
(PID.TID 0000.0001) %MON dynstat_uvel_mean            =  -6.1389912054672E-08
(PID.TID 0000.0001) %MON dynstat_uvel_sd              =   4.6754762015053E-05
(PID.TID 0000.0001) %MON dynstat_uvel_del2            =   1.1087024653948E-07
(PID.TID 0000.0001) %MON dynstat_vvel_max             =   4.2281529227225E-04
(PID.TID 0000.0001) %MON dynstat_vvel_min             =  -7.3196563125951E-05
(PID.TID 0000.0001) %MON dynstat_vvel_mean            =  -6.6440213241129E-07
(PID.TID 0000.0001) %MON dynstat_vvel_sd              =   2.6051988555552E-05
(PID.TID 0000.0001) %MON dynstat_vvel_del2            =   5.2553145252654E-08
(PID.TID 0000.0001) %MON dynstat_wvel_max             =   3.1829278350837E-06
(PID.TID 0000.0001) %MON dynstat_wvel_min             =  -3.0800335893844E-06
(PID.TID 0000.0001) %MON dynstat_wvel_mean            =  -2.7708378376800E-10
(PID.TID 0000.0001) %MON dynstat_wvel_sd              =   1.1600457437182E-07
(PID.TID 0000.0001) %MON dynstat_wvel_del2            =   8.0108362467920E-10
(PID.TID 0000.0001) %MON dynstat_theta_max            =  -1.9000000000000E+00
(PID.TID 0000.0001) %MON dynstat_theta_min            =  -1.9368128344058E+00
(PID.TID 0000.0001) %MON dynstat_theta_mean           =  -1.9006733488537E+00
(PID.TID 0000.0001) %MON dynstat_theta_sd             =   3.0606948517750E-03
(PID.TID 0000.0001) %MON dynstat_theta_del2           =   3.1434251190402E-06
(PID.TID 0000.0001) %MON dynstat_salt_max             =   3.4400000000000E+01
(PID.TID 0000.0001) %MON dynstat_salt_min             =   3.4385370579607E+01
(PID.TID 0000.0001) %MON dynstat_salt_mean            =   3.4399732411168E+01
(PID.TID 0000.0001) %MON dynstat_salt_sd              =   1.2163201340956E-03
(PID.TID 0000.0001) %MON dynstat_salt_del2            =   1.2491971423064E-06
(PID.TID 0000.0001) %MON advcfl_uvel_max              =   1.8325276947028E-04
(PID.TID 0000.0001) %MON advcfl_vvel_max              =   6.8455191788732E-05
(PID.TID 0000.0001) %MON advcfl_wvel_max              =   1.9097567010502E-04
(PID.TID 0000.0001) %MON advcfl_W_hf_max              =   2.2227714257977E-04
(PID.TID 0000.0001) %MON pe_b_mean                    =  -4.5627986059060E-08
(PID.TID 0000.0001) %MON ke_max                       =   2.2518335523621E-07
(PID.TID 0000.0001) %MON ke_mean                      =   1.4062808955365E-09
(PID.TID 0000.0001) %MON ke_vol                       =   2.9241705273104E+14
(PID.TID 0000.0001) %MON vort_r_min                   =  -7.1586568974868E-08
(PID.TID 0000.0001) %MON vort_r_max                   =   6.8551946843630E-08
(PID.TID 0000.0001) %MON vort_a_mean                  =  -1.4007437245234E-04
(PID.TID 0000.0001) %MON vort_a_sd                    =   1.7682758672257E-06
(PID.TID 0000.0001) %MON vort_p_mean                  =  -1.5039772159864E-04
(PID.TID 0000.0001) %MON vort_p_sd                    =   8.7074782084256E-05
(PID.TID 0000.0001) %MON surfExpan_theta_mean         =  -1.0061637401251E-11
(PID.TID 0000.0001) %MON surfExpan_salt_mean          =  -3.9984947032193E-12
(PID.TID 0000.0001) // =======================================================
(PID.TID 0000.0001) // End MONITOR dynamic field statistics
(PID.TID 0000.0001) // =======================================================
 cg2d: Sum(rhs),rhsMax =  -4.66293670342566E-14  6.22854752773807E-04
(PID.TID 0000.0001)                    cg2d_init_res =    2.58030713536841E+00
(PID.TID 0000.0001)                       cg2d_iters =   205
(PID.TID 0000.0001)                         cg2d_res =    8.21263861724405E-14
(PID.TID 0000.0001) // =======================================================
(PID.TID 0000.0001) // Begin MONITOR dynamic field statistics
(PID.TID 0000.0001) // =======================================================
(PID.TID 0000.0001) %MON time_tsnumber                =                    13
(PID.TID 0000.0001) %MON time_secondsf                =   2.3400000000000E+04
(PID.TID 0000.0001) %MON dynstat_eta_max              =   2.2503682579380E-04
(PID.TID 0000.0001) %MON dynstat_eta_min              =  -6.8360625676629E-05
(PID.TID 0000.0001) %MON dynstat_eta_mean             =  -4.8978193109185E-20
(PID.TID 0000.0001) %MON dynstat_eta_sd               =   5.2920020460482E-05
(PID.TID 0000.0001) %MON dynstat_eta_del2             =   1.6885255400782E-06
(PID.TID 0000.0001) %MON dynstat_uvel_max             =   1.2733346739694E-04
(PID.TID 0000.0001) %MON dynstat_uvel_min             =  -6.9518674627696E-04
(PID.TID 0000.0001) %MON dynstat_uvel_mean            =  -5.5936758016990E-08
(PID.TID 0000.0001) %MON dynstat_uvel_sd              =   5.3542396691900E-05
(PID.TID 0000.0001) %MON dynstat_uvel_del2            =   1.2246841690891E-07
(PID.TID 0000.0001) %MON dynstat_vvel_max             =   4.1976368561894E-04
(PID.TID 0000.0001) %MON dynstat_vvel_min             =  -7.3549460315730E-05
(PID.TID 0000.0001) %MON dynstat_vvel_mean            =  -4.6836376229136E-07
(PID.TID 0000.0001) %MON dynstat_vvel_sd              =   2.5653334577951E-05
(PID.TID 0000.0001) %MON dynstat_vvel_del2            =   5.2377125655065E-08
(PID.TID 0000.0001) %MON dynstat_wvel_max             =   3.5942563301536E-06
(PID.TID 0000.0001) %MON dynstat_wvel_min             =  -3.4587926650951E-06
(PID.TID 0000.0001) %MON dynstat_wvel_mean            =  -2.0601187647855E-10
(PID.TID 0000.0001) %MON dynstat_wvel_sd              =   1.2762694996853E-07
(PID.TID 0000.0001) %MON dynstat_wvel_del2            =   8.1969208947746E-10
(PID.TID 0000.0001) %MON dynstat_theta_max            =  -1.9000000000000E+00
(PID.TID 0000.0001) %MON dynstat_theta_min            =  -1.9397813700048E+00
(PID.TID 0000.0001) %MON dynstat_theta_mean           =  -1.9007276650598E+00
(PID.TID 0000.0001) %MON dynstat_theta_sd             =   3.3069352332913E-03
(PID.TID 0000.0001) %MON dynstat_theta_del2           =   3.3899462556380E-06
(PID.TID 0000.0001) %MON dynstat_salt_max             =   3.4400000000000E+01
(PID.TID 0000.0001) %MON dynstat_salt_min             =   3.4384190883560E+01
(PID.TID 0000.0001) %MON dynstat_salt_mean            =   3.4399710825908E+01
(PID.TID 0000.0001) %MON dynstat_salt_sd              =   1.3141760617099E-03
(PID.TID 0000.0001) %MON dynstat_salt_del2            =   1.3471646419904E-06
(PID.TID 0000.0001) %MON advcfl_uvel_max              =   2.0900644122170E-04
(PID.TID 0000.0001) %MON advcfl_vvel_max              =   6.7961126596357E-05
(PID.TID 0000.0001) %MON advcfl_wvel_max              =   2.1565537980921E-04
(PID.TID 0000.0001) %MON advcfl_W_hf_max              =   2.4765961954733E-04
(PID.TID 0000.0001) %MON pe_b_mean                    =  -4.8077467833126E-08
(PID.TID 0000.0001) %MON ke_max                       =   2.8485275226320E-07
(PID.TID 0000.0001) %MON ke_mean                      =   1.7294293034392E-09
(PID.TID 0000.0001) %MON ke_vol                       =   2.9241705273104E+14
(PID.TID 0000.0001) %MON vort_r_min                   =  -7.1069903532148E-08
(PID.TID 0000.0001) %MON vort_r_max                   =   6.7875923853918E-08
(PID.TID 0000.0001) %MON vort_a_mean                  =  -1.4007437246879E-04
(PID.TID 0000.0001) %MON vort_a_sd                    =   1.7682755947160E-06
(PID.TID 0000.0001) %MON vort_p_mean                  =  -1.5039772161631E-04
(PID.TID 0000.0001) %MON vort_p_sd                    =   8.7073765753760E-05
(PID.TID 0000.0001) %MON surfExpan_theta_mean         =  -8.1799598080629E-12
(PID.TID 0000.0001) %MON surfExpan_salt_mean          =  -3.2507160277371E-12
(PID.TID 0000.0001) // =======================================================
(PID.TID 0000.0001) // End MONITOR dynamic field statistics
(PID.TID 0000.0001) // =======================================================
 cg2d: Sum(rhs),rhsMax =  -2.22044604925031E-14  6.70838868106174E-04
(PID.TID 0000.0001)                    cg2d_init_res =    2.38257197648118E+00
(PID.TID 0000.0001)                       cg2d_iters =   203
(PID.TID 0000.0001)                         cg2d_res =    9.52165062213533E-14
(PID.TID 0000.0001) // =======================================================
(PID.TID 0000.0001) // Begin MONITOR dynamic field statistics
(PID.TID 0000.0001) // =======================================================
(PID.TID 0000.0001) %MON time_tsnumber                =                    14
(PID.TID 0000.0001) %MON time_secondsf                =   2.5200000000000E+04
(PID.TID 0000.0001) %MON dynstat_eta_max              =   2.3829090593054E-04
(PID.TID 0000.0001) %MON dynstat_eta_min              =  -7.7385521882431E-05
(PID.TID 0000.0001) %MON dynstat_eta_mean             =  -1.4906406598448E-20
(PID.TID 0000.0001) %MON dynstat_eta_sd               =   5.5662135771121E-05
(PID.TID 0000.0001) %MON dynstat_eta_del2             =   1.8176735248663E-06
(PID.TID 0000.0001) %MON dynstat_uvel_max             =   1.3564367293496E-04
(PID.TID 0000.0001) %MON dynstat_uvel_min             =  -7.8535371290973E-04
(PID.TID 0000.0001) %MON dynstat_uvel_mean            =  -4.2667706818549E-08
(PID.TID 0000.0001) %MON dynstat_uvel_sd              =   6.0019162307031E-05
(PID.TID 0000.0001) %MON dynstat_uvel_del2            =   1.3376901504746E-07
(PID.TID 0000.0001) %MON dynstat_vvel_max             =   4.0658841098405E-04
(PID.TID 0000.0001) %MON dynstat_vvel_min             =  -7.2341760496690E-05
(PID.TID 0000.0001) %MON dynstat_vvel_mean            =  -2.9629282038388E-07
(PID.TID 0000.0001) %MON dynstat_vvel_sd              =   2.4550399553495E-05
(PID.TID 0000.0001) %MON dynstat_vvel_del2            =   5.0993082872614E-08
(PID.TID 0000.0001) %MON dynstat_wvel_max             =   3.9796375344700E-06
(PID.TID 0000.0001) %MON dynstat_wvel_min             =  -3.8104545697434E-06
(PID.TID 0000.0001) %MON dynstat_wvel_mean            =  -1.4417455358124E-10
(PID.TID 0000.0001) %MON dynstat_wvel_sd              =   1.3845593164586E-07
(PID.TID 0000.0001) %MON dynstat_wvel_del2            =   8.2571120963007E-10
(PID.TID 0000.0001) %MON dynstat_theta_max            =  -1.9000000000000E+00
(PID.TID 0000.0001) %MON dynstat_theta_min            =  -1.9427352203384E+00
(PID.TID 0000.0001) %MON dynstat_theta_mean           =  -1.9007817137361E+00
(PID.TID 0000.0001) %MON dynstat_theta_sd             =   3.5518643470662E-03
(PID.TID 0000.0001) %MON dynstat_theta_del2           =   3.6342258418598E-06
(PID.TID 0000.0001) %MON dynstat_salt_max             =   3.4400000000000E+01
(PID.TID 0000.0001) %MON dynstat_salt_min             =   3.4383017023438E+01
(PID.TID 0000.0001) %MON dynstat_salt_mean            =   3.4399689346964E+01
(PID.TID 0000.0001) %MON dynstat_salt_sd              =   1.4115108915241E-03
(PID.TID 0000.0001) %MON dynstat_salt_del2            =   1.4442413495550E-06
(PID.TID 0000.0001) %MON advcfl_uvel_max              =   2.3367732315854E-04
(PID.TID 0000.0001) %MON advcfl_vvel_max              =   6.5828006133392E-05
(PID.TID 0000.0001) %MON advcfl_wvel_max              =   2.3877825206820E-04
(PID.TID 0000.0001) %MON advcfl_W_hf_max              =   2.7085964242897E-04
(PID.TID 0000.0001) %MON pe_b_mean                    =  -4.9880539818222E-08
(PID.TID 0000.0001) %MON ke_max                       =   3.4826372013174E-07
(PID.TID 0000.0001) %MON ke_mean                      =   2.0622540606974E-09
(PID.TID 0000.0001) %MON ke_vol                       =   2.9241705273104E+14
(PID.TID 0000.0001) %MON vort_r_min                   =  -6.8839206763011E-08
(PID.TID 0000.0001) %MON vort_r_max                   =   6.5552156814882E-08
(PID.TID 0000.0001) %MON vort_a_mean                  =  -1.4007437250683E-04
(PID.TID 0000.0001) %MON vort_a_sd                    =   1.7682753006925E-06
(PID.TID 0000.0001) %MON vort_p_mean                  =  -1.5039772165715E-04
(PID.TID 0000.0001) %MON vort_p_sd                    =   8.7072789294739E-05
(PID.TID 0000.0001) %MON surfExpan_theta_mean         =  -6.2721930887490E-12
(PID.TID 0000.0001) %MON surfExpan_salt_mean          =  -2.4925695334309E-12
(PID.TID 0000.0001) // =======================================================
(PID.TID 0000.0001) // End MONITOR dynamic field statistics
(PID.TID 0000.0001) // =======================================================
 cg2d: Sum(rhs),rhsMax =  -2.66453525910038E-14  7.19381689442840E-04
(PID.TID 0000.0001)                    cg2d_init_res =    2.20955267287341E+00
(PID.TID 0000.0001)                       cg2d_iters =   202
(PID.TID 0000.0001)                         cg2d_res =    9.80209891008035E-14
(PID.TID 0000.0001) // =======================================================
(PID.TID 0000.0001) // Begin MONITOR dynamic field statistics
(PID.TID 0000.0001) // =======================================================
(PID.TID 0000.0001) %MON time_tsnumber                =                    15
(PID.TID 0000.0001) %MON time_secondsf                =   2.7000000000000E+04
(PID.TID 0000.0001) %MON dynstat_eta_max              =   2.5008185778958E-04
(PID.TID 0000.0001) %MON dynstat_eta_min              =  -8.6665218098095E-05
(PID.TID 0000.0001) %MON dynstat_eta_mean             =  -1.9165379912290E-20
(PID.TID 0000.0001) %MON dynstat_eta_sd               =   5.8092398014017E-05
(PID.TID 0000.0001) %MON dynstat_eta_del2             =   1.9461083858759E-06
(PID.TID 0000.0001) %MON dynstat_uvel_max             =   1.4257197858430E-04
(PID.TID 0000.0001) %MON dynstat_uvel_min             =  -8.7087292595047E-04
(PID.TID 0000.0001) %MON dynstat_uvel_mean            =  -2.3561202633051E-08
(PID.TID 0000.0001) %MON dynstat_uvel_sd              =   6.6022110249911E-05
(PID.TID 0000.0001) %MON dynstat_uvel_del2            =   1.4457569360285E-07
(PID.TID 0000.0001) %MON dynstat_vvel_max             =   3.8493555178453E-04
(PID.TID 0000.0001) %MON dynstat_vvel_min             =  -6.9787828805048E-05
(PID.TID 0000.0001) %MON dynstat_vvel_mean            =  -1.6426348274709E-07
(PID.TID 0000.0001) %MON dynstat_vvel_sd              =   2.2850575215567E-05
(PID.TID 0000.0001) %MON dynstat_vvel_del2            =   4.8599857515789E-08
(PID.TID 0000.0001) %MON dynstat_wvel_max             =   4.3317783048276E-06
(PID.TID 0000.0001) %MON dynstat_wvel_min             =  -4.1286471557693E-06
(PID.TID 0000.0001) %MON dynstat_wvel_mean            =  -9.7050295034742E-11
(PID.TID 0000.0001) %MON dynstat_wvel_sd              =   1.4838452217854E-07
(PID.TID 0000.0001) %MON dynstat_wvel_del2            =   8.2217793169292E-10
(PID.TID 0000.0001) %MON dynstat_theta_max            =  -1.9000000000000E+00
(PID.TID 0000.0001) %MON dynstat_theta_min            =  -1.9456744808699E+00
(PID.TID 0000.0001) %MON dynstat_theta_mean           =  -1.9008354962662E+00
(PID.TID 0000.0001) %MON dynstat_theta_sd             =   3.7954893909695E-03
(PID.TID 0000.0001) %MON dynstat_theta_del2           =   3.8762863584427E-06
(PID.TID 0000.0001) %MON dynstat_salt_max             =   3.4400000000000E+01
(PID.TID 0000.0001) %MON dynstat_salt_min             =   3.4381848961302E+01
(PID.TID 0000.0001) %MON dynstat_salt_mean            =   3.4399667973786E+01
(PID.TID 0000.0001) %MON dynstat_salt_sd              =   1.5083274839715E-03
(PID.TID 0000.0001) %MON dynstat_salt_del2            =   1.5404361988450E-06
(PID.TID 0000.0001) %MON advcfl_uvel_max              =   2.5912305602195E-04
(PID.TID 0000.0001) %MON advcfl_vvel_max              =   6.2322336739761E-05
(PID.TID 0000.0001) %MON advcfl_wvel_max              =   2.5990669828966E-04
(PID.TID 0000.0001) %MON advcfl_W_hf_max              =   2.9154230490370E-04
(PID.TID 0000.0001) %MON pe_b_mean                    =  -5.1184883654195E-08
(PID.TID 0000.0001) %MON ke_max                       =   4.1304452030588E-07
(PID.TID 0000.0001) %MON ke_mean                      =   2.3929994420292E-09
(PID.TID 0000.0001) %MON ke_vol                       =   2.9241705273104E+14
(PID.TID 0000.0001) %MON vort_r_min                   =  -6.5173175928933E-08
(PID.TID 0000.0001) %MON vort_r_max                   =   6.1854909602186E-08
(PID.TID 0000.0001) %MON vort_a_mean                  =  -1.4007437255984E-04
(PID.TID 0000.0001) %MON vort_a_sd                    =   1.7682750106247E-06
(PID.TID 0000.0001) %MON vort_p_mean                  =  -1.5039772171407E-04
(PID.TID 0000.0001) %MON vort_p_sd                    =   8.7071878528668E-05
(PID.TID 0000.0001) %MON surfExpan_theta_mean         =  -4.6564756312898E-12
(PID.TID 0000.0001) %MON surfExpan_salt_mean          =  -1.8504834158824E-12
(PID.TID 0000.0001) // =======================================================
(PID.TID 0000.0001) // End MONITOR dynamic field statistics
(PID.TID 0000.0001) // =======================================================
 cg2d: Sum(rhs),rhsMax =  -1.68753899743024E-14  7.67672223658575E-04
(PID.TID 0000.0001)                    cg2d_init_res =    2.05914225095240E+00
(PID.TID 0000.0001)                       cg2d_iters =   202
(PID.TID 0000.0001)                         cg2d_res =    8.83732712237185E-14
(PID.TID 0000.0001) // =======================================================
(PID.TID 0000.0001) // Begin MONITOR dynamic field statistics
(PID.TID 0000.0001) // =======================================================
(PID.TID 0000.0001) %MON time_tsnumber                =                    16
(PID.TID 0000.0001) %MON time_secondsf                =   2.8800000000000E+04
(PID.TID 0000.0001) %MON dynstat_eta_max              =   2.6071373771631E-04
(PID.TID 0000.0001) %MON dynstat_eta_min              =  -9.5827601165018E-05
(PID.TID 0000.0001) %MON dynstat_eta_mean             =   1.2776919941526E-20
(PID.TID 0000.0001) %MON dynstat_eta_sd               =   6.0345397649220E-05
(PID.TID 0000.0001) %MON dynstat_eta_del2             =   2.0738331609070E-06
(PID.TID 0000.0001) %MON dynstat_uvel_max             =   1.4819497938841E-04
(PID.TID 0000.0001) %MON dynstat_uvel_min             =  -9.4877300729359E-04
(PID.TID 0000.0001) %MON dynstat_uvel_mean            =  -1.0434615319184E-09
(PID.TID 0000.0001) %MON dynstat_uvel_sd              =   7.1425956911889E-05
(PID.TID 0000.0001) %MON dynstat_uvel_del2            =   1.5470856508217E-07
(PID.TID 0000.0001) %MON dynstat_vvel_max             =   3.5690140184504E-04
(PID.TID 0000.0001) %MON dynstat_vvel_min             =  -6.6552625005969E-05
(PID.TID 0000.0001) %MON dynstat_vvel_mean            =  -8.1912324569865E-08
(PID.TID 0000.0001) %MON dynstat_vvel_sd              =   2.0696272077161E-05
(PID.TID 0000.0001) %MON dynstat_vvel_del2            =   4.5449696511651E-08
(PID.TID 0000.0001) %MON dynstat_wvel_max             =   4.6459948615971E-06
(PID.TID 0000.0001) %MON dynstat_wvel_min             =  -4.4095153660677E-06
(PID.TID 0000.0001) %MON dynstat_wvel_mean            =  -6.8427305299042E-11
(PID.TID 0000.0001) %MON dynstat_wvel_sd              =   1.5734199914332E-07
(PID.TID 0000.0001) %MON dynstat_wvel_del2            =   8.1262533105456E-10
(PID.TID 0000.0001) %MON dynstat_theta_max            =  -1.9000000000000E+00
(PID.TID 0000.0001) %MON dynstat_theta_min            =  -1.9485992432959E+00
(PID.TID 0000.0001) %MON dynstat_theta_mean           =  -1.9008890140258E+00
(PID.TID 0000.0001) %MON dynstat_theta_sd             =   4.0378175159522E-03
(PID.TID 0000.0001) %MON dynstat_theta_del2           =   4.1161500629767E-06
(PID.TID 0000.0001) %MON dynstat_salt_max             =   3.4400000000000E+01
(PID.TID 0000.0001) %MON dynstat_salt_min             =   3.4380686660714E+01
(PID.TID 0000.0001) %MON dynstat_salt_mean            =   3.4399646705828E+01
(PID.TID 0000.0001) %MON dynstat_salt_sd              =   1.6046286808397E-03
(PID.TID 0000.0001) %MON dynstat_salt_del2            =   1.6357580350268E-06
(PID.TID 0000.0001) %MON advcfl_uvel_max              =   2.8230176159481E-04
(PID.TID 0000.0001) %MON advcfl_vvel_max              =   5.7783515306817E-05
(PID.TID 0000.0001) %MON advcfl_wvel_max              =   2.7875969169583E-04
(PID.TID 0000.0001) %MON advcfl_W_hf_max              =   3.0956246249858E-04
(PID.TID 0000.0001) %MON pe_b_mean                    =  -5.2176509717779E-08
(PID.TID 0000.0001) %MON ke_max                       =   4.7787556929255E-07
(PID.TID 0000.0001) %MON ke_mean                      =   2.7104292239588E-09
(PID.TID 0000.0001) %MON ke_vol                       =   2.9241705273104E+14
(PID.TID 0000.0001) %MON vort_r_min                   =  -6.0426733108689E-08
(PID.TID 0000.0001) %MON vort_r_max                   =   5.7129511584460E-08
(PID.TID 0000.0001) %MON vort_a_mean                  =  -1.4007437261988E-04
(PID.TID 0000.0001) %MON vort_a_sd                    =   1.7682747507245E-06
(PID.TID 0000.0001) %MON vort_p_mean                  =  -1.5039772177853E-04
(PID.TID 0000.0001) %MON vort_p_sd                    =   8.7071053936746E-05
(PID.TID 0000.0001) %MON surfExpan_theta_mean         =  -3.6329197043513E-12
(PID.TID 0000.0001) %MON surfExpan_salt_mean          =  -1.4437222904753E-12
(PID.TID 0000.0001) // =======================================================
(PID.TID 0000.0001) // End MONITOR dynamic field statistics
(PID.TID 0000.0001) // =======================================================
 cg2d: Sum(rhs),rhsMax =   1.06581410364015E-14  8.15484002580835E-04
(PID.TID 0000.0001)                    cg2d_init_res =    1.92774493118915E+00
(PID.TID 0000.0001)                       cg2d_iters =   201
(PID.TID 0000.0001)                         cg2d_res =    9.22887287255417E-14
(PID.TID 0000.0001) // =======================================================
(PID.TID 0000.0001) // Begin MONITOR dynamic field statistics
(PID.TID 0000.0001) // =======================================================
(PID.TID 0000.0001) %MON time_tsnumber                =                    17
(PID.TID 0000.0001) %MON time_secondsf                =   3.0600000000000E+04
(PID.TID 0000.0001) %MON dynstat_eta_max              =   2.7056265794724E-04
(PID.TID 0000.0001) %MON dynstat_eta_min              =  -1.0449853383139E-04
(PID.TID 0000.0001) %MON dynstat_eta_mean             =  -2.7683326539974E-20
(PID.TID 0000.0001) %MON dynstat_eta_sd               =   6.2556643473917E-05
(PID.TID 0000.0001) %MON dynstat_eta_del2             =   2.2008525573985E-06
(PID.TID 0000.0001) %MON dynstat_uvel_max             =   1.5263230197373E-04
(PID.TID 0000.0001) %MON dynstat_uvel_min             =  -1.0176657787108E-03
(PID.TID 0000.0001) %MON dynstat_uvel_mean            =   2.2440030555492E-08
(PID.TID 0000.0001) %MON dynstat_uvel_sd              =   7.6149568425104E-05
(PID.TID 0000.0001) %MON dynstat_uvel_del2            =   1.6402349974838E-07
(PID.TID 0000.0001) %MON dynstat_vvel_max             =   3.2509448218527E-04
(PID.TID 0000.0001) %MON dynstat_vvel_min             =  -6.2686909740488E-05
(PID.TID 0000.0001) %MON dynstat_vvel_mean            =  -5.2413772491619E-08
(PID.TID 0000.0001) %MON dynstat_vvel_sd              =   1.8254259046071E-05
(PID.TID 0000.0001) %MON dynstat_vvel_del2            =   4.1828135674284E-08
(PID.TID 0000.0001) %MON dynstat_wvel_max             =   4.9203252796200E-06
(PID.TID 0000.0001) %MON dynstat_wvel_min             =  -4.6528592385774E-06
(PID.TID 0000.0001) %MON dynstat_wvel_mean            =  -6.0003795611537E-11
(PID.TID 0000.0001) %MON dynstat_wvel_sd              =   1.6529524568082E-07
(PID.TID 0000.0001) %MON dynstat_wvel_del2            =   8.0065457303109E-10
(PID.TID 0000.0001) %MON dynstat_theta_max            =  -1.9000000000000E+00
(PID.TID 0000.0001) %MON dynstat_theta_min            =  -1.9515095948719E+00
(PID.TID 0000.0001) %MON dynstat_theta_mean           =  -1.9009422683823E+00
(PID.TID 0000.0001) %MON dynstat_theta_sd             =   4.2788558270368E-03
(PID.TID 0000.0001) %MON dynstat_theta_del2           =   4.3538390715748E-06
(PID.TID 0000.0001) %MON dynstat_salt_max             =   3.4400000000000E+01
(PID.TID 0000.0001) %MON dynstat_salt_min             =   3.4379530086998E+01
(PID.TID 0000.0001) %MON dynstat_salt_mean            =   3.4399625542547E+01
(PID.TID 0000.0001) %MON dynstat_salt_sd              =   1.7004173056646E-03
(PID.TID 0000.0001) %MON dynstat_salt_del2            =   1.7302156470437E-06
(PID.TID 0000.0001) %MON advcfl_uvel_max              =   3.0280039570720E-04
(PID.TID 0000.0001) %MON advcfl_vvel_max              =   5.2633869999957E-05
(PID.TID 0000.0001) %MON advcfl_wvel_max              =   2.9521951677720E-04
(PID.TID 0000.0001) %MON advcfl_W_hf_max              =   3.2495920930410E-04
(PID.TID 0000.0001) %MON pe_b_mean                    =  -5.3057392572439E-08
(PID.TID 0000.0001) %MON ke_max                       =   5.3957448098858E-07
(PID.TID 0000.0001) %MON ke_mean                      =   3.0048594440778E-09
(PID.TID 0000.0001) %MON ke_vol                       =   2.9241705273104E+14
(PID.TID 0000.0001) %MON vort_r_min                   =  -5.5003128937573E-08
(PID.TID 0000.0001) %MON vort_r_max                   =   5.1765503245893E-08
(PID.TID 0000.0001) %MON vort_a_mean                  =  -1.4007437267892E-04
(PID.TID 0000.0001) %MON vort_a_sd                    =   1.7682745437322E-06
(PID.TID 0000.0001) %MON vort_p_mean                  =  -1.5039772184192E-04
(PID.TID 0000.0001) %MON vort_p_sd                    =   8.7070329611305E-05
(PID.TID 0000.0001) %MON surfExpan_theta_mean         =  -3.4398342413269E-12
(PID.TID 0000.0001) %MON surfExpan_salt_mean          =  -1.3669901275107E-12
(PID.TID 0000.0001) // =======================================================
(PID.TID 0000.0001) // End MONITOR dynamic field statistics
(PID.TID 0000.0001) // =======================================================
 cg2d: Sum(rhs),rhsMax =  -3.55271367880050E-14  8.62787576665662E-04
(PID.TID 0000.0001)                    cg2d_init_res =    1.81206328103234E+00
(PID.TID 0000.0001)                       cg2d_iters =   200
(PID.TID 0000.0001)                         cg2d_res =    9.25524910992116E-14
(PID.TID 0000.0001) // =======================================================
(PID.TID 0000.0001) // Begin MONITOR dynamic field statistics
(PID.TID 0000.0001) // =======================================================
(PID.TID 0000.0001) %MON time_tsnumber                =                    18
(PID.TID 0000.0001) %MON time_secondsf                =   3.2400000000000E+04
(PID.TID 0000.0001) %MON dynstat_eta_max              =   2.8004278103193E-04
(PID.TID 0000.0001) %MON dynstat_eta_min              =  -1.1235126993749E-04
(PID.TID 0000.0001) %MON dynstat_eta_mean             =  -2.1294866569211E-20
(PID.TID 0000.0001) %MON dynstat_eta_sd               =   6.4847175828834E-05
(PID.TID 0000.0001) %MON dynstat_eta_del2             =   2.3271727986004E-06
(PID.TID 0000.0001) %MON dynstat_uvel_max             =   1.6213885817480E-04
(PID.TID 0000.0001) %MON dynstat_uvel_min             =  -1.0769510008074E-03
(PID.TID 0000.0001) %MON dynstat_uvel_mean            =   4.4713521301644E-08
(PID.TID 0000.0001) %MON dynstat_uvel_sd              =   8.0159238737002E-05
(PID.TID 0000.0001) %MON dynstat_uvel_del2            =   1.7242825520343E-07
(PID.TID 0000.0001) %MON dynstat_vvel_max             =   2.9295434645537E-04
(PID.TID 0000.0001) %MON dynstat_vvel_min             =  -5.8461053988821E-05
(PID.TID 0000.0001) %MON dynstat_vvel_mean            =  -7.3183754348139E-08
(PID.TID 0000.0001) %MON dynstat_vvel_sd              =   1.5703959655754E-05
(PID.TID 0000.0001) %MON dynstat_vvel_del2            =   3.8032531727623E-08
(PID.TID 0000.0001) %MON dynstat_wvel_max             =   5.1554610585669E-06
(PID.TID 0000.0001) %MON dynstat_wvel_min             =  -4.9294152927124E-06
(PID.TID 0000.0001) %MON dynstat_wvel_mean            =  -7.1280687708530E-11
(PID.TID 0000.0001) %MON dynstat_wvel_sd              =   1.7225099690472E-07
(PID.TID 0000.0001) %MON dynstat_wvel_del2            =   7.8948859919191E-10
(PID.TID 0000.0001) %MON dynstat_theta_max            =  -1.9000000000000E+00
(PID.TID 0000.0001) %MON dynstat_theta_min            =  -1.9544056180718E+00
(PID.TID 0000.0001) %MON dynstat_theta_mean           =  -1.9009952606955E+00
(PID.TID 0000.0001) %MON dynstat_theta_sd             =   4.5186113851040E-03
(PID.TID 0000.0001) %MON dynstat_theta_del2           =   4.5893754290333E-06
(PID.TID 0000.0001) %MON dynstat_salt_max             =   3.4400000000000E+01
(PID.TID 0000.0001) %MON dynstat_salt_min             =   3.4378379207378E+01
(PID.TID 0000.0001) %MON dynstat_salt_mean            =   3.4399604483402E+01
(PID.TID 0000.0001) %MON dynstat_salt_sd              =   1.7956961644407E-03
(PID.TID 0000.0001) %MON dynstat_salt_del2            =   1.8238177954977E-06
(PID.TID 0000.0001) %MON advcfl_uvel_max              =   3.2044036069962E-04
(PID.TID 0000.0001) %MON advcfl_vvel_max              =   4.7430275911195E-05
(PID.TID 0000.0001) %MON advcfl_wvel_max              =   3.0932766351401E-04
(PID.TID 0000.0001) %MON advcfl_W_hf_max              =   3.3793892786785E-04
(PID.TID 0000.0001) %MON pe_b_mean                    =  -5.4023435941096E-08
(PID.TID 0000.0001) %MON ke_max                       =   5.9614636471607E-07
(PID.TID 0000.0001) %MON ke_mean                      =   3.2690468299691E-09
(PID.TID 0000.0001) %MON ke_vol                       =   2.9241705273104E+14
(PID.TID 0000.0001) %MON vort_r_min                   =  -4.9324691625943E-08
(PID.TID 0000.0001) %MON vort_r_max                   =   5.2379726578176E-08
(PID.TID 0000.0001) %MON vort_a_mean                  =  -1.4007437272972E-04
(PID.TID 0000.0001) %MON vort_a_sd                    =   1.7682744101717E-06
(PID.TID 0000.0001) %MON vort_p_mean                  =  -1.5039772189647E-04
(PID.TID 0000.0001) %MON vort_p_sd                    =   8.7069712677875E-05
(PID.TID 0000.0001) %MON surfExpan_theta_mean         =  -4.2188260242694E-12
(PID.TID 0000.0001) %MON surfExpan_salt_mean          =  -1.6765614620530E-12
(PID.TID 0000.0001) // =======================================================
(PID.TID 0000.0001) // End MONITOR dynamic field statistics
(PID.TID 0000.0001) // =======================================================
 cg2d: Sum(rhs),rhsMax =   9.76996261670138E-15  9.09574253300784E-04
(PID.TID 0000.0001)                    cg2d_init_res =    1.70948340741349E+00
(PID.TID 0000.0001)                       cg2d_iters =   201
(PID.TID 0000.0001)                         cg2d_res =    7.79561466320160E-14
(PID.TID 0000.0001) // =======================================================
(PID.TID 0000.0001) // Begin MONITOR dynamic field statistics
(PID.TID 0000.0001) // =======================================================
(PID.TID 0000.0001) %MON time_tsnumber                =                    19
(PID.TID 0000.0001) %MON time_secondsf                =   3.4200000000000E+04
(PID.TID 0000.0001) %MON dynstat_eta_max              =   2.8956728653948E-04
(PID.TID 0000.0001) %MON dynstat_eta_min              =  -1.1914671796079E-04
(PID.TID 0000.0001) %MON dynstat_eta_mean             =   3.8330759824579E-20
(PID.TID 0000.0001) %MON dynstat_eta_sd               =   6.7313844326361E-05
(PID.TID 0000.0001) %MON dynstat_eta_del2             =   2.4528013893178E-06
(PID.TID 0000.0001) %MON dynstat_uvel_max             =   1.7047471679992E-04
(PID.TID 0000.0001) %MON dynstat_uvel_min             =  -1.1266781626455E-03
(PID.TID 0000.0001) %MON dynstat_uvel_mean            =   6.4025471872318E-08
(PID.TID 0000.0001) %MON dynstat_uvel_sd              =   8.3468701410200E-05
(PID.TID 0000.0001) %MON dynstat_uvel_del2            =   1.7989380518604E-07
(PID.TID 0000.0001) %MON dynstat_vvel_max             =   2.6157547669992E-04
(PID.TID 0000.0001) %MON dynstat_vvel_min             =  -5.4206120181020E-05
(PID.TID 0000.0001) %MON dynstat_vvel_mean            =  -1.3707451767054E-07
(PID.TID 0000.0001) %MON dynstat_vvel_sd              =   1.3225295141637E-05
(PID.TID 0000.0001) %MON dynstat_vvel_del2            =   3.4350234026442E-08
(PID.TID 0000.0001) %MON dynstat_wvel_max             =   5.3586093595868E-06
(PID.TID 0000.0001) %MON dynstat_wvel_min             =  -5.1702094782979E-06
(PID.TID 0000.0001) %MON dynstat_wvel_mean            =  -9.9773547699254E-11
(PID.TID 0000.0001) %MON dynstat_wvel_sd              =   1.7825845691025E-07
(PID.TID 0000.0001) %MON dynstat_wvel_del2            =   7.8159464625835E-10
(PID.TID 0000.0001) %MON dynstat_theta_max            =  -1.9000000000000E+00
(PID.TID 0000.0001) %MON dynstat_theta_min            =  -1.9572873906083E+00
(PID.TID 0000.0001) %MON dynstat_theta_mean           =  -1.9010479923176E+00
(PID.TID 0000.0001) %MON dynstat_theta_sd             =   4.7570912092255E-03
(PID.TID 0000.0001) %MON dynstat_theta_del2           =   4.8227811618328E-06
(PID.TID 0000.0001) %MON dynstat_salt_max             =   3.4400000000000E+01
(PID.TID 0000.0001) %MON dynstat_salt_min             =   3.4377233990972E+01
(PID.TID 0000.0001) %MON dynstat_salt_mean            =   3.4399583527855E+01
(PID.TID 0000.0001) %MON dynstat_salt_sd              =   1.8904680465467E-03
(PID.TID 0000.0001) %MON dynstat_salt_del2            =   1.9165732337122E-06
(PID.TID 0000.0001) %MON advcfl_uvel_max              =   3.3523638174795E-04
(PID.TID 0000.0001) %MON advcfl_vvel_max              =   4.2349933297097E-05
(PID.TID 0000.0001) %MON advcfl_wvel_max              =   3.2151656157521E-04
(PID.TID 0000.0001) %MON advcfl_W_hf_max              =   3.4884878212926E-04
(PID.TID 0000.0001) %MON pe_b_mean                    =  -5.5245439635708E-08
(PID.TID 0000.0001) %MON ke_max                       =   6.4633315462255E-07
(PID.TID 0000.0001) %MON ke_mean                      =   3.4988576726599E-09
(PID.TID 0000.0001) %MON ke_vol                       =   2.9241705273104E+14
(PID.TID 0000.0001) %MON vort_r_min                   =  -4.3804167772595E-08
(PID.TID 0000.0001) %MON vort_r_max                   =   5.5317280518628E-08
(PID.TID 0000.0001) %MON vort_a_mean                  =  -1.4007437276646E-04
(PID.TID 0000.0001) %MON vort_a_sd                    =   1.7682743634601E-06
(PID.TID 0000.0001) %MON vort_p_mean                  =  -1.5039772193592E-04
(PID.TID 0000.0001) %MON vort_p_sd                    =   8.7069203195185E-05
(PID.TID 0000.0001) %MON surfExpan_theta_mean         =  -5.9960227555696E-12
(PID.TID 0000.0001) %MON surfExpan_salt_mean          =  -2.3828194430994E-12
(PID.TID 0000.0001) // =======================================================
(PID.TID 0000.0001) // End MONITOR dynamic field statistics
(PID.TID 0000.0001) // =======================================================
 cg2d: Sum(rhs),rhsMax =  -3.86357612569554E-14  9.55854575381194E-04
(PID.TID 0000.0001)                    cg2d_init_res =    1.61790783720366E+00
(PID.TID 0000.0001)                       cg2d_iters =   201
(PID.TID 0000.0001)                         cg2d_res =    8.06966447171975E-14
(PID.TID 0000.0001) // =======================================================
(PID.TID 0000.0001) // Begin MONITOR dynamic field statistics
(PID.TID 0000.0001) // =======================================================
(PID.TID 0000.0001) %MON time_tsnumber                =                    20
(PID.TID 0000.0001) %MON time_secondsf                =   3.6000000000000E+04
(PID.TID 0000.0001) %MON dynstat_eta_max              =   2.9951063290522E-04
(PID.TID 0000.0001) %MON dynstat_eta_min              =  -1.2475838129564E-04
(PID.TID 0000.0001) %MON dynstat_eta_mean             =   0.0000000000000E+00
(PID.TID 0000.0001) %MON dynstat_eta_sd               =   7.0025211341599E-05
(PID.TID 0000.0001) %MON dynstat_eta_del2             =   2.5777468188808E-06
(PID.TID 0000.0001) %MON dynstat_uvel_max             =   1.7753936086760E-04
(PID.TID 0000.0001) %MON dynstat_uvel_min             =  -1.1675003410926E-03
(PID.TID 0000.0001) %MON dynstat_uvel_mean            =   7.9108687747362E-08
(PID.TID 0000.0001) %MON dynstat_uvel_sd              =   8.6136027521651E-05
(PID.TID 0000.0001) %MON dynstat_uvel_del2            =   1.8645981461484E-07
(PID.TID 0000.0001) %MON dynstat_vvel_max             =   2.3311783359144E-04
(PID.TID 0000.0001) %MON dynstat_vvel_min             =  -5.1046742918393E-05
(PID.TID 0000.0001) %MON dynstat_vvel_mean            =  -2.3382400123843E-07
(PID.TID 0000.0001) %MON dynstat_vvel_sd              =   1.0986195351566E-05
(PID.TID 0000.0001) %MON dynstat_vvel_del2            =   3.1037405059942E-08
(PID.TID 0000.0001) %MON dynstat_wvel_max             =   5.5500785226715E-06
(PID.TID 0000.0001) %MON dynstat_wvel_min             =  -5.3779977412058E-06
(PID.TID 0000.0001) %MON dynstat_wvel_mean            =  -1.4148753969767E-10
(PID.TID 0000.0001) %MON dynstat_wvel_sd              =   1.8341140531853E-07
(PID.TID 0000.0001) %MON dynstat_wvel_del2            =   7.7848044805637E-10
(PID.TID 0000.0001) %MON dynstat_theta_max            =  -1.8999998502575E+00
(PID.TID 0000.0001) %MON dynstat_theta_min            =  -1.9601549858034E+00
(PID.TID 0000.0001) %MON dynstat_theta_mean           =  -1.9011004645941E+00
(PID.TID 0000.0001) %MON dynstat_theta_sd             =   4.9943022791559E-03
(PID.TID 0000.0001) %MON dynstat_theta_del2           =   5.0540783097911E-06
(PID.TID 0000.0001) %MON dynstat_salt_max             =   3.4400000059508E+01
(PID.TID 0000.0001) %MON dynstat_salt_min             =   3.4376094408642E+01
(PID.TID 0000.0001) %MON dynstat_salt_mean            =   3.4399562675373E+01
(PID.TID 0000.0001) %MON dynstat_salt_sd              =   1.9847357257367E-03
(PID.TID 0000.0001) %MON dynstat_salt_del2            =   2.0084907203109E-06
(PID.TID 0000.0001) %MON advcfl_uvel_max              =   3.4738277798728E-04
(PID.TID 0000.0001) %MON advcfl_vvel_max              =   3.7742546921885E-05
(PID.TID 0000.0001) %MON advcfl_wvel_max              =   3.3300471136029E-04
(PID.TID 0000.0001) %MON advcfl_W_hf_max              =   3.5814299419042E-04
(PID.TID 0000.0001) %MON pe_b_mean                    =  -5.6855069691535E-08
(PID.TID 0000.0001) %MON ke_max                       =   6.8963768437404E-07
(PID.TID 0000.0001) %MON ke_mean                      =   3.6936685413488E-09
(PID.TID 0000.0001) %MON ke_vol                       =   2.9241705273104E+14
(PID.TID 0000.0001) %MON vort_r_min                   =  -3.8818456508816E-08
(PID.TID 0000.0001) %MON vort_r_max                   =   5.7862034055170E-08
(PID.TID 0000.0001) %MON vort_a_mean                  =  -1.4007437278501E-04
(PID.TID 0000.0001) %MON vort_a_sd                    =   1.7682744124471E-06
(PID.TID 0000.0001) %MON vort_p_mean                  =  -1.5039772195584E-04
(PID.TID 0000.0001) %MON vort_p_sd                    =   8.7068794511434E-05
(PID.TID 0000.0001) %MON surfExpan_theta_mean         =  -8.6823422420556E-12
(PID.TID 0000.0001) %MON surfExpan_salt_mean          =  -3.4503628069733E-12
(PID.TID 0000.0001) // =======================================================
(PID.TID 0000.0001) // End MONITOR dynamic field statistics
(PID.TID 0000.0001) // =======================================================
(PID.TID 0000.0001) %CHECKPOINT        20 ckptA
(PID.TID 0000.0001)   Seconds in section "ALL                    [THE_MODEL_MAIN]":
(PID.TID 0000.0001)           User time:   16.990000000000002
(PID.TID 0000.0001)         System time:  0.14999999999999999
(PID.TID 0000.0001)     Wall clock time:   23.884598016738892
(PID.TID 0000.0001)          No. starts:           1
(PID.TID 0000.0001)           No. stops:           1
(PID.TID 0000.0001)   Seconds in section "INITIALISE_FIXED       [THE_MODEL_MAIN]":
(PID.TID 0000.0001)           User time:  0.32000000000000001
(PID.TID 0000.0001)         System time:  5.99999999999999978E-002
(PID.TID 0000.0001)     Wall clock time:   4.6407141685485840
(PID.TID 0000.0001)          No. starts:           1
(PID.TID 0000.0001)           No. stops:           1
(PID.TID 0000.0001)   Seconds in section "THE_MAIN_LOOP          [THE_MODEL_MAIN]":
(PID.TID 0000.0001)           User time:   16.670000000000002
(PID.TID 0000.0001)         System time:  8.99999999999999967E-002
(PID.TID 0000.0001)     Wall clock time:   19.242694854736328
(PID.TID 0000.0001)          No. starts:           1
(PID.TID 0000.0001)           No. stops:           1
(PID.TID 0000.0001)   Seconds in section "INITIALISE_VARIA    [THE_MAIN_LOOP]":
(PID.TID 0000.0001)           User time:  0.27999999999999997
(PID.TID 0000.0001)         System time:  5.00000000000000028E-002
(PID.TID 0000.0001)     Wall clock time:   1.1873519420623779
(PID.TID 0000.0001)          No. starts:           1
(PID.TID 0000.0001)           No. stops:           1
(PID.TID 0000.0001)   Seconds in section "MAIN LOOP           [THE_MAIN_LOOP]":
(PID.TID 0000.0001)           User time:   16.390000000000001
(PID.TID 0000.0001)         System time:  3.99999999999999939E-002
(PID.TID 0000.0001)     Wall clock time:   18.055304050445557
(PID.TID 0000.0001)          No. starts:           1
(PID.TID 0000.0001)           No. stops:           1
(PID.TID 0000.0001)   Seconds in section "FORWARD_STEP        [THE_MAIN_LOOP]":
(PID.TID 0000.0001)           User time:   16.390000000000004
(PID.TID 0000.0001)         System time:  4.00000000000000078E-002
(PID.TID 0000.0001)     Wall clock time:   18.055115461349487
(PID.TID 0000.0001)          No. starts:          20
(PID.TID 0000.0001)           No. stops:          20
(PID.TID 0000.0001)   Seconds in section "UPDATE_SURF_DR      [FORWARD_STEP]":
(PID.TID 0000.0001)           User time:  0.14999999999999503
(PID.TID 0000.0001)         System time:   0.0000000000000000
(PID.TID 0000.0001)     Wall clock time:  0.15238356590270996
(PID.TID 0000.0001)          No. starts:          40
(PID.TID 0000.0001)           No. stops:          40
(PID.TID 0000.0001)   Seconds in section "LOAD_FIELDS_DRIVER  [FORWARD_STEP]":
(PID.TID 0000.0001)           User time:   0.0000000000000000
(PID.TID 0000.0001)         System time:   0.0000000000000000
(PID.TID 0000.0001)     Wall clock time:  5.54561614990234375E-004
(PID.TID 0000.0001)          No. starts:          20
(PID.TID 0000.0001)           No. stops:          20
(PID.TID 0000.0001)   Seconds in section "EXTERNAL_FLDS_LOAD [LOAD_FLDS_DRIVER]":
(PID.TID 0000.0001)           User time:   0.0000000000000000
(PID.TID 0000.0001)         System time:   0.0000000000000000
(PID.TID 0000.0001)     Wall clock time:  1.92403793334960938E-004
(PID.TID 0000.0001)          No. starts:          20
(PID.TID 0000.0001)           No. stops:          20
(PID.TID 0000.0001)   Seconds in section "DO_ATMOSPHERIC_PHYS [FORWARD_STEP]":
(PID.TID 0000.0001)           User time:   0.0000000000000000
(PID.TID 0000.0001)         System time:   0.0000000000000000
(PID.TID 0000.0001)     Wall clock time:  1.85012817382812500E-004
(PID.TID 0000.0001)          No. starts:          20
(PID.TID 0000.0001)           No. stops:          20
(PID.TID 0000.0001)   Seconds in section "DO_OCEANIC_PHYS     [FORWARD_STEP]":
(PID.TID 0000.0001)           User time:  0.48000000000000043
(PID.TID 0000.0001)         System time:   0.0000000000000000
(PID.TID 0000.0001)     Wall clock time:  0.49268555641174316
(PID.TID 0000.0001)          No. starts:          20
(PID.TID 0000.0001)           No. stops:          20
(PID.TID 0000.0001)   Seconds in section "SHELFICE_THERMODYNAMICS [DO_OCEANIC_PHYS]":
(PID.TID 0000.0001)           User time:  5.00000000000007105E-002
(PID.TID 0000.0001)         System time:   0.0000000000000000
(PID.TID 0000.0001)     Wall clock time:  3.38096618652343750E-002
(PID.TID 0000.0001)          No. starts:          20
(PID.TID 0000.0001)           No. stops:          20
(PID.TID 0000.0001)   Seconds in section "THERMODYNAMICS      [FORWARD_STEP]":
(PID.TID 0000.0001)           User time:   2.5199999999999996
(PID.TID 0000.0001)         System time:   0.0000000000000000
(PID.TID 0000.0001)     Wall clock time:   2.5133647918701172
(PID.TID 0000.0001)          No. starts:          20
(PID.TID 0000.0001)           No. stops:          20
(PID.TID 0000.0001)   Seconds in section "DYNAMICS            [FORWARD_STEP]":
(PID.TID 0000.0001)           User time:   6.2599999999999945
(PID.TID 0000.0001)         System time:   0.0000000000000000
(PID.TID 0000.0001)     Wall clock time:   6.2741773128509521
(PID.TID 0000.0001)          No. starts:          20
(PID.TID 0000.0001)           No. stops:          20
(PID.TID 0000.0001)   Seconds in section "SOLVE_FOR_PRESSURE  [FORWARD_STEP]":
(PID.TID 0000.0001)           User time:   3.1000000000000014
(PID.TID 0000.0001)         System time:   0.0000000000000000
(PID.TID 0000.0001)     Wall clock time:   3.0890948772430420
(PID.TID 0000.0001)          No. starts:          20
(PID.TID 0000.0001)           No. stops:          20
(PID.TID 0000.0001)   Seconds in section "MOM_CORRECTION_STEP [FORWARD_STEP]":
(PID.TID 0000.0001)           User time:  0.60000000000000497
(PID.TID 0000.0001)         System time:   0.0000000000000000
(PID.TID 0000.0001)     Wall clock time:  0.60207867622375488
(PID.TID 0000.0001)          No. starts:          20
(PID.TID 0000.0001)           No. stops:          20
(PID.TID 0000.0001)   Seconds in section "UPDATE_ETAH         [FORWARD_STEP]":
(PID.TID 0000.0001)           User time:   0.0000000000000000
(PID.TID 0000.0001)         System time:   0.0000000000000000
(PID.TID 0000.0001)     Wall clock time:  2.14481353759765625E-003
(PID.TID 0000.0001)          No. starts:          20
(PID.TID 0000.0001)           No. stops:          20
(PID.TID 0000.0001)   Seconds in section "TRC_CORRECTION_STEP [FORWARD_STEP]":
(PID.TID 0000.0001)           User time:   1.1600000000000001
(PID.TID 0000.0001)         System time:   0.0000000000000000
(PID.TID 0000.0001)     Wall clock time:   1.1569559574127197
(PID.TID 0000.0001)          No. starts:          20
(PID.TID 0000.0001)           No. stops:          20
(PID.TID 0000.0001)   Seconds in section "BLOCKING_EXCHANGES  [FORWARD_STEP]":
(PID.TID 0000.0001)           User time:  0.10000000000000142
(PID.TID 0000.0001)         System time:   0.0000000000000000
(PID.TID 0000.0001)     Wall clock time:  0.10746216773986816
(PID.TID 0000.0001)          No. starts:          20
(PID.TID 0000.0001)           No. stops:          20
(PID.TID 0000.0001)   Seconds in section "DO_STATEVARS_TAVE   [FORWARD_STEP]":
(PID.TID 0000.0001)           User time:   0.0000000000000000
(PID.TID 0000.0001)         System time:   0.0000000000000000
(PID.TID 0000.0001)     Wall clock time:  1.82390213012695313E-004
(PID.TID 0000.0001)          No. starts:          20
(PID.TID 0000.0001)           No. stops:          20
(PID.TID 0000.0001)   Seconds in section "MONITOR             [FORWARD_STEP]":
(PID.TID 0000.0001)           User time:   1.8500000000000050
(PID.TID 0000.0001)         System time:  1.00000000000000089E-002
(PID.TID 0000.0001)     Wall clock time:   1.8707647323608398
(PID.TID 0000.0001)          No. starts:          20
(PID.TID 0000.0001)           No. stops:          20
(PID.TID 0000.0001)   Seconds in section "DO_THE_MODEL_IO     [FORWARD_STEP]":
(PID.TID 0000.0001)           User time:  7.99999999999982947E-002
(PID.TID 0000.0001)         System time:  1.00000000000000089E-002
(PID.TID 0000.0001)     Wall clock time:   1.6833126544952393
(PID.TID 0000.0001)          No. starts:          20
(PID.TID 0000.0001)           No. stops:          20
(PID.TID 0000.0001)   Seconds in section "DO_WRITE_PICKUP     [FORWARD_STEP]":
(PID.TID 0000.0001)           User time:  9.00000000000034106E-002
(PID.TID 0000.0001)         System time:  1.99999999999999900E-002
(PID.TID 0000.0001)     Wall clock time:  0.10665154457092285
(PID.TID 0000.0001)          No. starts:          20
(PID.TID 0000.0001)           No. stops:          20
(PID.TID 0000.0001) // ======================================================
(PID.TID 0000.0001) // Tile <-> Tile communication statistics
(PID.TID 0000.0001) // ======================================================
(PID.TID 0000.0001) // o Tile number: 000001
(PID.TID 0000.0001) //         No. X exchanges =              0
(PID.TID 0000.0001) //            Max. X spins =              0
(PID.TID 0000.0001) //            Min. X spins =     1000000000
(PID.TID 0000.0001) //          Total. X spins =              0
(PID.TID 0000.0001) //            Avg. X spins =       0.00E+00
(PID.TID 0000.0001) //         No. Y exchanges =              0
(PID.TID 0000.0001) //            Max. Y spins =              0
(PID.TID 0000.0001) //            Min. Y spins =     1000000000
(PID.TID 0000.0001) //          Total. Y spins =              0
(PID.TID 0000.0001) //            Avg. Y spins =       0.00E+00
(PID.TID 0000.0001) // o Tile number: 000002
(PID.TID 0000.0001) //         No. X exchanges =              0
(PID.TID 0000.0001) //            Max. X spins =              0
(PID.TID 0000.0001) //            Min. X spins =     1000000000
(PID.TID 0000.0001) //          Total. X spins =              0
(PID.TID 0000.0001) //            Avg. X spins =       0.00E+00
(PID.TID 0000.0001) //         No. Y exchanges =              0
(PID.TID 0000.0001) //            Max. Y spins =              0
(PID.TID 0000.0001) //            Min. Y spins =     1000000000
(PID.TID 0000.0001) //          Total. Y spins =              0
(PID.TID 0000.0001) //            Avg. Y spins =       0.00E+00
(PID.TID 0000.0001) // o Thread number: 000001
(PID.TID 0000.0001) //            No. barriers =          27792
(PID.TID 0000.0001) //      Max. barrier spins =              1
(PID.TID 0000.0001) //      Min. barrier spins =              1
(PID.TID 0000.0001) //     Total barrier spins =          27792
(PID.TID 0000.0001) //      Avg. barrier spins =       1.00E+00
PROGRAM MAIN: Execution ended Normally
