(PID.TID 0000.0001) 
(PID.TID 0000.0001) // ======================================================
(PID.TID 0000.0001) //                      MITgcm UV
(PID.TID 0000.0001) //                      =========
(PID.TID 0000.0001) // ======================================================
(PID.TID 0000.0001) // execution environment starting up...
(PID.TID 0000.0001) 
(PID.TID 0000.0001) // MITgcmUV version:  checkpoint58o_post
(PID.TID 0000.0001) // Build user:        mlosch
(PID.TID 0000.0001) // Build host:        faulks
(PID.TID 0000.0001) // Build date:        Sat Sep  2 05:57:40 EDT 2006
(PID.TID 0000.0001) 
(PID.TID 0000.0001) // =======================================================
(PID.TID 0000.0001) // Execution Environment parameter file "eedata"
(PID.TID 0000.0001) // =======================================================
(PID.TID 0000.0001) ># Example "eedata" file
(PID.TID 0000.0001) ># Lines beginning "#" are comments
(PID.TID 0000.0001) ># nTx - No. threads per process in X
(PID.TID 0000.0001) ># nTy - No. threads per process in Y
(PID.TID 0000.0001) > &EEPARMS
(PID.TID 0000.0001) > &
(PID.TID 0000.0001) ># Note: Some systems use & as the
(PID.TID 0000.0001) ># namelist terminator. Other systems
(PID.TID 0000.0001) ># use a / character (as shown here).
(PID.TID 0000.0001) 
(PID.TID 0000.0001) // =======================================================
(PID.TID 0000.0001) // Computational Grid Specification ( see files "SIZE.h" )
(PID.TID 0000.0001) //                                  ( and "eedata"       )
(PID.TID 0000.0001) // =======================================================
(PID.TID 0000.0001)      nPx =    1 ; /* No. processes in X */
(PID.TID 0000.0001)      nPy =    1 ; /* No. processes in Y */
(PID.TID 0000.0001)      nSx =    1 ; /* No. tiles in X per process */
(PID.TID 0000.0001)      nSy =    2 ; /* No. tiles in Y per process */
(PID.TID 0000.0001)      sNx =   50 ; /* Tile size in X */
(PID.TID 0000.0001)      sNy =   50 ; /* Tile size in Y */
(PID.TID 0000.0001)      OLx =    3 ; /* Tile overlap distance in X */
(PID.TID 0000.0001)      OLy =    3 ; /* Tile overlap distance in Y */
(PID.TID 0000.0001)      nTx =    1 ; /* No. threads in X per process */
(PID.TID 0000.0001)      nTy =    1 ; /* No. threads in Y per process */
(PID.TID 0000.0001)       Nr =   30 ; /* No. levels in the vertical   */
(PID.TID 0000.0001)       nX =   50 ; /* Total domain size in X ( = nPx*nSx*sNx ) */
(PID.TID 0000.0001)       nY =  100 ; /* Total domain size in Y ( = nPy*nSy*sNy ) */
(PID.TID 0000.0001)   nTiles =    2 ; /* Total no. tiles per process ( = nSx*nSy ) */
(PID.TID 0000.0001)   nProcs =    1 ; /* Total no. processes ( = nPx*nPy ) */
(PID.TID 0000.0001) nThreads =    1 ; /* Total no. threads per process ( = nTx*nTy ) */
(PID.TID 0000.0001) usingMPI =    F ; /* Flag used to control whether MPI is in use */
(PID.TID 0000.0001)                   /*  note: To execute a program with MPI calls */
(PID.TID 0000.0001)                   /*  it must be launched appropriately e.g     */
(PID.TID 0000.0001)                   /*  "mpirun -np 64 ......"                    */
(PID.TID 0000.0001) useCoupler=   F ; /* Flag used to control communications with */
(PID.TID 0000.0001)                   /*  other model components, through a coupler */
(PID.TID 0000.0001) 
(PID.TID 0000.0001) // ======================================================
(PID.TID 0000.0001) // Mapping of tiles to threads
(PID.TID 0000.0001) // ======================================================
(PID.TID 0000.0001) // -o- Thread   1, tiles (   1:   1,   1:   2)
(PID.TID 0000.0001) 
(PID.TID 0000.0001) // ======================================================
(PID.TID 0000.0001) // Tile <-> Tile connectvity table
(PID.TID 0000.0001) // ======================================================
(PID.TID 0000.0001) // Tile number: 000001 (process no. = 000001)
(PID.TID 0000.0001) //        WEST: Tile = 000001, Process = 000001, Comm = put
(PID.TID 0000.0001) //                bi = 000001, bj = 000001
(PID.TID 0000.0001) //        EAST: Tile = 000001, Process = 000001, Comm = put
(PID.TID 0000.0001) //                bi = 000001, bj = 000001
(PID.TID 0000.0001) //       SOUTH: Tile = 000002, Process = 000001, Comm = put
(PID.TID 0000.0001) //                bi = 000001, bj = 000002
(PID.TID 0000.0001) //       NORTH: Tile = 000002, Process = 000001, Comm = put
(PID.TID 0000.0001) //                bi = 000001, bj = 000002
(PID.TID 0000.0001) // Tile number: 000002 (process no. = 000001)
(PID.TID 0000.0001) //        WEST: Tile = 000002, Process = 000001, Comm = put
(PID.TID 0000.0001) //                bi = 000001, bj = 000002
(PID.TID 0000.0001) //        EAST: Tile = 000002, Process = 000001, Comm = put
(PID.TID 0000.0001) //                bi = 000001, bj = 000002
(PID.TID 0000.0001) //       SOUTH: Tile = 000001, Process = 000001, Comm = put
(PID.TID 0000.0001) //                bi = 000001, bj = 000001
(PID.TID 0000.0001) //       NORTH: Tile = 000001, Process = 000001, Comm = put
(PID.TID 0000.0001) //                bi = 000001, bj = 000001
(PID.TID 0000.0001) 
(PID.TID 0000.0001) // =======================================================
(PID.TID 0000.0001) // Model parameter file "data"
(PID.TID 0000.0001) // =======================================================
(PID.TID 0000.0001) ># ====================
(PID.TID 0000.0001) ># | Model parameters |
(PID.TID 0000.0001) ># ====================
(PID.TID 0000.0001) >#
(PID.TID 0000.0001) ># Continuous equation parameters
(PID.TID 0000.0001) > &PARM01
(PID.TID 0000.0001) > Tref = 30*-1.9,
(PID.TID 0000.0001) > Sref = 30*34.4,
(PID.TID 0000.0001) > viscAz=1.E-3,
(PID.TID 0000.0001) > viscAh=600.0,
(PID.TID 0000.0001) > no_slip_sides=.FALSE.,
(PID.TID 0000.0001) > no_slip_bottom=.FALSE.,
(PID.TID 0000.0001) > diffKhT=100.0,
(PID.TID 0000.0001) > diffKzT=5.E-5,
(PID.TID 0000.0001) > diffKhS=100.0,
(PID.TID 0000.0001) > diffKzS=5.E-5,
(PID.TID 0000.0001) > bottomDragQuadratic=2.5E-3,
(PID.TID 0000.0001) > eosType='JMD95Z',
(PID.TID 0000.0001) > HeatCapacity_cp = 3974.0,
(PID.TID 0000.0001) > rhoConst=1030.,
(PID.TID 0000.0001) > rhoNil=1030.,
(PID.TID 0000.0001) > gravity=9.81,
(PID.TID 0000.0001) > gBaro=9.81,
(PID.TID 0000.0001) > convertFW2Salt = 33.4,
(PID.TID 0000.0001) > rigidLid=.FALSE.,
(PID.TID 0000.0001) > implicitFreeSurface=.TRUE.,
(PID.TID 0000.0001) > exactConserv=.true.,
(PID.TID 0000.0001) > hFacMin=0.05,
(PID.TID 0000.0001) > nonHydrostatic=.false.,
(PID.TID 0000.0001) > readBinaryPrec=64,
(PID.TID 0000.0001) > useCDScheme = .true.,
(PID.TID 0000.0001) > &
(PID.TID 0000.0001) >
(PID.TID 0000.0001) ># Elliptic solver parameters
(PID.TID 0000.0001) > &PARM02
(PID.TID 0000.0001) > cg2dMaxIters=1000,
(PID.TID 0000.0001) > cg2dTargetResidual=1.E-13,
(PID.TID 0000.0001) > cg3dMaxIters=400,
(PID.TID 0000.0001) > cg3dTargetResidual=1.E-13,
(PID.TID 0000.0001) > &
(PID.TID 0000.0001) >
(PID.TID 0000.0001) ># Time stepping parameters
(PID.TID 0000.0001) > &PARM03
(PID.TID 0000.0001) > niter0=0,
(PID.TID 0000.0001) > nTimeSteps=20,
(PID.TID 0000.0001) > deltaT=1800.0,
(PID.TID 0000.0001) > abEps=0.1,
(PID.TID 0000.0001) > cAdjFreq = -1.,
(PID.TID 0000.0001) > tauCD = 400000.,
(PID.TID 0000.0001) > pChkptFreq=0.0,
(PID.TID 0000.0001) > chkptFreq=0.0,
(PID.TID 0000.0001) > dumpFreq=0.0,
(PID.TID 0000.0001) > taveFreq=0.0,
(PID.TID 0000.0001) > monitorFreq=1.,
(PID.TID 0000.0001) > &
(PID.TID 0000.0001) >
(PID.TID 0000.0001) ># Gridding parameters
(PID.TID 0000.0001) > &PARM04
(PID.TID 0000.0001) > usingCartesianGrid=.FALSE.,
(PID.TID 0000.0001) > usingSphericalPolarGrid=.TRUE.,
(PID.TID 0000.0001) > phiMin = -80.0,
(PID.TID 0000.0001) > delX=50*0.3,
(PID.TID 0000.0001) > delY=100*0.1,
(PID.TID 0000.0001) > delZ=30*30.0,
(PID.TID 0000.0001) > &
(PID.TID 0000.0001) >
(PID.TID 0000.0001) ># Input datasets
(PID.TID 0000.0001) > &PARM05
(PID.TID 0000.0001) > bathyFile='bathy.box',
(PID.TID 0000.0001) > shelfIceFile='icetopo.exp1',
(PID.TID 0000.0001) > &
(PID.TID 0000.0001) 
(PID.TID 0000.0001) S/R INI_PARMS ; starts to read PARM01
(PID.TID 0000.0001) S/R INI_PARMS ; read PARM01 : OK
(PID.TID 0000.0001) S/R INI_PARMS ; starts to read PARM02
(PID.TID 0000.0001) S/R INI_PARMS ; read PARM02 : OK
(PID.TID 0000.0001) S/R INI_PARMS ; starts to read PARM03
(PID.TID 0000.0001) S/R INI_PARMS ; read PARM03 : OK
(PID.TID 0000.0001) S/R INI_PARMS ; starts to read PARM04
(PID.TID 0000.0001) S/R INI_PARMS ; read PARM04 : OK
(PID.TID 0000.0001) S/R INI_PARMS ; starts to read PARM05
(PID.TID 0000.0001) S/R INI_PARMS ; read PARM05 : OK
(PID.TID 0000.0001)  PACKAGES_BOOT: opening data.pkg
(PID.TID 0000.0001)  OPEN_COPY_DATA_FILE: opening file data.pkg
(PID.TID 0000.0001) // =======================================================
(PID.TID 0000.0001) // Parameter file "data.pkg"
(PID.TID 0000.0001) // =======================================================
(PID.TID 0000.0001) ># Packages
(PID.TID 0000.0001) > &PACKAGES
(PID.TID 0000.0001) > useMNC=.TRUE.,
(PID.TID 0000.0001) > useShelfIce=.true.,
(PID.TID 0000.0001) > &
(PID.TID 0000.0001) 
(PID.TID 0000.0001)  PACKAGES_BOOT: finished reading data.pkg
(PID.TID 0000.0001)  MNC_READPARMS: opening file 'data.mnc'
(PID.TID 0000.0001)  OPEN_COPY_DATA_FILE: opening file data.mnc
(PID.TID 0000.0001) // =======================================================
(PID.TID 0000.0001) // Parameter file "data.mnc"
(PID.TID 0000.0001) // =======================================================
(PID.TID 0000.0001) ># Example "data.mnc" file
(PID.TID 0000.0001) ># Lines beginning "#" are comments
(PID.TID 0000.0001) > &MNC_01
(PID.TID 0000.0001) ># mnc_echo_gvtypes=.FALSE.,
(PID.TID 0000.0001) ># mnc_use_indir=.FALSE.,
(PID.TID 0000.0001) > mnc_use_outdir=.TRUE.,
(PID.TID 0000.0001) > mnc_outdir_str='mnc_test_',
(PID.TID 0000.0001) >#mnc_outdir_date=.TRUE.,
(PID.TID 0000.0001) > monitor_mnc=.FALSE.,
(PID.TID 0000.0001) > timeave_mnc=.TRUE.,
(PID.TID 0000.0001) > snapshot_mnc=.TRUE.,
(PID.TID 0000.0001) ># pickup_write_mnc=.TRUE.,
(PID.TID 0000.0001) > &
(PID.TID 0000.0001) ># Note: Some systems use & as the
(PID.TID 0000.0001) ># namelist terminator. Other systems
(PID.TID 0000.0001) ># use a / character (as shown here).
(PID.TID 0000.0001) 
(PID.TID 0000.0001)  MNC_READPARMS: finished reading data.mnc
(PID.TID 0000.0001)  SHELFICE_READPARMS: opening data.shelfice
(PID.TID 0000.0001)  OPEN_COPY_DATA_FILE: opening file data.shelfice
(PID.TID 0000.0001) // =======================================================
(PID.TID 0000.0001) // Parameter file "data.shelfice"
(PID.TID 0000.0001) // =======================================================
(PID.TID 0000.0001) ># ===================================
(PID.TID 0000.0001) ># | Parameters for SHELFICE package |
(PID.TID 0000.0001) ># ===================================
(PID.TID 0000.0001) > &SHELFICE_PARM01
(PID.TID 0000.0001) > SHELFICEboundaryLayer = .TRUE.,
(PID.TID 0000.0001) > SHELFICEloadAnomalyFile = 'phi0surf.exp1.jmd95z',
(PID.TID 0000.0001) > useISOMIPTD = .TRUE.,
(PID.TID 0000.0001) > no_slip_shelfice = .false.,
(PID.TID 0000.0001) > SHELFICEwriteState = .TRUE.,
(PID.TID 0000.0001) > &
(PID.TID 0000.0001) 
(PID.TID 0000.0001)  SHELFICE_READPARMS: finished reading data.shelfice
(PID.TID 0000.0001) SET_PARMS: done
(PID.TID 0000.0001) %MON XC_max                       =   1.4850000000000E+01
(PID.TID 0000.0001) %MON XC_min                       =   1.5000000000000E-01
(PID.TID 0000.0001) %MON XC_mean                      =   7.5000000000000E+00
(PID.TID 0000.0001) %MON XC_sd                        =   4.3292609068985E+00
(PID.TID 0000.0001) %MON XG_max                       =   1.4700000000000E+01
(PID.TID 0000.0001) %MON XG_min                       =   1.1102230246252E-16
(PID.TID 0000.0001) %MON XG_mean                      =   7.3500000000000E+00
(PID.TID 0000.0001) %MON XG_sd                        =   4.3292609068985E+00
(PID.TID 0000.0001) %MON DXC_max                      =   1.1380125394806E+04
(PID.TID 0000.0001) %MON DXC_min                      =   5.8203914905589E+03
(PID.TID 0000.0001) %MON DXC_mean                     =   8.6215028627206E+03
(PID.TID 0000.0001) %MON DXC_sd                       =   1.6219001271572E+03
(PID.TID 0000.0001) %MON DXF_max                      =   1.1380125394806E+04
(PID.TID 0000.0001) %MON DXF_min                      =   5.8203914905589E+03
(PID.TID 0000.0001) %MON DXF_mean                     =   8.6215028627206E+03
(PID.TID 0000.0001) %MON DXF_sd                       =   1.6219001271572E+03
(PID.TID 0000.0001) %MON DXG_max                      =   1.1352761512017E+04
(PID.TID 0000.0001) %MON DXG_min                      =   5.7917296935586E+03
(PID.TID 0000.0001) %MON DXG_mean                     =   8.5934208253080E+03
(PID.TID 0000.0001) %MON DXG_sd                       =   1.6222785520817E+03
(PID.TID 0000.0001) %MON DXV_max                      =   1.1352761512017E+04
(PID.TID 0000.0001) %MON DXV_min                      =   5.7917296935586E+03
(PID.TID 0000.0001) %MON DXV_mean                     =   8.5934208253080E+03
(PID.TID 0000.0001) %MON DXV_sd                       =   1.6222785520817E+03
(PID.TID 0000.0001) %MON YC_max                       =  -7.0050000000001E+01
(PID.TID 0000.0001) %MON YC_min                       =  -7.9950000000000E+01
(PID.TID 0000.0001) %MON YC_mean                      =  -7.5000000000000E+01
(PID.TID 0000.0001) %MON YC_sd                        =   2.8866070047720E+00
(PID.TID 0000.0001) %MON YG_max                       =  -7.0100000000001E+01
(PID.TID 0000.0001) %MON YG_min                       =  -8.0000000000000E+01
(PID.TID 0000.0001) %MON YG_mean                      =  -7.5050000000000E+01
(PID.TID 0000.0001) %MON YG_sd                        =   2.8866070047720E+00
(PID.TID 0000.0001) %MON DYC_max                      =   1.1117747335204E+04
(PID.TID 0000.0001) %MON DYC_min                      =   1.1117747335204E+04
(PID.TID 0000.0001) %MON DYC_mean                     =   1.1117747335203E+04
(PID.TID 0000.0001) %MON DYC_sd                       =   6.0754246078432E-10
(PID.TID 0000.0001) %MON DYF_max                      =   1.1117747335204E+04
(PID.TID 0000.0001) %MON DYF_min                      =   1.1117747335204E+04
(PID.TID 0000.0001) %MON DYF_mean                     =   1.1117747335203E+04
(PID.TID 0000.0001) %MON DYF_sd                       =   6.0754246078432E-10
(PID.TID 0000.0001) %MON DYG_max                      =   1.1117747335204E+04
(PID.TID 0000.0001) %MON DYG_min                      =   1.1117747335204E+04
(PID.TID 0000.0001) %MON DYG_mean                     =   1.1117747335203E+04
(PID.TID 0000.0001) %MON DYG_sd                       =   6.0754246078432E-10
(PID.TID 0000.0001) %MON DYU_max                      =   1.1117747335204E+04
(PID.TID 0000.0001) %MON DYU_min                      =   1.1117747335204E+04
(PID.TID 0000.0001) %MON DYU_mean                     =   1.1117747335203E+04
(PID.TID 0000.0001) %MON DYU_sd                       =   6.0754246078432E-10
(PID.TID 0000.0001) %MON RA_max                       =   1.2652134272379E+08
(PID.TID 0000.0001) %MON RA_min                       =   6.4709633770803E+07
(PID.TID 0000.0001) %MON RA_mean                      =   9.5851678311588E+07
(PID.TID 0000.0001) %MON RA_sd                        =   1.8031873527991E+07
(PID.TID 0000.0001) %MON RAW_max                      =   1.2652134272379E+08
(PID.TID 0000.0001) %MON RAW_min                      =   6.4709633770803E+07
(PID.TID 0000.0001) %MON RAW_mean                     =   9.5851678311588E+07
(PID.TID 0000.0001) %MON RAW_sd                       =   1.8031873527991E+07
(PID.TID 0000.0001) %MON RAS_max                      =   1.2621711802744E+08
(PID.TID 0000.0001) %MON RAS_min                      =   6.4390979194019E+07
(PID.TID 0000.0001) %MON RAS_mean                     =   9.5539469354603E+07
(PID.TID 0000.0001) %MON RAS_sd                       =   1.8036080760153E+07
(PID.TID 0000.0001) %MON RAZ_max                      =   1.2621711802744E+08
(PID.TID 0000.0001) %MON RAZ_min                      =   6.4390979194019E+07
(PID.TID 0000.0001) %MON RAZ_mean                     =   9.5539469354603E+07
(PID.TID 0000.0001) %MON RAZ_sd                       =   1.8036080760153E+07
(PID.TID 0000.0001) %MON AngleCS_max                  =   1.0000000000000E+00
(PID.TID 0000.0001) %MON AngleCS_min                  =   1.0000000000000E+00
(PID.TID 0000.0001) %MON AngleCS_mean                 =   1.0000000000000E+00
(PID.TID 0000.0001) %MON AngleCS_sd                   =   0.0000000000000E+00
(PID.TID 0000.0001) %MON AngleSN_max                  =   0.0000000000000E+00
(PID.TID 0000.0001) %MON AngleSN_min                  =   0.0000000000000E+00
(PID.TID 0000.0001) %MON AngleSN_mean                 =   0.0000000000000E+00
(PID.TID 0000.0001) %MON AngleSN_sd                   =   0.0000000000000E+00
(PID.TID 0000.0001)  MDSREADFIELD: opening global file: bathy.box
(PID.TID 0000.0001) // =======================================================
(PID.TID 0000.0001) // Field Bottom depths (ini_depths) at iteration          1
(PID.TID 0000.0001) // CMIN =         -9.000000000000000E+02
(PID.TID 0000.0001) // CMAX =         -9.000000000000000E+02
(PID.TID 0000.0001) // CINT =          0.000000000000000E+00
(PID.TID 0000.0001) // SYMBOLS (CMIN->CMAX): -abcdefghijklmnopqrstuvwxyz+
(PID.TID 0000.0001) //                  0.0: .
(PID.TID 0000.0001) // RANGE I (Lo:Hi:Step):(  -2:  53:   1)
(PID.TID 0000.0001) // RANGE J (Lo:Hi:Step):( 103:  -2:  -1)
(PID.TID 0000.0001) // RANGE K (Lo:Hi:Step):(   1:   1:   1)
(PID.TID 0000.0001) // =======================================================
(PID.TID 0000.0001) // =======================================================
(PID.TID 0000.0001) // END OF FIELD                                          =
(PID.TID 0000.0001) // =======================================================
(PID.TID 0000.0001) 
(PID.TID 0000.0001)  MDSREADFIELD: opening global file: icetopo.exp1
(PID.TID 0000.0001) // =======================================================
(PID.TID 0000.0001) // Field Model R_low (ini_masks_etc) at iteration          1
(PID.TID 0000.0001) // CMIN =         -9.000000000000000E+02
(PID.TID 0000.0001) // CMAX =         -9.000000000000000E+02
(PID.TID 0000.0001) // CINT =          0.000000000000000E+00
(PID.TID 0000.0001) // SYMBOLS (CMIN->CMAX): -abcdefghijklmnopqrstuvwxyz+
(PID.TID 0000.0001) //                  0.0: .
(PID.TID 0000.0001) // RANGE I (Lo:Hi:Step):(  -2:  53:   1)
(PID.TID 0000.0001) // RANGE J (Lo:Hi:Step):( 103:  -2:  -1)
(PID.TID 0000.0001) // RANGE K (Lo:Hi:Step):(   1:   1:   1)
(PID.TID 0000.0001) // =======================================================
(PID.TID 0000.0001) // =======================================================
(PID.TID 0000.0001) // END OF FIELD                                          =
(PID.TID 0000.0001) // =======================================================
(PID.TID 0000.0001) 
(PID.TID 0000.0001) // =======================================================
(PID.TID 0000.0001) // Field Model Ro_surf (ini_masks_etc) at iteration          1
(PID.TID 0000.0001) // CMIN =         -6.812500000000010E+02
(PID.TID 0000.0001) // CMAX =         -2.000000000000000E+02
(PID.TID 0000.0001) // CINT =          1.782407407407411E+01
(PID.TID 0000.0001) // SYMBOLS (CMIN->CMAX): -abcdefghijklmnopqrstuvwxyz+
(PID.TID 0000.0001) //                  0.0: .
(PID.TID 0000.0001) // RANGE I (Lo:Hi:Step):(  -2:  53:   1)
(PID.TID 0000.0001) // RANGE J (Lo:Hi:Step):( 103:  -2:  -1)
(PID.TID 0000.0001) // RANGE K (Lo:Hi:Step):(   1:   1:   1)
(PID.TID 0000.0001) // =======================================================
(PID.TID 0000.0001) K =   1
(PID.TID 0000.0001) //                I=7       I=17      I=27      I=37      I=47
(PID.TID 0000.0001) // |--J--|**0123456|890123456|890123456|890123456|890123456|890123
(PID.TID 0000.0001) //    103 aaa.aaaaaaaaaaaaaaaaaaaaaaaaaaaaaaaaaaaaaaaaaaaaaaaaa.aa
(PID.TID 0000.0001) //    102 ---.-------------------------------------------------.--
(PID.TID 0000.0001) //    101 ........................................................
(PID.TID 0000.0001) //    100 +++.+++++++++++++++++++++++++++++++++++++++++++++++++.++
(PID.TID 0000.0001) //     99 +++.+++++++++++++++++++++++++++++++++++++++++++++++++.++
(PID.TID 0000.0001) //     98 +++.+++++++++++++++++++++++++++++++++++++++++++++++++.++
(PID.TID 0000.0001) //     97 +++.+++++++++++++++++++++++++++++++++++++++++++++++++.++
(PID.TID 0000.0001) //     96 +++.+++++++++++++++++++++++++++++++++++++++++++++++++.++
(PID.TID 0000.0001) //     95 +++.+++++++++++++++++++++++++++++++++++++++++++++++++.++
(PID.TID 0000.0001) //     94 +++.+++++++++++++++++++++++++++++++++++++++++++++++++.++
(PID.TID 0000.0001) //     93 +++.+++++++++++++++++++++++++++++++++++++++++++++++++.++
(PID.TID 0000.0001) //     92 +++.+++++++++++++++++++++++++++++++++++++++++++++++++.++
(PID.TID 0000.0001) //     91 +++.+++++++++++++++++++++++++++++++++++++++++++++++++.++
(PID.TID 0000.0001) //     90 +++.+++++++++++++++++++++++++++++++++++++++++++++++++.++
(PID.TID 0000.0001) //     89 +++.+++++++++++++++++++++++++++++++++++++++++++++++++.++
(PID.TID 0000.0001) //     88 +++.+++++++++++++++++++++++++++++++++++++++++++++++++.++
(PID.TID 0000.0001) //     87 +++.+++++++++++++++++++++++++++++++++++++++++++++++++.++
(PID.TID 0000.0001) //     86 +++.+++++++++++++++++++++++++++++++++++++++++++++++++.++
(PID.TID 0000.0001) //     85 +++.+++++++++++++++++++++++++++++++++++++++++++++++++.++
(PID.TID 0000.0001) //     84 +++.+++++++++++++++++++++++++++++++++++++++++++++++++.++
(PID.TID 0000.0001) //     83 +++.+++++++++++++++++++++++++++++++++++++++++++++++++.++
(PID.TID 0000.0001) //     82 +++.+++++++++++++++++++++++++++++++++++++++++++++++++.++
(PID.TID 0000.0001) //     81 +++.+++++++++++++++++++++++++++++++++++++++++++++++++.++
(PID.TID 0000.0001) //     80 +++.+++++++++++++++++++++++++++++++++++++++++++++++++.++
(PID.TID 0000.0001) //     79 +++.+++++++++++++++++++++++++++++++++++++++++++++++++.++
(PID.TID 0000.0001) //     78 +++.+++++++++++++++++++++++++++++++++++++++++++++++++.++
(PID.TID 0000.0001) //     77 +++.+++++++++++++++++++++++++++++++++++++++++++++++++.++
(PID.TID 0000.0001) //     76 +++.+++++++++++++++++++++++++++++++++++++++++++++++++.++
(PID.TID 0000.0001) //     75 +++.+++++++++++++++++++++++++++++++++++++++++++++++++.++
(PID.TID 0000.0001) //     74 +++.+++++++++++++++++++++++++++++++++++++++++++++++++.++
(PID.TID 0000.0001) //     73 +++.+++++++++++++++++++++++++++++++++++++++++++++++++.++
(PID.TID 0000.0001) //     72 +++.+++++++++++++++++++++++++++++++++++++++++++++++++.++
(PID.TID 0000.0001) //     71 +++.+++++++++++++++++++++++++++++++++++++++++++++++++.++
(PID.TID 0000.0001) //     70 +++.+++++++++++++++++++++++++++++++++++++++++++++++++.++
(PID.TID 0000.0001) //     69 +++.+++++++++++++++++++++++++++++++++++++++++++++++++.++
(PID.TID 0000.0001) //     68 +++.+++++++++++++++++++++++++++++++++++++++++++++++++.++
(PID.TID 0000.0001) //     67 +++.+++++++++++++++++++++++++++++++++++++++++++++++++.++
(PID.TID 0000.0001) //     66 +++.+++++++++++++++++++++++++++++++++++++++++++++++++.++
(PID.TID 0000.0001) //     65 +++.+++++++++++++++++++++++++++++++++++++++++++++++++.++
(PID.TID 0000.0001) //     64 +++.+++++++++++++++++++++++++++++++++++++++++++++++++.++
(PID.TID 0000.0001) //     63 +++.+++++++++++++++++++++++++++++++++++++++++++++++++.++
(PID.TID 0000.0001) //     62 +++.+++++++++++++++++++++++++++++++++++++++++++++++++.++
(PID.TID 0000.0001) //     61 +++.+++++++++++++++++++++++++++++++++++++++++++++++++.++
(PID.TID 0000.0001) //     60 +++.+++++++++++++++++++++++++++++++++++++++++++++++++.++
(PID.TID 0000.0001) //     59 +++.+++++++++++++++++++++++++++++++++++++++++++++++++.++
(PID.TID 0000.0001) //     58 +++.+++++++++++++++++++++++++++++++++++++++++++++++++.++
(PID.TID 0000.0001) //     57 +++.+++++++++++++++++++++++++++++++++++++++++++++++++.++
(PID.TID 0000.0001) //     56 +++.+++++++++++++++++++++++++++++++++++++++++++++++++.++
(PID.TID 0000.0001) //     55 +++.+++++++++++++++++++++++++++++++++++++++++++++++++.++
(PID.TID 0000.0001) //     54 +++.+++++++++++++++++++++++++++++++++++++++++++++++++.++
(PID.TID 0000.0001) //     53 +++.+++++++++++++++++++++++++++++++++++++++++++++++++.++
(PID.TID 0000.0001) //     52 +++.+++++++++++++++++++++++++++++++++++++++++++++++++.++
(PID.TID 0000.0001) //     51 +++.+++++++++++++++++++++++++++++++++++++++++++++++++.++
(PID.TID 0000.0001) //     50 +++.+++++++++++++++++++++++++++++++++++++++++++++++++.++
(PID.TID 0000.0001) //     49 +++.+++++++++++++++++++++++++++++++++++++++++++++++++.++
(PID.TID 0000.0001) //     48 +++.+++++++++++++++++++++++++++++++++++++++++++++++++.++
(PID.TID 0000.0001) //     53 +++.+++++++++++++++++++++++++++++++++++++++++++++++++.++
(PID.TID 0000.0001) //     52 +++.+++++++++++++++++++++++++++++++++++++++++++++++++.++
(PID.TID 0000.0001) //     51 +++.+++++++++++++++++++++++++++++++++++++++++++++++++.++
(PID.TID 0000.0001) //     50 +++.+++++++++++++++++++++++++++++++++++++++++++++++++.++
(PID.TID 0000.0001) //     49 +++.+++++++++++++++++++++++++++++++++++++++++++++++++.++
(PID.TID 0000.0001) //     48 +++.+++++++++++++++++++++++++++++++++++++++++++++++++.++
(PID.TID 0000.0001) //     47 +++.+++++++++++++++++++++++++++++++++++++++++++++++++.++
(PID.TID 0000.0001) //     46 +++.+++++++++++++++++++++++++++++++++++++++++++++++++.++
(PID.TID 0000.0001) //     45 +++.+++++++++++++++++++++++++++++++++++++++++++++++++.++
(PID.TID 0000.0001) //     44 +++.+++++++++++++++++++++++++++++++++++++++++++++++++.++
(PID.TID 0000.0001) //     43 +++.+++++++++++++++++++++++++++++++++++++++++++++++++.++
(PID.TID 0000.0001) //     42 +++.+++++++++++++++++++++++++++++++++++++++++++++++++.++
(PID.TID 0000.0001) //     41 +++.+++++++++++++++++++++++++++++++++++++++++++++++++.++
(PID.TID 0000.0001) //     40 +++.+++++++++++++++++++++++++++++++++++++++++++++++++.++
(PID.TID 0000.0001) //     39 zzz.zzzzzzzzzzzzzzzzzzzzzzzzzzzzzzzzzzzzzzzzzzzzzzzzz.zz
(PID.TID 0000.0001) //     38 yyy.yyyyyyyyyyyyyyyyyyyyyyyyyyyyyyyyyyyyyyyyyyyyyyyyy.yy
(PID.TID 0000.0001) //     37 yyy.yyyyyyyyyyyyyyyyyyyyyyyyyyyyyyyyyyyyyyyyyyyyyyyyy.yy
(PID.TID 0000.0001) //     36 xxx.xxxxxxxxxxxxxxxxxxxxxxxxxxxxxxxxxxxxxxxxxxxxxxxxx.xx
(PID.TID 0000.0001) //     35 www.wwwwwwwwwwwwwwwwwwwwwwwwwwwwwwwwwwwwwwwwwwwwwwwww.ww
(PID.TID 0000.0001) //     34 vvv.vvvvvvvvvvvvvvvvvvvvvvvvvvvvvvvvvvvvvvvvvvvvvvvvv.vv
(PID.TID 0000.0001) //     33 vvv.vvvvvvvvvvvvvvvvvvvvvvvvvvvvvvvvvvvvvvvvvvvvvvvvv.vv
(PID.TID 0000.0001) //     32 uuu.uuuuuuuuuuuuuuuuuuuuuuuuuuuuuuuuuuuuuuuuuuuuuuuuu.uu
(PID.TID 0000.0001) //     31 ttt.ttttttttttttttttttttttttttttttttttttttttttttttttt.tt
(PID.TID 0000.0001) //     30 ttt.ttttttttttttttttttttttttttttttttttttttttttttttttt.tt
(PID.TID 0000.0001) //     29 sss.sssssssssssssssssssssssssssssssssssssssssssssssss.ss
(PID.TID 0000.0001) //     28 rrr.rrrrrrrrrrrrrrrrrrrrrrrrrrrrrrrrrrrrrrrrrrrrrrrrr.rr
(PID.TID 0000.0001) //     27 rrr.rrrrrrrrrrrrrrrrrrrrrrrrrrrrrrrrrrrrrrrrrrrrrrrrr.rr
(PID.TID 0000.0001) //     26 qqq.qqqqqqqqqqqqqqqqqqqqqqqqqqqqqqqqqqqqqqqqqqqqqqqqq.qq
(PID.TID 0000.0001) //     25 ppp.ppppppppppppppppppppppppppppppppppppppppppppppppp.pp
(PID.TID 0000.0001) //     24 ooo.ooooooooooooooooooooooooooooooooooooooooooooooooo.oo
(PID.TID 0000.0001) //     23 ooo.ooooooooooooooooooooooooooooooooooooooooooooooooo.oo
(PID.TID 0000.0001) //     22 nnn.nnnnnnnnnnnnnnnnnnnnnnnnnnnnnnnnnnnnnnnnnnnnnnnnn.nn
(PID.TID 0000.0001) //     21 mmm.mmmmmmmmmmmmmmmmmmmmmmmmmmmmmmmmmmmmmmmmmmmmmmmmm.mm
(PID.TID 0000.0001) //     20 mmm.mmmmmmmmmmmmmmmmmmmmmmmmmmmmmmmmmmmmmmmmmmmmmmmmm.mm
(PID.TID 0000.0001) //     19 lll.lllllllllllllllllllllllllllllllllllllllllllllllll.ll
(PID.TID 0000.0001) //     18 kkk.kkkkkkkkkkkkkkkkkkkkkkkkkkkkkkkkkkkkkkkkkkkkkkkkk.kk
(PID.TID 0000.0001) //     17 kkk.kkkkkkkkkkkkkkkkkkkkkkkkkkkkkkkkkkkkkkkkkkkkkkkkk.kk
(PID.TID 0000.0001) //     16 jjj.jjjjjjjjjjjjjjjjjjjjjjjjjjjjjjjjjjjjjjjjjjjjjjjjj.jj
(PID.TID 0000.0001) //     15 iii.iiiiiiiiiiiiiiiiiiiiiiiiiiiiiiiiiiiiiiiiiiiiiiiii.ii
(PID.TID 0000.0001) //     14 hhh.hhhhhhhhhhhhhhhhhhhhhhhhhhhhhhhhhhhhhhhhhhhhhhhhh.hh
(PID.TID 0000.0001) //     13 hhh.hhhhhhhhhhhhhhhhhhhhhhhhhhhhhhhhhhhhhhhhhhhhhhhhh.hh
(PID.TID 0000.0001) //     12 ggg.ggggggggggggggggggggggggggggggggggggggggggggggggg.gg
(PID.TID 0000.0001) //     11 fff.fffffffffffffffffffffffffffffffffffffffffffffffff.ff
(PID.TID 0000.0001) //     10 fff.fffffffffffffffffffffffffffffffffffffffffffffffff.ff
(PID.TID 0000.0001) //      9 eee.eeeeeeeeeeeeeeeeeeeeeeeeeeeeeeeeeeeeeeeeeeeeeeeee.ee
(PID.TID 0000.0001) //      8 ddd.ddddddddddddddddddddddddddddddddddddddddddddddddd.dd
(PID.TID 0000.0001) //      7 ddd.ddddddddddddddddddddddddddddddddddddddddddddddddd.dd
(PID.TID 0000.0001) //      6 ccc.ccccccccccccccccccccccccccccccccccccccccccccccccc.cc
(PID.TID 0000.0001) //      5 bbb.bbbbbbbbbbbbbbbbbbbbbbbbbbbbbbbbbbbbbbbbbbbbbbbbb.bb
(PID.TID 0000.0001) //      4 aaa.aaaaaaaaaaaaaaaaaaaaaaaaaaaaaaaaaaaaaaaaaaaaaaaaa.aa
(PID.TID 0000.0001) //      3 aaa.aaaaaaaaaaaaaaaaaaaaaaaaaaaaaaaaaaaaaaaaaaaaaaaaa.aa
(PID.TID 0000.0001) //      2 ---.-------------------------------------------------.--
(PID.TID 0000.0001) //      1 ........................................................
(PID.TID 0000.0001) //      0 +++.+++++++++++++++++++++++++++++++++++++++++++++++++.++
(PID.TID 0000.0001) //     -1 +++.+++++++++++++++++++++++++++++++++++++++++++++++++.++
(PID.TID 0000.0001) //     -2 +++.+++++++++++++++++++++++++++++++++++++++++++++++++.++
(PID.TID 0000.0001) // =======================================================
(PID.TID 0000.0001) // END OF FIELD                                          =
(PID.TID 0000.0001) // =======================================================
(PID.TID 0000.0001) 
(PID.TID 0000.0001) // =======================================================
(PID.TID 0000.0001) // Field hFacC at iteration          1
(PID.TID 0000.0001) // CMIN =          1.000000000000000E+32
(PID.TID 0000.0001) // CMAX =         -1.000000000000000E+32
(PID.TID 0000.0001) // CINT =          0.000000000000000E+00
(PID.TID 0000.0001) // SYMBOLS (CMIN->CMAX): -abcdefghijklmnopqrstuvwxyz+
(PID.TID 0000.0001) //                  0.0: .
(PID.TID 0000.0001) // RANGE I (Lo:Hi:Step):(  -2:  53:   1)
(PID.TID 0000.0001) // RANGE J (Lo:Hi:Step):( 103:  -2:  -1)
(PID.TID 0000.0001) // RANGE K (Lo:Hi:Step):(   1:   1:   1)
(PID.TID 0000.0001) // =======================================================
(PID.TID 0000.0001) // =======================================================
(PID.TID 0000.0001) // END OF FIELD                                          =
(PID.TID 0000.0001) // =======================================================
(PID.TID 0000.0001) 
(PID.TID 0000.0001) // =======================================================
(PID.TID 0000.0001) // Field hFacW at iteration          1
(PID.TID 0000.0001) // CMIN =          1.000000000000000E+32
(PID.TID 0000.0001) // CMAX =         -1.000000000000000E+32
(PID.TID 0000.0001) // CINT =          0.000000000000000E+00
(PID.TID 0000.0001) // SYMBOLS (CMIN->CMAX): -abcdefghijklmnopqrstuvwxyz+
(PID.TID 0000.0001) //                  0.0: .
(PID.TID 0000.0001) // RANGE I (Lo:Hi:Step):(  -2:  53:   1)
(PID.TID 0000.0001) // RANGE J (Lo:Hi:Step):( 103:  -2:  -1)
(PID.TID 0000.0001) // RANGE K (Lo:Hi:Step):(   1:   1:   1)
(PID.TID 0000.0001) // =======================================================
(PID.TID 0000.0001) // =======================================================
(PID.TID 0000.0001) // END OF FIELD                                          =
(PID.TID 0000.0001) // =======================================================
(PID.TID 0000.0001) 
(PID.TID 0000.0001) // =======================================================
(PID.TID 0000.0001) // Field hFacS at iteration          1
(PID.TID 0000.0001) // CMIN =          1.000000000000000E+32
(PID.TID 0000.0001) // CMAX =         -1.000000000000000E+32
(PID.TID 0000.0001) // CINT =          0.000000000000000E+00
(PID.TID 0000.0001) // SYMBOLS (CMIN->CMAX): -abcdefghijklmnopqrstuvwxyz+
(PID.TID 0000.0001) //                  0.0: .
(PID.TID 0000.0001) // RANGE I (Lo:Hi:Step):(  -2:  53:   1)
(PID.TID 0000.0001) // RANGE J (Lo:Hi:Step):( 103:  -2:  -1)
(PID.TID 0000.0001) // RANGE K (Lo:Hi:Step):(   1:   1:   1)
(PID.TID 0000.0001) // =======================================================
(PID.TID 0000.0001) // =======================================================
(PID.TID 0000.0001) // END OF FIELD                                          =
(PID.TID 0000.0001) // =======================================================
(PID.TID 0000.0001) 
(PID.TID 0000.0001) 
(PID.TID 0000.0001) // ===================================
(PID.TID 0000.0001) // GAD parameters :
(PID.TID 0000.0001) // ===================================
(PID.TID 0000.0001) tempAdvScheme =   /* Temp. Horiz.Advection scheme selector */
(PID.TID 0000.0001)                       2
(PID.TID 0000.0001)     ;
(PID.TID 0000.0001) tempVertAdvScheme =   /* Temp. Vert. Advection scheme selector */
(PID.TID 0000.0001)                       2
(PID.TID 0000.0001)     ;
(PID.TID 0000.0001) tempMultiDimAdvec =   /* use Muti-Dim Advec method for Temp */
(PID.TID 0000.0001)                   F
(PID.TID 0000.0001)     ;
(PID.TID 0000.0001) AdamsBashforthGt =   /* apply Adams-Bashforth extrapolation on Gt */
(PID.TID 0000.0001)                   T
(PID.TID 0000.0001)     ;
(PID.TID 0000.0001) AdamsBashforth_T =   /* apply Adams-Bashforth extrapolation on Temp */
(PID.TID 0000.0001)                   F
(PID.TID 0000.0001)     ;
(PID.TID 0000.0001) saltAdvScheme =   /* Salt. Horiz.advection scheme selector */
(PID.TID 0000.0001)                       2
(PID.TID 0000.0001)     ;
(PID.TID 0000.0001) saltVertAdvScheme =   /* Salt. Vert. Advection scheme selector */
(PID.TID 0000.0001)                       2
(PID.TID 0000.0001)     ;
(PID.TID 0000.0001) saltMultiDimAdvec =   /* use Muti-Dim Advec method for Salt */
(PID.TID 0000.0001)                   F
(PID.TID 0000.0001)     ;
(PID.TID 0000.0001) AdamsBashforthGs =   /* apply Adams-Bashforth extrapolation on Gs */
(PID.TID 0000.0001)                   T
(PID.TID 0000.0001)     ;
(PID.TID 0000.0001) AdamsBashforth_S =   /* apply Adams-Bashforth extrapolation on Salt */
(PID.TID 0000.0001)                   F
(PID.TID 0000.0001)     ;
(PID.TID 0000.0001) // ===================================
(PID.TID 0000.0001)  MDSREADFIELD: opening global file: phi0surf.exp1.jmd95z
(PID.TID 0000.0001) SHELFICE_CHECK: #define ALLOW_SHELFICE
(PID.TID 0000.0001) %MON fCori_max                    =  -1.3709057042516E-04
(PID.TID 0000.0001) %MON fCori_min                    =  -1.4360464034757E-04
(PID.TID 0000.0001) %MON fCori_mean                   =  -1.4069429304699E-04
(PID.TID 0000.0001) %MON fCori_sd                     =   1.9069739624987E-06
(PID.TID 0000.0001) %MON fCoriG_max                   =  -1.3713394327439E-04
(PID.TID 0000.0001) %MON fCoriG_min                   =  -1.4362679550910E-04
(PID.TID 0000.0001) %MON fCoriG_mean                  =  -1.4072713798624E-04
(PID.TID 0000.0001) %MON fCoriG_sd                    =   1.9008093726821E-06
(PID.TID 0000.0001) %MON fCoriCos_max                 =   4.9761447480159E-05
(PID.TID 0000.0001) %MON fCoriCos_min                 =   2.5450607565678E-05
(PID.TID 0000.0001) %MON fCoriCos_mean                =   3.7698922201606E-05
(PID.TID 0000.0001) %MON fCoriCos_sd                  =   7.0920218535054E-06
(PID.TID 0000.0001) INI_CG2D: CG2D normalisation factor =  1.0404366262810520E-03
(PID.TID 0000.0001) 
(PID.TID 0000.0001) CONFIG_CHECK: OK
(PID.TID 0000.0001) // =======================================================
(PID.TID 0000.0001) // Model configuration
(PID.TID 0000.0001) // =======================================================
(PID.TID 0000.0001) //
(PID.TID 0000.0001) // "Physical" paramters ( PARM01 in namelist )
(PID.TID 0000.0001) //
(PID.TID 0000.0001) buoyancyRelation = OCEANIC
(PID.TID 0000.0001) fluidIsAir  =  /* fluid major constituent is Air */
(PID.TID 0000.0001)                   F
(PID.TID 0000.0001)     ;
(PID.TID 0000.0001) fluidIsWater=  /* fuild major constituent is Water */
(PID.TID 0000.0001)                   T
(PID.TID 0000.0001)     ;
(PID.TID 0000.0001) usingPCoords =  /* use p (or p*) vertical coordinate */
(PID.TID 0000.0001)                   F
(PID.TID 0000.0001)     ;
(PID.TID 0000.0001) usingZCoords =  /* use z (or z*) vertical coordinate */
(PID.TID 0000.0001)                   T
(PID.TID 0000.0001)     ;
(PID.TID 0000.0001) tRef =   /* Reference temperature profile ( oC or K ) */
(PID.TID 0000.0001)    30 @ -1.900000000000000E+00              /* K =  1: 30 */
(PID.TID 0000.0001)     ;
(PID.TID 0000.0001) sRef =   /* Reference salinity profile ( psu ) */
(PID.TID 0000.0001)    30 @  3.440000000000000E+01              /* K =  1: 30 */
(PID.TID 0000.0001)     ;
(PID.TID 0000.0001) viscAh =   /* Lateral eddy viscosity ( m^2/s ) */
(PID.TID 0000.0001)                 6.000000000000000E+02
(PID.TID 0000.0001)     ;
(PID.TID 0000.0001) viscAhMax =   /* Maximum lateral eddy viscosity ( m^2/s ) */
(PID.TID 0000.0001)                 1.000000000000000E+21
(PID.TID 0000.0001)     ;
(PID.TID 0000.0001) viscAhGrid =   /* Grid dependent lateral eddy viscosity ( non-dim. ) */
(PID.TID 0000.0001)                 0.000000000000000E+00
(PID.TID 0000.0001)     ;
(PID.TID 0000.0001) useFullLeith =   /* Use Full Form of Leith Viscosity on/off flag*/
(PID.TID 0000.0001)                   F
(PID.TID 0000.0001)     ;
(PID.TID 0000.0001) useStrainTensionVisc =   /* Use StrainTension Form of Viscous Operator on/off flag*/
(PID.TID 0000.0001)                   F
(PID.TID 0000.0001)     ;
(PID.TID 0000.0001) useAreaViscLength =   /* Use area for visc length instead of geom. mean*/
(PID.TID 0000.0001)                   F
(PID.TID 0000.0001)     ;
(PID.TID 0000.0001) viscC2leith = /* Leith harmonic visc. factor (on grad(vort),non-dim.) */
(PID.TID 0000.0001)                 0.000000000000000E+00
(PID.TID 0000.0001)     ;
(PID.TID 0000.0001) viscC2leithD = /* Leith harmonic viscosity factor (on grad(div),non-dim.) */
(PID.TID 0000.0001)                 0.000000000000000E+00
(PID.TID 0000.0001)     ;
(PID.TID 0000.0001) viscC2smag =   /* Smagorinsky harmonic viscosity factor (non-dim.) */
(PID.TID 0000.0001)                 0.000000000000000E+00
(PID.TID 0000.0001)     ;
(PID.TID 0000.0001) viscA4 =   /* Lateral biharmonic viscosity ( m^4/s ) */
(PID.TID 0000.0001)                 0.000000000000000E+00
(PID.TID 0000.0001)     ;
(PID.TID 0000.0001) viscA4Max =   /* Maximum biharmonic viscosity ( m^2/s ) */
(PID.TID 0000.0001)                 1.000000000000000E+21
(PID.TID 0000.0001)     ;
(PID.TID 0000.0001) viscA4Grid =   /* Grid dependent biharmonic viscosity ( non-dim. ) */
(PID.TID 0000.0001)                 0.000000000000000E+00
(PID.TID 0000.0001)     ;
(PID.TID 0000.0001) viscC4leith = /* Leith biharm viscosity factor (on grad(vort), non-dim.) */
(PID.TID 0000.0001)                 0.000000000000000E+00
(PID.TID 0000.0001)     ;
(PID.TID 0000.0001) viscC4leithD = /* Leith biharm viscosity factor (on grad(div), non-dim.) */
(PID.TID 0000.0001)                 0.000000000000000E+00
(PID.TID 0000.0001)     ;
(PID.TID 0000.0001) viscC4Smag = /* Smagorinsky biharm viscosity factor (non-dim) */
(PID.TID 0000.0001)                 0.000000000000000E+00
(PID.TID 0000.0001)     ;
(PID.TID 0000.0001) no_slip_sides =  /* Viscous BCs: No-slip sides */
(PID.TID 0000.0001)                   F
(PID.TID 0000.0001)     ;
(PID.TID 0000.0001) sideDragFactor = /* side-drag scaling factor (non-dim) */
(PID.TID 0000.0001)                 2.000000000000000E+00
(PID.TID 0000.0001)     ;
(PID.TID 0000.0001) viscAr =   /* Vertical eddy viscosity ( units of r^2/s ) */
(PID.TID 0000.0001)                 1.000000000000000E-03
(PID.TID 0000.0001)     ;
(PID.TID 0000.0001) no_slip_bottom =  /* Viscous BCs: No-slip bottom */
(PID.TID 0000.0001)                   F
(PID.TID 0000.0001)     ;
(PID.TID 0000.0001) bottomDragLinear = /* linear bottom-drag coefficient ( 1/s ) */
(PID.TID 0000.0001)                 0.000000000000000E+00
(PID.TID 0000.0001)     ;
(PID.TID 0000.0001) bottomDragQuadratic = /* quadratic bottom-drag coeff. ( 1/m ) */
(PID.TID 0000.0001)                 2.500000000000000E-03
(PID.TID 0000.0001)     ;
(PID.TID 0000.0001) diffKhT =   /* Laplacian diffusion of heat laterally ( m^2/s ) */
(PID.TID 0000.0001)                 1.000000000000000E+02
(PID.TID 0000.0001)     ;
(PID.TID 0000.0001) diffK4T =   /* Bihaarmonic diffusion of heat laterally ( m^4/s ) */
(PID.TID 0000.0001)                 0.000000000000000E+00
(PID.TID 0000.0001)     ;
(PID.TID 0000.0001) diffKhS =   /* Laplacian diffusion of salt laterally ( m^2/s ) */
(PID.TID 0000.0001)                 1.000000000000000E+02
(PID.TID 0000.0001)     ;
(PID.TID 0000.0001) diffK4S =   /* Bihaarmonic diffusion of salt laterally ( m^4/s ) */
(PID.TID 0000.0001)                 0.000000000000000E+00
(PID.TID 0000.0001)     ;
(PID.TID 0000.0001) diffKrNrT = /* vertical profile of vertical diffusion of Temp ( m^2/s )*/
(PID.TID 0000.0001)    30 @  5.000000000000000E-05              /* K =  1: 30 */
(PID.TID 0000.0001)     ;
(PID.TID 0000.0001) diffKrNrS = /* vertical profile of vertical diffusion of Salt ( m^2/s )*/
(PID.TID 0000.0001)    30 @  5.000000000000000E-05              /* K =  1: 30 */
(PID.TID 0000.0001)     ;
(PID.TID 0000.0001) diffKrBL79surf =   /* Surface diffusion for Bryan and Lewis 1979 ( m^2/s ) */
(PID.TID 0000.0001)                 0.000000000000000E+00
(PID.TID 0000.0001)     ;
(PID.TID 0000.0001) diffKrBL79deep =   /* Deep diffusion for Bryan and Lewis 1979 ( m^2/s ) */
(PID.TID 0000.0001)                 0.000000000000000E+00
(PID.TID 0000.0001)     ;
(PID.TID 0000.0001) diffKrBL79scl =   /* Depth scale for Bryan and Lewis 1979 ( m ) */
(PID.TID 0000.0001)                 2.000000000000000E+02
(PID.TID 0000.0001)     ;
(PID.TID 0000.0001) diffKrBL79Ho =   /* Turning depth for Bryan and Lewis 1979 ( m ) */
(PID.TID 0000.0001)                -2.000000000000000E+03
(PID.TID 0000.0001)     ;
(PID.TID 0000.0001) Equation of State : eosType = JMD95Z ;
(PID.TID 0000.0001) tAlpha =   /* Linear EOS thermal expansion coefficient ( 1/oC ) */
(PID.TID 0000.0001)                 1.234567000000000E+05
(PID.TID 0000.0001)     ;
(PID.TID 0000.0001) sBeta =   /* Linear EOS haline contraction coefficient ( 1/psu ) */
(PID.TID 0000.0001)                 1.234567000000000E+05
(PID.TID 0000.0001)     ;
(PID.TID 0000.0001) rhonil =   /* Reference density ( kg/m^3 ) */
(PID.TID 0000.0001)                 1.030000000000000E+03
(PID.TID 0000.0001)     ;
(PID.TID 0000.0001) rhoConst =   /* Reference density ( kg/m^3 ) */
(PID.TID 0000.0001)                 1.030000000000000E+03
(PID.TID 0000.0001)     ;
(PID.TID 0000.0001) rhoConstFresh =   /* Reference density ( kg/m^3 ) */
(PID.TID 0000.0001)                 1.030000000000000E+03
(PID.TID 0000.0001)     ;
(PID.TID 0000.0001) gravity =   /* Gravitational acceleration ( m/s^2 ) */
(PID.TID 0000.0001)                 9.810000000000000E+00
(PID.TID 0000.0001)     ;
(PID.TID 0000.0001) gBaro =   /* Barotropic gravity ( m/s^2 ) */
(PID.TID 0000.0001)                 9.810000000000000E+00
(PID.TID 0000.0001)     ;
(PID.TID 0000.0001) rotationPeriod =   /* Rotation Period ( s ) */
(PID.TID 0000.0001)                 8.616400000000000E+04
(PID.TID 0000.0001)     ;
(PID.TID 0000.0001) omega =   /* Angular velocity ( rad/s ) */
(PID.TID 0000.0001)                 7.292123516990375E-05
(PID.TID 0000.0001)     ;
(PID.TID 0000.0001) f0 =   /* Reference coriolis parameter ( 1/s ) */
(PID.TID 0000.0001)                 1.000000000000000E-04
(PID.TID 0000.0001)     ;
(PID.TID 0000.0001) beta =   /* Beta ( 1/(m.s) ) */
(PID.TID 0000.0001)                 9.999999999999999E-12
(PID.TID 0000.0001)     ;
(PID.TID 0000.0001) freeSurfFac =   /* Implicit free surface factor */
(PID.TID 0000.0001)                 1.000000000000000E+00
(PID.TID 0000.0001)     ;
(PID.TID 0000.0001) implicitFreeSurface =   /* Implicit free surface on/off flag */
(PID.TID 0000.0001)                   T
(PID.TID 0000.0001)     ;
(PID.TID 0000.0001) rigidLid =   /* Rigid lid on/off flag */
(PID.TID 0000.0001)                   F
(PID.TID 0000.0001)     ;
(PID.TID 0000.0001) implicSurfPress =   /* Surface Pressure implicit factor (0-1)*/
(PID.TID 0000.0001)                 1.000000000000000E+00
(PID.TID 0000.0001)     ;
(PID.TID 0000.0001) implicDiv2Dflow =   /* Barot. Flow Div. implicit factor (0-1)*/
(PID.TID 0000.0001)                 1.000000000000000E+00
(PID.TID 0000.0001)     ;
(PID.TID 0000.0001) exactConserv =   /* Exact Volume Conservation on/off flag*/
(PID.TID 0000.0001)                   T
(PID.TID 0000.0001)     ;
(PID.TID 0000.0001) uniformLin_PhiSurf =   /* use uniform Bo_surf on/off flag*/
(PID.TID 0000.0001)                   T
(PID.TID 0000.0001)     ;
(PID.TID 0000.0001) nonlinFreeSurf =   /* Non-linear Free Surf. options (-1,0,1,2,3)*/
(PID.TID 0000.0001)                       0
(PID.TID 0000.0001)     ;
(PID.TID 0000.0001)      -1,0= Off ; 1,2,3= On, 2=+rescale gU,gV, 3=+update cg2d solv.
(PID.TID 0000.0001) hFacInf =   /* lower threshold for hFac (nonlinFreeSurf only)*/
(PID.TID 0000.0001)                 2.000000000000000E-01
(PID.TID 0000.0001)     ;
(PID.TID 0000.0001) hFacSup =   /* upper threshold for hFac (nonlinFreeSurf only)*/
(PID.TID 0000.0001)                 2.000000000000000E+00
(PID.TID 0000.0001)     ;
(PID.TID 0000.0001) select_rStar =   /* r* Coordinate options (not yet implemented)*/
(PID.TID 0000.0001)                       0
(PID.TID 0000.0001)     ;
(PID.TID 0000.0001) useRealFreshWaterFlux =   /* Real Fresh Water Flux on/off flag*/
(PID.TID 0000.0001)                   F
(PID.TID 0000.0001)     ;
(PID.TID 0000.0001) convertFW2Salt = /* convert F.W. Flux to Salt Flux (-1=use local S)(ppt)*/
(PID.TID 0000.0001)                 3.340000000000000E+01
(PID.TID 0000.0001)     ;
(PID.TID 0000.0001) use3Dsolver = /* use 3-D pressure solver on/off flag */
(PID.TID 0000.0001)                   F
(PID.TID 0000.0001)     ;
(PID.TID 0000.0001) nonHydrostatic =  /* Non-Hydrostatic on/off flag */
(PID.TID 0000.0001)                   F
(PID.TID 0000.0001)     ;
(PID.TID 0000.0001) nh_Am2 = /* Non-Hydrostatic terms scaling factor */
(PID.TID 0000.0001)                 1.000000000000000E+00
(PID.TID 0000.0001)     ;
(PID.TID 0000.0001) quasiHydrostatic = /* Quasi-Hydrostatic on/off flag */
(PID.TID 0000.0001)                   F
(PID.TID 0000.0001)     ;
(PID.TID 0000.0001) momStepping =  /* Momentum equation on/off flag */
(PID.TID 0000.0001)                   T
(PID.TID 0000.0001)     ;
(PID.TID 0000.0001) vectorInvariantMomentum= /* Vector-Invariant Momentum on/off */
(PID.TID 0000.0001)                   F
(PID.TID 0000.0001)     ;
(PID.TID 0000.0001) momAdvection =  /* Momentum advection on/off flag */
(PID.TID 0000.0001)                   T
(PID.TID 0000.0001)     ;
(PID.TID 0000.0001) momViscosity =  /* Momentum viscosity on/off flag */
(PID.TID 0000.0001)                   T
(PID.TID 0000.0001)     ;
(PID.TID 0000.0001) momImplVertAdv =/* Momentum implicit vert. advection on/off*/
(PID.TID 0000.0001)                   F
(PID.TID 0000.0001)     ;
(PID.TID 0000.0001) implicitViscosity = /* Implicit viscosity on/off flag */
(PID.TID 0000.0001)                   F
(PID.TID 0000.0001)     ;
(PID.TID 0000.0001) metricTerms =  /* metric-Terms on/off flag */
(PID.TID 0000.0001)                   T
(PID.TID 0000.0001)     ;
(PID.TID 0000.0001) useNHMTerms = /* Non-Hydrostatic Metric-Terms on/off */
(PID.TID 0000.0001)                   F
(PID.TID 0000.0001)     ;
(PID.TID 0000.0001) useConstantF =  /* use Constant f0 Coriolis flag */
(PID.TID 0000.0001)                   F
(PID.TID 0000.0001)     ;
(PID.TID 0000.0001) useBetaPlaneF = /* use Beta-Plane Coriolis flag */
(PID.TID 0000.0001)                   F
(PID.TID 0000.0001)     ;
(PID.TID 0000.0001) useSphereF  =   /* use Spherical Coriolis flag */
(PID.TID 0000.0001)                   T
(PID.TID 0000.0001)     ;
(PID.TID 0000.0001) use3dCoriolis = /* 3-D Coriolis on/off flag */
(PID.TID 0000.0001)                   F
(PID.TID 0000.0001)     ;
(PID.TID 0000.0001) useCoriolis =  /* Coriolis on/off flag */
(PID.TID 0000.0001)                   T
(PID.TID 0000.0001)     ;
(PID.TID 0000.0001) useCDscheme =  /* CD scheme on/off flag */
(PID.TID 0000.0001)                   T
(PID.TID 0000.0001)     ;
(PID.TID 0000.0001) useJamartWetPoints= /* Coriolis WetPoints method flag */
(PID.TID 0000.0001)                   F
(PID.TID 0000.0001)     ;
(PID.TID 0000.0001) useJamartMomAdv= /* V.I. Non-linear terms Jamart flag */
(PID.TID 0000.0001)                   F
(PID.TID 0000.0001)     ;
(PID.TID 0000.0001) SadournyCoriolis= /* Sadourny Coriolis discr. flag */
(PID.TID 0000.0001)                   F
(PID.TID 0000.0001)     ;
(PID.TID 0000.0001) upwindVorticity= /* Upwind bias vorticity flag */
(PID.TID 0000.0001)                   F
(PID.TID 0000.0001)     ;
(PID.TID 0000.0001) useAbsVorticity= /* Work with f+zeta in Coriolis */
(PID.TID 0000.0001)                   F
(PID.TID 0000.0001)     ;
(PID.TID 0000.0001) highOrderVorticity= /* High order interp. of vort. flag */
(PID.TID 0000.0001)                   F
(PID.TID 0000.0001)     ;
(PID.TID 0000.0001) upwindShear= /* Upwind vertical Shear advection flag */
(PID.TID 0000.0001)                   F
(PID.TID 0000.0001)     ;
(PID.TID 0000.0001) selectKEscheme= /* Kinetic Energy scheme selector */
(PID.TID 0000.0001)                       0
(PID.TID 0000.0001)     ;
(PID.TID 0000.0001) momForcing =  /* Momentum forcing on/off flag */
(PID.TID 0000.0001)                   T
(PID.TID 0000.0001)     ;
(PID.TID 0000.0001) momPressureForcing =  /* Momentum pressure term on/off flag */
(PID.TID 0000.0001)                   T
(PID.TID 0000.0001)     ;
(PID.TID 0000.0001) implicitIntGravWave= /* Implicit Internal Gravity Wave flag */
(PID.TID 0000.0001)                   F
(PID.TID 0000.0001)     ;
(PID.TID 0000.0001) staggerTimeStep =   /* Stagger time stepping on/off flag */
(PID.TID 0000.0001)                   F
(PID.TID 0000.0001)     ;
(PID.TID 0000.0001) multiDimAdvection =   /* enable/disable Multi-Dim Advection */
(PID.TID 0000.0001)                   T
(PID.TID 0000.0001)     ;
(PID.TID 0000.0001) useMultiDimAdvec =   /* Multi-Dim Advection is/is-not used */
(PID.TID 0000.0001)                   F
(PID.TID 0000.0001)     ;
(PID.TID 0000.0001) implicitDiffusion =/* Implicit Diffusion on/off flag */
(PID.TID 0000.0001)                   F
(PID.TID 0000.0001)     ;
(PID.TID 0000.0001) tempStepping =  /* Temperature equation on/off flag */
(PID.TID 0000.0001)                   T
(PID.TID 0000.0001)     ;
(PID.TID 0000.0001) tempAdvection=  /* Temperature advection on/off flag */
(PID.TID 0000.0001)                   T
(PID.TID 0000.0001)     ;
(PID.TID 0000.0001) tempImplVertAdv =/* Temp. implicit vert. advection on/off */
(PID.TID 0000.0001)                   F
(PID.TID 0000.0001)     ;
(PID.TID 0000.0001) tempForcing  =  /* Temperature forcing on/off flag */
(PID.TID 0000.0001)                   T
(PID.TID 0000.0001)     ;
(PID.TID 0000.0001) saltStepping =  /* Salinity equation on/off flag */
(PID.TID 0000.0001)                   T
(PID.TID 0000.0001)     ;
(PID.TID 0000.0001) saltAdvection=  /* Salinity advection on/off flag */
(PID.TID 0000.0001)                   T
(PID.TID 0000.0001)     ;
(PID.TID 0000.0001) saltImplVertAdv =/* Sali. implicit vert. advection on/off */
(PID.TID 0000.0001)                   F
(PID.TID 0000.0001)     ;
(PID.TID 0000.0001) saltForcing  =  /* Salinity forcing on/off flag */
(PID.TID 0000.0001)                   T
(PID.TID 0000.0001)     ;
(PID.TID 0000.0001)  readBinaryPrec = /* Precision used for reading binary files */
(PID.TID 0000.0001)                      64
(PID.TID 0000.0001)     ;
(PID.TID 0000.0001) writeBinaryPrec = /* Precision used for writing binary files */
(PID.TID 0000.0001)                      32
(PID.TID 0000.0001)     ;
(PID.TID 0000.0001)  globalFiles = /* write "global" (=not per tile) files */
(PID.TID 0000.0001)                   F
(PID.TID 0000.0001)     ;
(PID.TID 0000.0001)  useSingleCpuIO = /* only master MPI process does I/O */
(PID.TID 0000.0001)                   F
(PID.TID 0000.0001)     ;
(PID.TID 0000.0001)  debugMode  =  /* Debug Mode on/off flag */
(PID.TID 0000.0001)                   F
(PID.TID 0000.0001)     ;
(PID.TID 0000.0001)    debLevA  =  /* 1rst level of debugging */
(PID.TID 0000.0001)                       1
(PID.TID 0000.0001)     ;
(PID.TID 0000.0001)    debLevB  =  /* 2nd  level of debugging */
(PID.TID 0000.0001)                       2
(PID.TID 0000.0001)     ;
(PID.TID 0000.0001)  debugLevel =  /* select debugging level */
(PID.TID 0000.0001)                       1
(PID.TID 0000.0001)     ;
(PID.TID 0000.0001) //
(PID.TID 0000.0001) // Elliptic solver(s) paramters ( PARM02 in namelist )
(PID.TID 0000.0001) //
(PID.TID 0000.0001) cg2dMaxIters =   /* Upper limit on 2d con. grad iterations  */
(PID.TID 0000.0001)                    1000
(PID.TID 0000.0001)     ;
(PID.TID 0000.0001) cg2dChkResFreq =   /* 2d con. grad convergence test frequency */
(PID.TID 0000.0001)                       1
(PID.TID 0000.0001)     ;
(PID.TID 0000.0001) cg2dTargetResidual =   /* 2d con. grad target residual  */
(PID.TID 0000.0001)                 1.000000000000000E-13
(PID.TID 0000.0001)     ;
(PID.TID 0000.0001) cg2dTargetResWunit =   /* CG2d target residual [W units] */
(PID.TID 0000.0001)                -1.000000000000000E+00
(PID.TID 0000.0001)     ;
(PID.TID 0000.0001) cg2dPreCondFreq =   /* Freq. for updating cg2d preconditioner */
(PID.TID 0000.0001)                       1
(PID.TID 0000.0001)     ;
(PID.TID 0000.0001) //
(PID.TID 0000.0001) // Time stepping paramters ( PARM03 in namelist )
(PID.TID 0000.0001) //
(PID.TID 0000.0001) nIter0 =   /* Run starting timestep number  */
(PID.TID 0000.0001)                       0
(PID.TID 0000.0001)     ;
(PID.TID 0000.0001) nTimeSteps =   /* Number of timesteps */
(PID.TID 0000.0001)                      20
(PID.TID 0000.0001)     ;
(PID.TID 0000.0001) deltaTmom =   /* Momentum equation timestep ( s ) */
(PID.TID 0000.0001)                 1.800000000000000E+03
(PID.TID 0000.0001)     ;
(PID.TID 0000.0001) deltaTfreesurf =   /* FreeSurface equation timestep ( s ) */
(PID.TID 0000.0001)                 1.800000000000000E+03
(PID.TID 0000.0001)     ;
(PID.TID 0000.0001) dTtracerLev =   /* Tracer equation timestep ( s ) */
(PID.TID 0000.0001)    30 @  1.800000000000000E+03              /* K =  1: 30 */
(PID.TID 0000.0001)     ;
(PID.TID 0000.0001) deltaTClock  =   /* Model clock timestep ( s ) */
(PID.TID 0000.0001)                 1.800000000000000E+03
(PID.TID 0000.0001)     ;
(PID.TID 0000.0001) cAdjFreq =   /* Convective adjustment interval ( s ) */
(PID.TID 0000.0001)                 1.800000000000000E+03
(PID.TID 0000.0001)     ;
(PID.TID 0000.0001) momForcingOutAB = /* =1: take Momentum Forcing out of Adams-Bash. stepping */
(PID.TID 0000.0001)                       0
(PID.TID 0000.0001)     ;
(PID.TID 0000.0001) tracForcingOutAB = /* =1: take T,S,pTr Forcing out of Adams-Bash. stepping */
(PID.TID 0000.0001)                       0
(PID.TID 0000.0001)     ;
(PID.TID 0000.0001) momDissip_In_AB = /* put Dissipation Tendency in Adams-Bash. stepping */
(PID.TID 0000.0001)                   T
(PID.TID 0000.0001)     ;
(PID.TID 0000.0001) doAB_onGtGs = /* apply AB on Tendencies (rather than on T,S)*/
(PID.TID 0000.0001)                   T
(PID.TID 0000.0001)     ;
(PID.TID 0000.0001) abEps =   /* Adams-Bashforth-2 stabilizing weight */
(PID.TID 0000.0001)                 1.000000000000000E-01
(PID.TID 0000.0001)     ;
(PID.TID 0000.0001) tauCD =   /* CD coupling time-scale ( s ) */
(PID.TID 0000.0001)                 4.000000000000000E+05
(PID.TID 0000.0001)     ;
(PID.TID 0000.0001) rCD =   /* Normalised CD coupling parameter */
(PID.TID 0000.0001)                 9.955000000000001E-01
(PID.TID 0000.0001)     ;
(PID.TID 0000.0001) baseTime =   /* Model base time ( s ). */
(PID.TID 0000.0001)                 0.000000000000000E+00
(PID.TID 0000.0001)     ;
(PID.TID 0000.0001) startTime =   /* Run start time ( s ). */
(PID.TID 0000.0001)                 0.000000000000000E+00
(PID.TID 0000.0001)     ;
(PID.TID 0000.0001) endTime =   /* Integration ending time ( s ). */
(PID.TID 0000.0001)                 3.600000000000000E+04
(PID.TID 0000.0001)     ;
(PID.TID 0000.0001) pChkPtFreq =   /* Permanent restart/checkpoint file interval ( s ). */
(PID.TID 0000.0001)                 0.000000000000000E+00
(PID.TID 0000.0001)     ;
(PID.TID 0000.0001) chkPtFreq =   /* Rolling restart/checkpoint file interval ( s ). */
(PID.TID 0000.0001)                 0.000000000000000E+00
(PID.TID 0000.0001)     ;
(PID.TID 0000.0001) pickup_write_mdsio =   /* Model IO flag. */
(PID.TID 0000.0001)                   F
(PID.TID 0000.0001)     ;
(PID.TID 0000.0001) pickup_read_mdsio =   /* Model IO flag. */
(PID.TID 0000.0001)                   F
(PID.TID 0000.0001)     ;
(PID.TID 0000.0001) pickup_write_mnc =   /* Model IO flag. */
(PID.TID 0000.0001)                   T
(PID.TID 0000.0001)     ;
(PID.TID 0000.0001) pickup_read_mnc =   /* Model IO flag. */
(PID.TID 0000.0001)                   T
(PID.TID 0000.0001)     ;
(PID.TID 0000.0001) pickup_write_immed =   /* Model IO flag. */
(PID.TID 0000.0001)                   F
(PID.TID 0000.0001)     ;
(PID.TID 0000.0001) dumpFreq =   /* Model state write out interval ( s ). */
(PID.TID 0000.0001)                 0.000000000000000E+00
(PID.TID 0000.0001)     ;
(PID.TID 0000.0001) dumpInitAndLast= /* write out Initial & Last iter. model state */
(PID.TID 0000.0001)                   T
(PID.TID 0000.0001)     ;
(PID.TID 0000.0001) snapshot_mdsio =   /* Model IO flag. */
(PID.TID 0000.0001)                   F
(PID.TID 0000.0001)     ;
(PID.TID 0000.0001) snapshot_mnc =   /* Model IO flag. */
(PID.TID 0000.0001)                   T
(PID.TID 0000.0001)     ;
(PID.TID 0000.0001) monitorFreq =   /* Monitor output interval ( s ). */
(PID.TID 0000.0001)                 1.000000000000000E+00
(PID.TID 0000.0001)     ;
(PID.TID 0000.0001) monitor_stdio =   /* Model IO flag. */
(PID.TID 0000.0001)                   T
(PID.TID 0000.0001)     ;
(PID.TID 0000.0001) monitor_mnc =   /* Model IO flag. */
(PID.TID 0000.0001)                   F
(PID.TID 0000.0001)     ;
(PID.TID 0000.0001) externForcingPeriod =   /* forcing period (s) */
(PID.TID 0000.0001)                 0.000000000000000E+00
(PID.TID 0000.0001)     ;
(PID.TID 0000.0001) externForcingCycle =   /* period of the cyle (s). */
(PID.TID 0000.0001)                 0.000000000000000E+00
(PID.TID 0000.0001)     ;
(PID.TID 0000.0001) tauThetaClimRelax =   /* relaxation time scale (s) */
(PID.TID 0000.0001)                 0.000000000000000E+00
(PID.TID 0000.0001)     ;
(PID.TID 0000.0001) tauSaltClimRelax =   /* relaxation time scale (s) */
(PID.TID 0000.0001)                 0.000000000000000E+00
(PID.TID 0000.0001)     ;
(PID.TID 0000.0001) latBandClimRelax =   /* max. Lat. where relaxation */
(PID.TID 0000.0001)                 1.800000000000000E+02
(PID.TID 0000.0001)     ;
(PID.TID 0000.0001) //
(PID.TID 0000.0001) // Gridding paramters ( PARM04 in namelist )
(PID.TID 0000.0001) //
(PID.TID 0000.0001) usingCartesianGrid =   /* Cartesian coordinates flag ( True / False ) */
(PID.TID 0000.0001)                   F
(PID.TID 0000.0001)     ;
(PID.TID 0000.0001) usingSphericalPolarGrid =   /* Spherical coordinates flag ( True / False ) */
(PID.TID 0000.0001)                   T
(PID.TID 0000.0001)     ;
(PID.TID 0000.0001) usingCylindricalGrid =   /* Spherical coordinates flag ( True / False ) */
(PID.TID 0000.0001)                   F
(PID.TID 0000.0001)     ;
(PID.TID 0000.0001) Ro_SeaLevel =   /* r(1) ( units of r ) */
(PID.TID 0000.0001)                 0.000000000000000E+00
(PID.TID 0000.0001)     ;
(PID.TID 0000.0001) rkSign =   /* index orientation relative to vertical coordinate */
(PID.TID 0000.0001)                -1.000000000000000E+00
(PID.TID 0000.0001)     ;
(PID.TID 0000.0001) horiVertRatio =   /* Ratio on units : Horiz - Vertical */
(PID.TID 0000.0001)                 1.000000000000000E+00
(PID.TID 0000.0001)     ;
(PID.TID 0000.0001) drC =   /* C spacing ( units of r ) */
(PID.TID 0000.0001)                 1.500000000000000E+01,      /* K =  1 */
(PID.TID 0000.0001)    29 @  3.000000000000000E+01              /* K =  2: 30 */
(PID.TID 0000.0001)     ;
(PID.TID 0000.0001) drF =   /* W spacing ( units of r ) */
(PID.TID 0000.0001)    30 @  3.000000000000000E+01              /* K =  1: 30 */
(PID.TID 0000.0001)     ;
(PID.TID 0000.0001) delX =   /* U spacing ( m - cartesian, degrees - spherical ) */
(PID.TID 0000.0001)    50 @  3.000000000000000E-01              /* I =  1: 50 */
(PID.TID 0000.0001)     ;
(PID.TID 0000.0001) delY =   /* V spacing ( m - cartesian, degrees - spherical ) */
(PID.TID 0000.0001)   100 @  1.000000000000000E-01              /* J =  1:100 */
(PID.TID 0000.0001)     ;
(PID.TID 0000.0001) phiMin =    /* South edge (ignored - cartesian, degrees - spherical ) */
(PID.TID 0000.0001)                -8.000000000000000E+01
(PID.TID 0000.0001)     ;
(PID.TID 0000.0001) thetaMin =    /* West edge ( ignored - cartesian, degrees - spherical ) */
(PID.TID 0000.0001)                 0.000000000000000E+00
(PID.TID 0000.0001)     ;
(PID.TID 0000.0001) rSphere =    /* Radius ( ignored - cartesian, m - spherical ) */
(PID.TID 0000.0001)                 6.370000000000000E+06
(PID.TID 0000.0001)     ;
(PID.TID 0000.0001) xcoord =   /* P-point X coord ( m - cartesian, degrees - spherical ) */
(PID.TID 0000.0001)                 1.500000000000001E-01,      /* I =  1 */
(PID.TID 0000.0001)                 4.500000000000001E-01,      /* I =  2 */
(PID.TID 0000.0001)                 7.500000000000002E-01,      /* I =  3 */
(PID.TID 0000.0001)                 1.050000000000000E+00,      /* I =  4 */
(PID.TID 0000.0001)                 1.350000000000000E+00,      /* I =  5 */
(PID.TID 0000.0001)                 1.650000000000000E+00,      /* I =  6 */
(PID.TID 0000.0001)                 1.950000000000000E+00,      /* I =  7 */
(PID.TID 0000.0001)                 2.250000000000000E+00,      /* I =  8 */
(PID.TID 0000.0001)                 2.550000000000000E+00,      /* I =  9 */
(PID.TID 0000.0001)                 2.850000000000000E+00,      /* I = 10 */
(PID.TID 0000.0001)                 3.149999999999999E+00,      /* I = 11 */
(PID.TID 0000.0001)                 3.449999999999999E+00,      /* I = 12 */
(PID.TID 0000.0001)                 3.749999999999999E+00,      /* I = 13 */
(PID.TID 0000.0001)                 4.049999999999999E+00,      /* I = 14 */
(PID.TID 0000.0001)                 4.350000000000000E+00,      /* I = 15 */
(PID.TID 0000.0001)                 4.649999999999999E+00,      /* I = 16 */
(PID.TID 0000.0001)                 4.949999999999999E+00,      /* I = 17 */
(PID.TID 0000.0001)                 5.249999999999998E+00,      /* I = 18 */
(PID.TID 0000.0001)                 5.549999999999999E+00,      /* I = 19 */
(PID.TID 0000.0001)                 5.849999999999998E+00,      /* I = 20 */
(PID.TID 0000.0001)                 6.149999999999999E+00,      /* I = 21 */
(PID.TID 0000.0001)                 6.449999999999998E+00,      /* I = 22 */
(PID.TID 0000.0001)                 6.749999999999998E+00,      /* I = 23 */
(PID.TID 0000.0001)                 7.049999999999997E+00,      /* I = 24 */
(PID.TID 0000.0001)                 7.349999999999997E+00,      /* I = 25 */
(PID.TID 0000.0001)                 7.649999999999997E+00,      /* I = 26 */
(PID.TID 0000.0001)                 7.949999999999998E+00,      /* I = 27 */
(PID.TID 0000.0001)                 8.249999999999998E+00,      /* I = 28 */
(PID.TID 0000.0001)                 8.549999999999999E+00,      /* I = 29 */
(PID.TID 0000.0001)                 8.850000000000000E+00,      /* I = 30 */
(PID.TID 0000.0001)                 9.150000000000000E+00,      /* I = 31 */
(PID.TID 0000.0001)                 9.450000000000001E+00,      /* I = 32 */
(PID.TID 0000.0001)                 9.750000000000002E+00,      /* I = 33 */
(PID.TID 0000.0001)                 1.005000000000000E+01,      /* I = 34 */
(PID.TID 0000.0001)                 1.035000000000000E+01,      /* I = 35 */
(PID.TID 0000.0001)                 1.065000000000000E+01,      /* I = 36 */
(PID.TID 0000.0001)                 1.095000000000001E+01,      /* I = 37 */
(PID.TID 0000.0001)                 1.125000000000001E+01,      /* I = 38 */
(PID.TID 0000.0001)                 1.155000000000000E+01,      /* I = 39 */
(PID.TID 0000.0001)                 1.185000000000001E+01,      /* I = 40 */
(PID.TID 0000.0001)                 1.215000000000001E+01,      /* I = 41 */
(PID.TID 0000.0001)                 1.245000000000001E+01,      /* I = 42 */
(PID.TID 0000.0001)                 1.275000000000001E+01,      /* I = 43 */
(PID.TID 0000.0001)                 1.305000000000001E+01,      /* I = 44 */
(PID.TID 0000.0001)                 1.335000000000001E+01,      /* I = 45 */
(PID.TID 0000.0001)                 1.365000000000001E+01,      /* I = 46 */
(PID.TID 0000.0001)                 1.395000000000001E+01,      /* I = 47 */
(PID.TID 0000.0001)                 1.425000000000001E+01,      /* I = 48 */
(PID.TID 0000.0001)                 1.455000000000001E+01,      /* I = 49 */
(PID.TID 0000.0001)                 1.485000000000001E+01       /* I = 50 */
(PID.TID 0000.0001)     ;
(PID.TID 0000.0001) ycoord =   /* P-point Y coord ( m - cartesian, degrees - spherical ) */
(PID.TID 0000.0001)                -7.995000000000000E+01,      /* J =  1 */
(PID.TID 0000.0001)                -7.985000000000001E+01,      /* J =  2 */
(PID.TID 0000.0001)                -7.975000000000001E+01,      /* J =  3 */
(PID.TID 0000.0001)                -7.965000000000002E+01,      /* J =  4 */
(PID.TID 0000.0001)                -7.955000000000003E+01,      /* J =  5 */
(PID.TID 0000.0001)                -7.945000000000003E+01,      /* J =  6 */
(PID.TID 0000.0001)                -7.935000000000004E+01,      /* J =  7 */
(PID.TID 0000.0001)                -7.925000000000004E+01,      /* J =  8 */
(PID.TID 0000.0001)                -7.915000000000005E+01,      /* J =  9 */
(PID.TID 0000.0001)                -7.905000000000005E+01,      /* J = 10 */
(PID.TID 0000.0001)                -7.895000000000006E+01,      /* J = 11 */
(PID.TID 0000.0001)                -7.885000000000007E+01,      /* J = 12 */
(PID.TID 0000.0001)                -7.875000000000007E+01,      /* J = 13 */
(PID.TID 0000.0001)                -7.865000000000008E+01,      /* J = 14 */
(PID.TID 0000.0001)                -7.855000000000008E+01,      /* J = 15 */
(PID.TID 0000.0001)                -7.845000000000009E+01,      /* J = 16 */
(PID.TID 0000.0001)                -7.835000000000009E+01,      /* J = 17 */
(PID.TID 0000.0001)                -7.825000000000010E+01,      /* J = 18 */
(PID.TID 0000.0001)                -7.815000000000011E+01,      /* J = 19 */
(PID.TID 0000.0001)                -7.805000000000011E+01,      /* J = 20 */
(PID.TID 0000.0001)                -7.795000000000012E+01,      /* J = 21 */
(PID.TID 0000.0001)                -7.785000000000012E+01,      /* J = 22 */
(PID.TID 0000.0001)                -7.775000000000013E+01,      /* J = 23 */
(PID.TID 0000.0001)                -7.765000000000013E+01,      /* J = 24 */
(PID.TID 0000.0001)                -7.755000000000014E+01,      /* J = 25 */
(PID.TID 0000.0001)                -7.745000000000014E+01,      /* J = 26 */
(PID.TID 0000.0001)                -7.735000000000015E+01,      /* J = 27 */
(PID.TID 0000.0001)                -7.725000000000016E+01,      /* J = 28 */
(PID.TID 0000.0001)                -7.715000000000016E+01,      /* J = 29 */
(PID.TID 0000.0001)                -7.705000000000017E+01,      /* J = 30 */
(PID.TID 0000.0001)                -7.695000000000017E+01,      /* J = 31 */
(PID.TID 0000.0001)                -7.685000000000018E+01,      /* J = 32 */
(PID.TID 0000.0001)                -7.675000000000018E+01,      /* J = 33 */
(PID.TID 0000.0001)                -7.665000000000019E+01,      /* J = 34 */
(PID.TID 0000.0001)                -7.655000000000020E+01,      /* J = 35 */
(PID.TID 0000.0001)                -7.645000000000020E+01,      /* J = 36 */
(PID.TID 0000.0001)                -7.635000000000021E+01,      /* J = 37 */
(PID.TID 0000.0001)                -7.625000000000021E+01,      /* J = 38 */
(PID.TID 0000.0001)                -7.615000000000022E+01,      /* J = 39 */
(PID.TID 0000.0001)                -7.605000000000022E+01,      /* J = 40 */
(PID.TID 0000.0001)                -7.595000000000023E+01,      /* J = 41 */
(PID.TID 0000.0001)                -7.585000000000024E+01,      /* J = 42 */
(PID.TID 0000.0001)                -7.575000000000024E+01,      /* J = 43 */
(PID.TID 0000.0001)                -7.565000000000025E+01,      /* J = 44 */
(PID.TID 0000.0001)                -7.555000000000025E+01,      /* J = 45 */
(PID.TID 0000.0001)                -7.545000000000026E+01,      /* J = 46 */
(PID.TID 0000.0001)                -7.535000000000026E+01,      /* J = 47 */
(PID.TID 0000.0001)                -7.525000000000027E+01,      /* J = 48 */
(PID.TID 0000.0001)                -7.515000000000028E+01,      /* J = 49 */
(PID.TID 0000.0001)                -7.505000000000028E+01,      /* J = 50 */
(PID.TID 0000.0001)                -7.495000000000029E+01,      /* J = 51 */
(PID.TID 0000.0001)                -7.485000000000029E+01,      /* J = 52 */
(PID.TID 0000.0001)                -7.475000000000030E+01,      /* J = 53 */
(PID.TID 0000.0001)                -7.465000000000030E+01,      /* J = 54 */
(PID.TID 0000.0001)                -7.455000000000031E+01,      /* J = 55 */
(PID.TID 0000.0001)                -7.445000000000032E+01,      /* J = 56 */
(PID.TID 0000.0001)                -7.435000000000032E+01,      /* J = 57 */
(PID.TID 0000.0001)                -7.425000000000033E+01,      /* J = 58 */
(PID.TID 0000.0001)                -7.415000000000033E+01,      /* J = 59 */
(PID.TID 0000.0001)                -7.405000000000034E+01,      /* J = 60 */
(PID.TID 0000.0001)                -7.395000000000034E+01,      /* J = 61 */
(PID.TID 0000.0001)                -7.385000000000035E+01,      /* J = 62 */
(PID.TID 0000.0001)                -7.375000000000036E+01,      /* J = 63 */
(PID.TID 0000.0001)                -7.365000000000036E+01,      /* J = 64 */
(PID.TID 0000.0001)                -7.355000000000037E+01,      /* J = 65 */
(PID.TID 0000.0001)                -7.345000000000037E+01,      /* J = 66 */
(PID.TID 0000.0001)                -7.335000000000038E+01,      /* J = 67 */
(PID.TID 0000.0001)                -7.325000000000038E+01,      /* J = 68 */
(PID.TID 0000.0001)                -7.315000000000039E+01,      /* J = 69 */
(PID.TID 0000.0001)                -7.305000000000040E+01,      /* J = 70 */
(PID.TID 0000.0001)                -7.295000000000040E+01,      /* J = 71 */
(PID.TID 0000.0001)                -7.285000000000041E+01,      /* J = 72 */
(PID.TID 0000.0001)                -7.275000000000041E+01,      /* J = 73 */
(PID.TID 0000.0001)                -7.265000000000042E+01,      /* J = 74 */
(PID.TID 0000.0001)                -7.255000000000042E+01,      /* J = 75 */
(PID.TID 0000.0001)                -7.245000000000043E+01,      /* J = 76 */
(PID.TID 0000.0001)                -7.235000000000043E+01,      /* J = 77 */
(PID.TID 0000.0001)                -7.225000000000044E+01,      /* J = 78 */
(PID.TID 0000.0001)                -7.215000000000045E+01,      /* J = 79 */
(PID.TID 0000.0001)                -7.205000000000045E+01,      /* J = 80 */
(PID.TID 0000.0001)                -7.195000000000046E+01,      /* J = 81 */
(PID.TID 0000.0001)                -7.185000000000046E+01,      /* J = 82 */
(PID.TID 0000.0001)                -7.175000000000047E+01,      /* J = 83 */
(PID.TID 0000.0001)                -7.165000000000047E+01,      /* J = 84 */
(PID.TID 0000.0001)                -7.155000000000048E+01,      /* J = 85 */
(PID.TID 0000.0001)                -7.145000000000049E+01,      /* J = 86 */
(PID.TID 0000.0001)                -7.135000000000049E+01,      /* J = 87 */
(PID.TID 0000.0001)                -7.125000000000050E+01,      /* J = 88 */
(PID.TID 0000.0001)                -7.115000000000050E+01,      /* J = 89 */
(PID.TID 0000.0001)                -7.105000000000051E+01,      /* J = 90 */
(PID.TID 0000.0001)                -7.095000000000051E+01,      /* J = 91 */
(PID.TID 0000.0001)                -7.085000000000052E+01,      /* J = 92 */
(PID.TID 0000.0001)                -7.075000000000053E+01,      /* J = 93 */
(PID.TID 0000.0001)                -7.065000000000053E+01,      /* J = 94 */
(PID.TID 0000.0001)                -7.055000000000054E+01,      /* J = 95 */
(PID.TID 0000.0001)                -7.045000000000054E+01,      /* J = 96 */
(PID.TID 0000.0001)                -7.035000000000055E+01,      /* J = 97 */
(PID.TID 0000.0001)                -7.025000000000055E+01,      /* J = 98 */
(PID.TID 0000.0001)                -7.015000000000056E+01,      /* J = 99 */
(PID.TID 0000.0001)                -7.005000000000057E+01       /* J =100 */
(PID.TID 0000.0001)     ;
(PID.TID 0000.0001) rcoord =   /* P-point R coordinate (  units of r ) */
(PID.TID 0000.0001)                -1.500000000000000E+01,      /* K =  1 */
(PID.TID 0000.0001)                -4.500000000000000E+01,      /* K =  2 */
(PID.TID 0000.0001)                -7.500000000000000E+01,      /* K =  3 */
(PID.TID 0000.0001)                -1.050000000000000E+02,      /* K =  4 */
(PID.TID 0000.0001)                -1.350000000000000E+02,      /* K =  5 */
(PID.TID 0000.0001)                -1.650000000000000E+02,      /* K =  6 */
(PID.TID 0000.0001)                -1.950000000000000E+02,      /* K =  7 */
(PID.TID 0000.0001)                -2.250000000000000E+02,      /* K =  8 */
(PID.TID 0000.0001)                -2.550000000000000E+02,      /* K =  9 */
(PID.TID 0000.0001)                -2.850000000000000E+02,      /* K = 10 */
(PID.TID 0000.0001)                -3.150000000000000E+02,      /* K = 11 */
(PID.TID 0000.0001)                -3.450000000000000E+02,      /* K = 12 */
(PID.TID 0000.0001)                -3.750000000000000E+02,      /* K = 13 */
(PID.TID 0000.0001)                -4.050000000000000E+02,      /* K = 14 */
(PID.TID 0000.0001)                -4.350000000000000E+02,      /* K = 15 */
(PID.TID 0000.0001)                -4.650000000000000E+02,      /* K = 16 */
(PID.TID 0000.0001)                -4.950000000000000E+02,      /* K = 17 */
(PID.TID 0000.0001)                -5.250000000000000E+02,      /* K = 18 */
(PID.TID 0000.0001)                -5.550000000000000E+02,      /* K = 19 */
(PID.TID 0000.0001)                -5.850000000000000E+02,      /* K = 20 */
(PID.TID 0000.0001)                -6.150000000000000E+02,      /* K = 21 */
(PID.TID 0000.0001)                -6.450000000000000E+02,      /* K = 22 */
(PID.TID 0000.0001)                -6.750000000000000E+02,      /* K = 23 */
(PID.TID 0000.0001)                -7.050000000000000E+02,      /* K = 24 */
(PID.TID 0000.0001)                -7.350000000000000E+02,      /* K = 25 */
(PID.TID 0000.0001)                -7.650000000000000E+02,      /* K = 26 */
(PID.TID 0000.0001)                -7.950000000000000E+02,      /* K = 27 */
(PID.TID 0000.0001)                -8.250000000000000E+02,      /* K = 28 */
(PID.TID 0000.0001)                -8.550000000000000E+02,      /* K = 29 */
(PID.TID 0000.0001)                -8.850000000000000E+02       /* K = 30 */
(PID.TID 0000.0001)     ;
(PID.TID 0000.0001) rF =   /* W-Interf. R coordinate (  units of r ) */
(PID.TID 0000.0001)                 0.000000000000000E+00,      /* K =  1 */
(PID.TID 0000.0001)                -3.000000000000000E+01,      /* K =  2 */
(PID.TID 0000.0001)                -6.000000000000000E+01,      /* K =  3 */
(PID.TID 0000.0001)                -9.000000000000000E+01,      /* K =  4 */
(PID.TID 0000.0001)                -1.200000000000000E+02,      /* K =  5 */
(PID.TID 0000.0001)                -1.500000000000000E+02,      /* K =  6 */
(PID.TID 0000.0001)                -1.800000000000000E+02,      /* K =  7 */
(PID.TID 0000.0001)                -2.100000000000000E+02,      /* K =  8 */
(PID.TID 0000.0001)                -2.400000000000000E+02,      /* K =  9 */
(PID.TID 0000.0001)                -2.700000000000000E+02,      /* K = 10 */
(PID.TID 0000.0001)                -3.000000000000000E+02,      /* K = 11 */
(PID.TID 0000.0001)                -3.300000000000000E+02,      /* K = 12 */
(PID.TID 0000.0001)                -3.600000000000000E+02,      /* K = 13 */
(PID.TID 0000.0001)                -3.900000000000000E+02,      /* K = 14 */
(PID.TID 0000.0001)                -4.200000000000000E+02,      /* K = 15 */
(PID.TID 0000.0001)                -4.500000000000000E+02,      /* K = 16 */
(PID.TID 0000.0001)                -4.800000000000000E+02,      /* K = 17 */
(PID.TID 0000.0001)                -5.100000000000000E+02,      /* K = 18 */
(PID.TID 0000.0001)                -5.400000000000000E+02,      /* K = 19 */
(PID.TID 0000.0001)                -5.700000000000000E+02,      /* K = 20 */
(PID.TID 0000.0001)                -6.000000000000000E+02,      /* K = 21 */
(PID.TID 0000.0001)                -6.300000000000000E+02,      /* K = 22 */
(PID.TID 0000.0001)                -6.600000000000000E+02,      /* K = 23 */
(PID.TID 0000.0001)                -6.900000000000000E+02,      /* K = 24 */
(PID.TID 0000.0001)                -7.200000000000000E+02,      /* K = 25 */
(PID.TID 0000.0001)                -7.500000000000000E+02,      /* K = 26 */
(PID.TID 0000.0001)                -7.800000000000000E+02,      /* K = 27 */
(PID.TID 0000.0001)                -8.100000000000000E+02,      /* K = 28 */
(PID.TID 0000.0001)                -8.400000000000000E+02,      /* K = 29 */
(PID.TID 0000.0001)                -8.700000000000000E+02,      /* K = 30 */
(PID.TID 0000.0001)                -9.000000000000000E+02       /* K = 31 */
(PID.TID 0000.0001)     ;
(PID.TID 0000.0001) dBdrRef = /* Vertical gradient of reference boyancy [(m/s/r)^2)] */
(PID.TID 0000.0001)    30 @  0.000000000000000E+00              /* K =  1: 30 */
(PID.TID 0000.0001)     ;
(PID.TID 0000.0001) dxF =  /* dxF(:,1,:,1) ( units: m ) */
(PID.TID 0000.0001)    50 @  5.820391490558872E+03              /* I =  1: 50 */
(PID.TID 0000.0001)     ;
(PID.TID 0000.0001) dxF =  /* dxF(1,:,1,:) ( units: m ) */
(PID.TID 0000.0001)                 5.820391490558872E+03,      /* J =  1 */
(PID.TID 0000.0001)                 5.877701765291692E+03,      /* J =  2 */
(PID.TID 0000.0001)                 5.934994135525598E+03,      /* J =  3 */
(PID.TID 0000.0001)                 5.992268426738092E+03,      /* J =  4 */
(PID.TID 0000.0001)                 6.049524464461751E+03,      /* J =  5 */
(PID.TID 0000.0001)                 6.106762074284755E+03,      /* J =  6 */
(PID.TID 0000.0001)                 6.163981081851418E+03,      /* J =  7 */
(PID.TID 0000.0001)                 6.221181312862721E+03,      /* J =  8 */
(PID.TID 0000.0001)                 6.278362593076839E+03,      /* J =  9 */
(PID.TID 0000.0001)                 6.335524748309675E+03,      /* J = 10 */
(PID.TID 0000.0001)                 6.392667604435392E+03,      /* J = 11 */
(PID.TID 0000.0001)                 6.449790987386939E+03,      /* J = 12 */
(PID.TID 0000.0001)                 6.506894723156589E+03,      /* J = 13 */
(PID.TID 0000.0001)                 6.563978637796454E+03,      /* J = 14 */
(PID.TID 0000.0001)                 6.621042557419033E+03,      /* J = 15 */
(PID.TID 0000.0001)                 6.678086308197730E+03,      /* J = 16 */
(PID.TID 0000.0001)                 6.735109716367390E+03,      /* J = 17 */
(PID.TID 0000.0001)                 6.792112608224819E+03,      /* J = 18 */
(PID.TID 0000.0001)                 6.849094810129332E+03,      /* J = 19 */
(PID.TID 0000.0001)                 6.906056148503244E+03,      /* J = 20 */
(PID.TID 0000.0001)                 6.962996449832446E+03,      /* J = 21 */
(PID.TID 0000.0001)                 7.019915540666910E+03,      /* J = 22 */
(PID.TID 0000.0001)                 7.076813247621209E+03,      /* J = 23 */
(PID.TID 0000.0001)                 7.133689397375063E+03,      /* J = 24 */
(PID.TID 0000.0001)                 7.190543816673855E+03,      /* J = 25 */
(PID.TID 0000.0001)                 7.247376332329164E+03,      /* J = 26 */
(PID.TID 0000.0001)                 7.304186771219292E+03,      /* J = 27 */
(PID.TID 0000.0001)                 7.360974960289787E+03,      /* J = 28 */
(PID.TID 0000.0001)                 7.417740726553981E+03,      /* J = 29 */
(PID.TID 0000.0001)                 7.474483897093503E+03,      /* J = 30 */
(PID.TID 0000.0001)                 7.531204299058815E+03,      /* J = 31 */
(PID.TID 0000.0001)                 7.587901759669735E+03,      /* J = 32 */
(PID.TID 0000.0001)                 7.644576106215967E+03,      /* J = 33 */
(PID.TID 0000.0001)                 7.701227166057623E+03,      /* J = 34 */
(PID.TID 0000.0001)                 7.757854766625747E+03,      /* J = 35 */
(PID.TID 0000.0001)                 7.814458735422849E+03,      /* J = 36 */
(PID.TID 0000.0001)                 7.871038900023425E+03,      /* J = 37 */
(PID.TID 0000.0001)                 7.927595088074479E+03,      /* J = 38 */
(PID.TID 0000.0001)                 7.984127127296055E+03,      /* J = 39 */
(PID.TID 0000.0001)                 8.040634845481757E+03,      /* J = 40 */
(PID.TID 0000.0001)                 8.097118070499275E+03,      /* J = 41 */
(PID.TID 0000.0001)                 8.153576630290919E+03,      /* J = 42 */
(PID.TID 0000.0001)                 8.210010352874109E+03,      /* J = 43 */
(PID.TID 0000.0001)                 8.266419066341947E+03,      /* J = 44 */
(PID.TID 0000.0001)                 8.322802598863705E+03,      /* J = 45 */
(PID.TID 0000.0001)                 8.379160778685373E+03,      /* J = 46 */
(PID.TID 0000.0001)                 8.435493434130152E+03,      /* J = 47 */
(PID.TID 0000.0001)                 8.491800393599013E+03,      /* J = 48 */
(PID.TID 0000.0001)                 8.548081485571185E+03,      /* J = 49 */
(PID.TID 0000.0001)                 8.604336538604706E+03,      /* J = 50 */
(PID.TID 0000.0001)                 8.660565381336924E+03,      /* J = 51 */
(PID.TID 0000.0001)                 8.716767842485036E+03,      /* J = 52 */
(PID.TID 0000.0001)                 8.772943750846600E+03,      /* J = 53 */
(PID.TID 0000.0001)                 8.829092935300054E+03,      /* J = 54 */
(PID.TID 0000.0001)                 8.885215224805244E+03,      /* J = 55 */
(PID.TID 0000.0001)                 8.941310448403947E+03,      /* J = 56 */
(PID.TID 0000.0001)                 8.997378435220378E+03,      /* J = 57 */
(PID.TID 0000.0001)                 9.053419014461731E+03,      /* J = 58 */
(PID.TID 0000.0001)                 9.109432015418679E+03,      /* J = 59 */
(PID.TID 0000.0001)                 9.165417267465908E+03,      /* J = 60 */
(PID.TID 0000.0001)                 9.221374600062631E+03,      /* J = 61 */
(PID.TID 0000.0001)                 9.277303842753110E+03,      /* J = 62 */
(PID.TID 0000.0001)                 9.333204825167171E+03,      /* J = 63 */
(PID.TID 0000.0001)                 9.389077377020727E+03,      /* J = 64 */
(PID.TID 0000.0001)                 9.444921328116297E+03,      /* J = 65 */
(PID.TID 0000.0001)                 9.500736508343525E+03,      /* J = 66 */
(PID.TID 0000.0001)                 9.556522747679681E+03,      /* J = 67 */
(PID.TID 0000.0001)                 9.612279876190212E+03,      /* J = 68 */
(PID.TID 0000.0001)                 9.668007724029234E+03,      /* J = 69 */
(PID.TID 0000.0001)                 9.723706121440056E+03,      /* J = 70 */
(PID.TID 0000.0001)                 9.779374898755706E+03,      /* J = 71 */
(PID.TID 0000.0001)                 9.835013886399427E+03,      /* J = 72 */
(PID.TID 0000.0001)                 9.890622914885218E+03,      /* J = 73 */
(PID.TID 0000.0001)                 9.946201814818334E+03,      /* J = 74 */
(PID.TID 0000.0001)                 1.000175041689580E+04,      /* J = 75 */
(PID.TID 0000.0001)                 1.005726855190695E+04,      /* J = 76 */
(PID.TID 0000.0001)                 1.011275605073392E+04,      /* J = 77 */
(PID.TID 0000.0001)                 1.016821274435215E+04,      /* J = 78 */
(PID.TID 0000.0001)                 1.022363846383095E+04,      /* J = 79 */
(PID.TID 0000.0001)                 1.027903304033395E+04,      /* J = 80 */
(PID.TID 0000.0001)                 1.033439630511968E+04,      /* J = 81 */
(PID.TID 0000.0001)                 1.038972808954202E+04,      /* J = 82 */
(PID.TID 0000.0001)                 1.044502822505077E+04,      /* J = 83 */
(PID.TID 0000.0001)                 1.050029654319212E+04,      /* J = 84 */
(PID.TID 0000.0001)                 1.055553287560919E+04,      /* J = 85 */
(PID.TID 0000.0001)                 1.061073705404253E+04,      /* J = 86 */
(PID.TID 0000.0001)                 1.066590891033064E+04,      /* J = 87 */
(PID.TID 0000.0001)                 1.072104827641048E+04,      /* J = 88 */
(PID.TID 0000.0001)                 1.077615498431797E+04,      /* J = 89 */
(PID.TID 0000.0001)                 1.083122886618854E+04,      /* J = 90 */
(PID.TID 0000.0001)                 1.088626975425758E+04,      /* J = 91 */
(PID.TID 0000.0001)                 1.094127748086099E+04,      /* J = 92 */
(PID.TID 0000.0001)                 1.099625187843571E+04,      /* J = 93 */
(PID.TID 0000.0001)                 1.105119277952020E+04,      /* J = 94 */
(PID.TID 0000.0001)                 1.110610001675492E+04,      /* J = 95 */
(PID.TID 0000.0001)                 1.116097342288293E+04,      /* J = 96 */
(PID.TID 0000.0001)                 1.121581283075030E+04,      /* J = 97 */
(PID.TID 0000.0001)                 1.127061807330668E+04,      /* J = 98 */
(PID.TID 0000.0001)                 1.132538898360582E+04,      /* J = 99 */
(PID.TID 0000.0001)                 1.138012539480601E+04       /* J =100 */
(PID.TID 0000.0001)     ;
(PID.TID 0000.0001) dyF =  /* dyF(:,1,:,1) ( units: m ) */
(PID.TID 0000.0001)    50 @  1.111774733520388E+04              /* I =  1: 50 */
(PID.TID 0000.0001)     ;
(PID.TID 0000.0001) dyF =  /* dyF(1,:,1,:) ( units: m ) */
(PID.TID 0000.0001)   100 @  1.111774733520388E+04              /* J =  1:100 */
(PID.TID 0000.0001)     ;
(PID.TID 0000.0001) dxG =  /* dxG(:,1,:,1) ( units: m ) */
(PID.TID 0000.0001)    50 @  5.791729693558576E+03              /* I =  1: 50 */
(PID.TID 0000.0001)     ;
(PID.TID 0000.0001) dxG =  /* dxG(1,:,1,:) ( units: m ) */
(PID.TID 0000.0001)                 5.791729693558576E+03,      /* J =  1 */
(PID.TID 0000.0001)                 5.849048855077854E+03,      /* J =  2 */
(PID.TID 0000.0001)                 5.906350199379949E+03,      /* J =  3 */
(PID.TID 0000.0001)                 5.963633551915032E+03,      /* J =  4 */
(PID.TID 0000.0001)                 6.020898738188074E+03,      /* J =  5 */
(PID.TID 0000.0001)                 6.078145583759388E+03,      /* J =  6 */
(PID.TID 0000.0001)                 6.135373914245153E+03,      /* J =  7 */
(PID.TID 0000.0001)                 6.192583555317951E+03,      /* J =  8 */
(PID.TID 0000.0001)                 6.249774332707294E+03,      /* J =  9 */
(PID.TID 0000.0001)                 6.306946072200154E+03,      /* J = 10 */
(PID.TID 0000.0001)                 6.364098599641497E+03,      /* J = 11 */
(PID.TID 0000.0001)                 6.421231740934816E+03,      /* J = 12 */
(PID.TID 0000.0001)                 6.478345322042654E+03,      /* J = 13 */
(PID.TID 0000.0001)                 6.535439168987135E+03,      /* J = 14 */
(PID.TID 0000.0001)                 6.592513107850500E+03,      /* J = 15 */
(PID.TID 0000.0001)                 6.649566964775637E+03,      /* J = 16 */
(PID.TID 0000.0001)                 6.706600565966598E+03,      /* J = 17 */
(PID.TID 0000.0001)                 6.763613737689147E+03,      /* J = 18 */
(PID.TID 0000.0001)                 6.820606306271281E+03,      /* J = 19 */
(PID.TID 0000.0001)                 6.877578098103740E+03,      /* J = 20 */
(PID.TID 0000.0001)                 6.934528939640570E+03,      /* J = 21 */
(PID.TID 0000.0001)                 6.991458657399629E+03,      /* J = 22 */
(PID.TID 0000.0001)                 7.048367077963129E+03,      /* J = 23 */
(PID.TID 0000.0001)                 7.105254027978149E+03,      /* J = 24 */
(PID.TID 0000.0001)                 7.162119334157175E+03,      /* J = 25 */
(PID.TID 0000.0001)                 7.218962823278620E+03,      /* J = 26 */
(PID.TID 0000.0001)                 7.275784322187360E+03,      /* J = 27 */
(PID.TID 0000.0001)                 7.332583657795253E+03,      /* J = 28 */
(PID.TID 0000.0001)                 7.389360657081677E+03,      /* J = 29 */
(PID.TID 0000.0001)                 7.446115147094042E+03,      /* J = 30 */
(PID.TID 0000.0001)                 7.502846954948329E+03,      /* J = 31 */
(PID.TID 0000.0001)                 7.559555907829611E+03,      /* J = 32 */
(PID.TID 0000.0001)                 7.616241832992587E+03,      /* J = 33 */
(PID.TID 0000.0001)                 7.672904557762095E+03,      /* J = 34 */
(PID.TID 0000.0001)                 7.729543909533650E+03,      /* J = 35 */
(PID.TID 0000.0001)                 7.786159715773963E+03,      /* J = 36 */
(PID.TID 0000.0001)                 7.842751804021470E+03,      /* J = 37 */
(PID.TID 0000.0001)                 7.899320001886857E+03,      /* J = 38 */
(PID.TID 0000.0001)                 7.955864137053582E+03,      /* J = 39 */
(PID.TID 0000.0001)                 8.012384037278402E+03,      /* J = 40 */
(PID.TID 0000.0001)                 8.068879530391900E+03,      /* J = 41 */
(PID.TID 0000.0001)                 8.125350444299005E+03,      /* J = 42 */
(PID.TID 0000.0001)                 8.181796606979530E+03,      /* J = 43 */
(PID.TID 0000.0001)                 8.238217846488658E+03,      /* J = 44 */
(PID.TID 0000.0001)                 8.294613990957514E+03,      /* J = 45 */
(PID.TID 0000.0001)                 8.350984868593665E+03,      /* J = 46 */
(PID.TID 0000.0001)                 8.407330307681643E+03,      /* J = 47 */
(PID.TID 0000.0001)                 8.463650136583461E+03,      /* J = 48 */
(PID.TID 0000.0001)                 8.519944183739159E+03,      /* J = 49 */
(PID.TID 0000.0001)                 8.576212277667308E+03,      /* J = 50 */
(PID.TID 0000.0001)                 8.632454246965530E+03,      /* J = 51 */
(PID.TID 0000.0001)                 8.688669920311038E+03,      /* J = 52 */
(PID.TID 0000.0001)                 8.744859126461139E+03,      /* J = 53 */
(PID.TID 0000.0001)                 8.801021694253765E+03,      /* J = 54 */
(PID.TID 0000.0001)                 8.857157452607997E+03,      /* J = 55 */
(PID.TID 0000.0001)                 8.913266230524581E+03,      /* J = 56 */
(PID.TID 0000.0001)                 8.969347857086450E+03,      /* J = 57 */
(PID.TID 0000.0001)                 9.025402161459237E+03,      /* J = 58 */
(PID.TID 0000.0001)                 9.081428972891812E+03,      /* J = 59 */
(PID.TID 0000.0001)                 9.137428120716793E+03,      /* J = 60 */
(PID.TID 0000.0001)                 9.193399434351066E+03,      /* J = 61 */
(PID.TID 0000.0001)                 9.249342743296300E+03,      /* J = 62 */
(PID.TID 0000.0001)                 9.305257877139473E+03,      /* J = 63 */
(PID.TID 0000.0001)                 9.361144665553391E+03,      /* J = 64 */
(PID.TID 0000.0001)                 9.417002938297206E+03,      /* J = 65 */
(PID.TID 0000.0001)                 9.472832525216931E+03,      /* J = 66 */
(PID.TID 0000.0001)                 9.528633256245968E+03,      /* J = 67 */
(PID.TID 0000.0001)                 9.584404961405600E+03,      /* J = 68 */
(PID.TID 0000.0001)                 9.640147470805550E+03,      /* J = 69 */
(PID.TID 0000.0001)                 9.695860614644464E+03,      /* J = 70 */
(PID.TID 0000.0001)                 9.751544223210447E+03,      /* J = 71 */
(PID.TID 0000.0001)                 9.807198126881565E+03,      /* J = 72 */
(PID.TID 0000.0001)                 9.862822156126382E+03,      /* J = 73 */
(PID.TID 0000.0001)                 9.918416141504455E+03,      /* J = 74 */
(PID.TID 0000.0001)                 9.973979913666863E+03,      /* J = 75 */
(PID.TID 0000.0001)                 1.002951330335672E+04,      /* J = 76 */
(PID.TID 0000.0001)                 1.008501614140969E+04,      /* J = 77 */
(PID.TID 0000.0001)                 1.014048825875450E+04,      /* J = 78 */
(PID.TID 0000.0001)                 1.019592948641347E+04,      /* J = 79 */
(PID.TID 0000.0001)                 1.025133965550300E+04,      /* J = 80 */
(PID.TID 0000.0001)                 1.030671859723410E+04,      /* J = 81 */
(PID.TID 0000.0001)                 1.036206614291292E+04,      /* J = 82 */
(PID.TID 0000.0001)                 1.041738212394122E+04,      /* J = 83 */
(PID.TID 0000.0001)                 1.047266637181695E+04,      /* J = 84 */
(PID.TID 0000.0001)                 1.052791871813469E+04,      /* J = 85 */
(PID.TID 0000.0001)                 1.058313899458622E+04,      /* J = 86 */
(PID.TID 0000.0001)                 1.063832703296099E+04,      /* J = 87 */
(PID.TID 0000.0001)                 1.069348266514667E+04,      /* J = 88 */
(PID.TID 0000.0001)                 1.074860572312964E+04,      /* J = 89 */
(PID.TID 0000.0001)                 1.080369603899551E+04,      /* J = 90 */
(PID.TID 0000.0001)                 1.085875344492962E+04,      /* J = 91 */
(PID.TID 0000.0001)                 1.091377777321755E+04,      /* J = 92 */
(PID.TID 0000.0001)                 1.096876885624567E+04,      /* J = 93 */
(PID.TID 0000.0001)                 1.102372652650160E+04,      /* J = 94 */
(PID.TID 0000.0001)                 1.107865061657475E+04,      /* J = 95 */
(PID.TID 0000.0001)                 1.113354095915680E+04,      /* J = 96 */
(PID.TID 0000.0001)                 1.118839738704227E+04,      /* J = 97 */
(PID.TID 0000.0001)                 1.124321973312895E+04,      /* J = 98 */
(PID.TID 0000.0001)                 1.129800783041847E+04,      /* J = 99 */
(PID.TID 0000.0001)                 1.135276151201679E+04       /* J =100 */
(PID.TID 0000.0001)     ;
(PID.TID 0000.0001) dyG =  /* dyG(:,1,:,1) ( units: m ) */
(PID.TID 0000.0001)    50 @  1.111774733520388E+04              /* I =  1: 50 */
(PID.TID 0000.0001)     ;
(PID.TID 0000.0001) dyG =  /* dyG(1,:,1,:) ( units: m ) */
(PID.TID 0000.0001)   100 @  1.111774733520388E+04              /* J =  1:100 */
(PID.TID 0000.0001)     ;
(PID.TID 0000.0001) dxC =  /* dxC(:,1,:,1) ( units: m ) */
(PID.TID 0000.0001)    50 @  5.820391490558872E+03              /* I =  1: 50 */
(PID.TID 0000.0001)     ;
(PID.TID 0000.0001) dxC =  /* dxC(1,:,1,:) ( units: m ) */
(PID.TID 0000.0001)                 5.820391490558872E+03,      /* J =  1 */
(PID.TID 0000.0001)                 5.877701765291692E+03,      /* J =  2 */
(PID.TID 0000.0001)                 5.934994135525598E+03,      /* J =  3 */
(PID.TID 0000.0001)                 5.992268426738092E+03,      /* J =  4 */
(PID.TID 0000.0001)                 6.049524464461751E+03,      /* J =  5 */
(PID.TID 0000.0001)                 6.106762074284755E+03,      /* J =  6 */
(PID.TID 0000.0001)                 6.163981081851418E+03,      /* J =  7 */
(PID.TID 0000.0001)                 6.221181312862721E+03,      /* J =  8 */
(PID.TID 0000.0001)                 6.278362593076839E+03,      /* J =  9 */
(PID.TID 0000.0001)                 6.335524748309675E+03,      /* J = 10 */
(PID.TID 0000.0001)                 6.392667604435392E+03,      /* J = 11 */
(PID.TID 0000.0001)                 6.449790987386939E+03,      /* J = 12 */
(PID.TID 0000.0001)                 6.506894723156589E+03,      /* J = 13 */
(PID.TID 0000.0001)                 6.563978637796454E+03,      /* J = 14 */
(PID.TID 0000.0001)                 6.621042557419033E+03,      /* J = 15 */
(PID.TID 0000.0001)                 6.678086308197730E+03,      /* J = 16 */
(PID.TID 0000.0001)                 6.735109716367390E+03,      /* J = 17 */
(PID.TID 0000.0001)                 6.792112608224819E+03,      /* J = 18 */
(PID.TID 0000.0001)                 6.849094810129332E+03,      /* J = 19 */
(PID.TID 0000.0001)                 6.906056148503244E+03,      /* J = 20 */
(PID.TID 0000.0001)                 6.962996449832446E+03,      /* J = 21 */
(PID.TID 0000.0001)                 7.019915540666910E+03,      /* J = 22 */
(PID.TID 0000.0001)                 7.076813247621209E+03,      /* J = 23 */
(PID.TID 0000.0001)                 7.133689397375063E+03,      /* J = 24 */
(PID.TID 0000.0001)                 7.190543816673855E+03,      /* J = 25 */
(PID.TID 0000.0001)                 7.247376332329164E+03,      /* J = 26 */
(PID.TID 0000.0001)                 7.304186771219292E+03,      /* J = 27 */
(PID.TID 0000.0001)                 7.360974960289787E+03,      /* J = 28 */
(PID.TID 0000.0001)                 7.417740726553981E+03,      /* J = 29 */
(PID.TID 0000.0001)                 7.474483897093503E+03,      /* J = 30 */
(PID.TID 0000.0001)                 7.531204299058815E+03,      /* J = 31 */
(PID.TID 0000.0001)                 7.587901759669735E+03,      /* J = 32 */
(PID.TID 0000.0001)                 7.644576106215967E+03,      /* J = 33 */
(PID.TID 0000.0001)                 7.701227166057623E+03,      /* J = 34 */
(PID.TID 0000.0001)                 7.757854766625747E+03,      /* J = 35 */
(PID.TID 0000.0001)                 7.814458735422849E+03,      /* J = 36 */
(PID.TID 0000.0001)                 7.871038900023425E+03,      /* J = 37 */
(PID.TID 0000.0001)                 7.927595088074479E+03,      /* J = 38 */
(PID.TID 0000.0001)                 7.984127127296055E+03,      /* J = 39 */
(PID.TID 0000.0001)                 8.040634845481757E+03,      /* J = 40 */
(PID.TID 0000.0001)                 8.097118070499275E+03,      /* J = 41 */
(PID.TID 0000.0001)                 8.153576630290919E+03,      /* J = 42 */
(PID.TID 0000.0001)                 8.210010352874109E+03,      /* J = 43 */
(PID.TID 0000.0001)                 8.266419066341947E+03,      /* J = 44 */
(PID.TID 0000.0001)                 8.322802598863705E+03,      /* J = 45 */
(PID.TID 0000.0001)                 8.379160778685373E+03,      /* J = 46 */
(PID.TID 0000.0001)                 8.435493434130152E+03,      /* J = 47 */
(PID.TID 0000.0001)                 8.491800393599013E+03,      /* J = 48 */
(PID.TID 0000.0001)                 8.548081485571185E+03,      /* J = 49 */
(PID.TID 0000.0001)                 8.604336538604706E+03,      /* J = 50 */
(PID.TID 0000.0001)                 8.660565381336924E+03,      /* J = 51 */
(PID.TID 0000.0001)                 8.716767842485036E+03,      /* J = 52 */
(PID.TID 0000.0001)                 8.772943750846600E+03,      /* J = 53 */
(PID.TID 0000.0001)                 8.829092935300054E+03,      /* J = 54 */
(PID.TID 0000.0001)                 8.885215224805244E+03,      /* J = 55 */
(PID.TID 0000.0001)                 8.941310448403947E+03,      /* J = 56 */
(PID.TID 0000.0001)                 8.997378435220378E+03,      /* J = 57 */
(PID.TID 0000.0001)                 9.053419014461731E+03,      /* J = 58 */
(PID.TID 0000.0001)                 9.109432015418679E+03,      /* J = 59 */
(PID.TID 0000.0001)                 9.165417267465908E+03,      /* J = 60 */
(PID.TID 0000.0001)                 9.221374600062631E+03,      /* J = 61 */
(PID.TID 0000.0001)                 9.277303842753110E+03,      /* J = 62 */
(PID.TID 0000.0001)                 9.333204825167171E+03,      /* J = 63 */
(PID.TID 0000.0001)                 9.389077377020727E+03,      /* J = 64 */
(PID.TID 0000.0001)                 9.444921328116297E+03,      /* J = 65 */
(PID.TID 0000.0001)                 9.500736508343525E+03,      /* J = 66 */
(PID.TID 0000.0001)                 9.556522747679681E+03,      /* J = 67 */
(PID.TID 0000.0001)                 9.612279876190212E+03,      /* J = 68 */
(PID.TID 0000.0001)                 9.668007724029234E+03,      /* J = 69 */
(PID.TID 0000.0001)                 9.723706121440056E+03,      /* J = 70 */
(PID.TID 0000.0001)                 9.779374898755706E+03,      /* J = 71 */
(PID.TID 0000.0001)                 9.835013886399427E+03,      /* J = 72 */
(PID.TID 0000.0001)                 9.890622914885218E+03,      /* J = 73 */
(PID.TID 0000.0001)                 9.946201814818334E+03,      /* J = 74 */
(PID.TID 0000.0001)                 1.000175041689580E+04,      /* J = 75 */
(PID.TID 0000.0001)                 1.005726855190695E+04,      /* J = 76 */
(PID.TID 0000.0001)                 1.011275605073392E+04,      /* J = 77 */
(PID.TID 0000.0001)                 1.016821274435215E+04,      /* J = 78 */
(PID.TID 0000.0001)                 1.022363846383095E+04,      /* J = 79 */
(PID.TID 0000.0001)                 1.027903304033395E+04,      /* J = 80 */
(PID.TID 0000.0001)                 1.033439630511968E+04,      /* J = 81 */
(PID.TID 0000.0001)                 1.038972808954202E+04,      /* J = 82 */
(PID.TID 0000.0001)                 1.044502822505077E+04,      /* J = 83 */
(PID.TID 0000.0001)                 1.050029654319212E+04,      /* J = 84 */
(PID.TID 0000.0001)                 1.055553287560919E+04,      /* J = 85 */
(PID.TID 0000.0001)                 1.061073705404253E+04,      /* J = 86 */
(PID.TID 0000.0001)                 1.066590891033064E+04,      /* J = 87 */
(PID.TID 0000.0001)                 1.072104827641048E+04,      /* J = 88 */
(PID.TID 0000.0001)                 1.077615498431797E+04,      /* J = 89 */
(PID.TID 0000.0001)                 1.083122886618854E+04,      /* J = 90 */
(PID.TID 0000.0001)                 1.088626975425758E+04,      /* J = 91 */
(PID.TID 0000.0001)                 1.094127748086099E+04,      /* J = 92 */
(PID.TID 0000.0001)                 1.099625187843571E+04,      /* J = 93 */
(PID.TID 0000.0001)                 1.105119277952020E+04,      /* J = 94 */
(PID.TID 0000.0001)                 1.110610001675492E+04,      /* J = 95 */
(PID.TID 0000.0001)                 1.116097342288293E+04,      /* J = 96 */
(PID.TID 0000.0001)                 1.121581283075030E+04,      /* J = 97 */
(PID.TID 0000.0001)                 1.127061807330668E+04,      /* J = 98 */
(PID.TID 0000.0001)                 1.132538898360582E+04,      /* J = 99 */
(PID.TID 0000.0001)                 1.138012539480601E+04       /* J =100 */
(PID.TID 0000.0001)     ;
(PID.TID 0000.0001) dyC =  /* dyC(:,1,:,1) ( units: m ) */
(PID.TID 0000.0001)    50 @  1.111774733520388E+04              /* I =  1: 50 */
(PID.TID 0000.0001)     ;
(PID.TID 0000.0001) dyC =  /* dyC(1,:,1,:) ( units: m ) */
(PID.TID 0000.0001)   100 @  1.111774733520388E+04              /* J =  1:100 */
(PID.TID 0000.0001)     ;
(PID.TID 0000.0001) dxV =  /* dxV(:,1,:,1) ( units: m ) */
(PID.TID 0000.0001)    50 @  5.791729693558576E+03              /* I =  1: 50 */
(PID.TID 0000.0001)     ;
(PID.TID 0000.0001) dxV =  /* dxV(1,:,1,:) ( units: m ) */
(PID.TID 0000.0001)                 5.791729693558576E+03,      /* J =  1 */
(PID.TID 0000.0001)                 5.849048855077854E+03,      /* J =  2 */
(PID.TID 0000.0001)                 5.906350199379949E+03,      /* J =  3 */
(PID.TID 0000.0001)                 5.963633551915032E+03,      /* J =  4 */
(PID.TID 0000.0001)                 6.020898738188074E+03,      /* J =  5 */
(PID.TID 0000.0001)                 6.078145583759388E+03,      /* J =  6 */
(PID.TID 0000.0001)                 6.135373914245153E+03,      /* J =  7 */
(PID.TID 0000.0001)                 6.192583555317951E+03,      /* J =  8 */
(PID.TID 0000.0001)                 6.249774332707294E+03,      /* J =  9 */
(PID.TID 0000.0001)                 6.306946072200154E+03,      /* J = 10 */
(PID.TID 0000.0001)                 6.364098599641497E+03,      /* J = 11 */
(PID.TID 0000.0001)                 6.421231740934816E+03,      /* J = 12 */
(PID.TID 0000.0001)                 6.478345322042654E+03,      /* J = 13 */
(PID.TID 0000.0001)                 6.535439168987135E+03,      /* J = 14 */
(PID.TID 0000.0001)                 6.592513107850500E+03,      /* J = 15 */
(PID.TID 0000.0001)                 6.649566964775637E+03,      /* J = 16 */
(PID.TID 0000.0001)                 6.706600565966598E+03,      /* J = 17 */
(PID.TID 0000.0001)                 6.763613737689147E+03,      /* J = 18 */
(PID.TID 0000.0001)                 6.820606306271281E+03,      /* J = 19 */
(PID.TID 0000.0001)                 6.877578098103740E+03,      /* J = 20 */
(PID.TID 0000.0001)                 6.934528939640570E+03,      /* J = 21 */
(PID.TID 0000.0001)                 6.991458657399629E+03,      /* J = 22 */
(PID.TID 0000.0001)                 7.048367077963129E+03,      /* J = 23 */
(PID.TID 0000.0001)                 7.105254027978149E+03,      /* J = 24 */
(PID.TID 0000.0001)                 7.162119334157175E+03,      /* J = 25 */
(PID.TID 0000.0001)                 7.218962823278620E+03,      /* J = 26 */
(PID.TID 0000.0001)                 7.275784322187360E+03,      /* J = 27 */
(PID.TID 0000.0001)                 7.332583657795253E+03,      /* J = 28 */
(PID.TID 0000.0001)                 7.389360657081677E+03,      /* J = 29 */
(PID.TID 0000.0001)                 7.446115147094042E+03,      /* J = 30 */
(PID.TID 0000.0001)                 7.502846954948329E+03,      /* J = 31 */
(PID.TID 0000.0001)                 7.559555907829611E+03,      /* J = 32 */
(PID.TID 0000.0001)                 7.616241832992587E+03,      /* J = 33 */
(PID.TID 0000.0001)                 7.672904557762095E+03,      /* J = 34 */
(PID.TID 0000.0001)                 7.729543909533650E+03,      /* J = 35 */
(PID.TID 0000.0001)                 7.786159715773963E+03,      /* J = 36 */
(PID.TID 0000.0001)                 7.842751804021470E+03,      /* J = 37 */
(PID.TID 0000.0001)                 7.899320001886857E+03,      /* J = 38 */
(PID.TID 0000.0001)                 7.955864137053582E+03,      /* J = 39 */
(PID.TID 0000.0001)                 8.012384037278402E+03,      /* J = 40 */
(PID.TID 0000.0001)                 8.068879530391900E+03,      /* J = 41 */
(PID.TID 0000.0001)                 8.125350444299005E+03,      /* J = 42 */
(PID.TID 0000.0001)                 8.181796606979530E+03,      /* J = 43 */
(PID.TID 0000.0001)                 8.238217846488658E+03,      /* J = 44 */
(PID.TID 0000.0001)                 8.294613990957514E+03,      /* J = 45 */
(PID.TID 0000.0001)                 8.350984868593665E+03,      /* J = 46 */
(PID.TID 0000.0001)                 8.407330307681643E+03,      /* J = 47 */
(PID.TID 0000.0001)                 8.463650136583461E+03,      /* J = 48 */
(PID.TID 0000.0001)                 8.519944183739159E+03,      /* J = 49 */
(PID.TID 0000.0001)                 8.576212277667308E+03,      /* J = 50 */
(PID.TID 0000.0001)                 8.632454246965530E+03,      /* J = 51 */
(PID.TID 0000.0001)                 8.688669920311038E+03,      /* J = 52 */
(PID.TID 0000.0001)                 8.744859126461139E+03,      /* J = 53 */
(PID.TID 0000.0001)                 8.801021694253765E+03,      /* J = 54 */
(PID.TID 0000.0001)                 8.857157452607997E+03,      /* J = 55 */
(PID.TID 0000.0001)                 8.913266230524581E+03,      /* J = 56 */
(PID.TID 0000.0001)                 8.969347857086450E+03,      /* J = 57 */
(PID.TID 0000.0001)                 9.025402161459237E+03,      /* J = 58 */
(PID.TID 0000.0001)                 9.081428972891812E+03,      /* J = 59 */
(PID.TID 0000.0001)                 9.137428120716793E+03,      /* J = 60 */
(PID.TID 0000.0001)                 9.193399434351066E+03,      /* J = 61 */
(PID.TID 0000.0001)                 9.249342743296300E+03,      /* J = 62 */
(PID.TID 0000.0001)                 9.305257877139473E+03,      /* J = 63 */
(PID.TID 0000.0001)                 9.361144665553391E+03,      /* J = 64 */
(PID.TID 0000.0001)                 9.417002938297206E+03,      /* J = 65 */
(PID.TID 0000.0001)                 9.472832525216931E+03,      /* J = 66 */
(PID.TID 0000.0001)                 9.528633256245968E+03,      /* J = 67 */
(PID.TID 0000.0001)                 9.584404961405600E+03,      /* J = 68 */
(PID.TID 0000.0001)                 9.640147470805550E+03,      /* J = 69 */
(PID.TID 0000.0001)                 9.695860614644464E+03,      /* J = 70 */
(PID.TID 0000.0001)                 9.751544223210447E+03,      /* J = 71 */
(PID.TID 0000.0001)                 9.807198126881565E+03,      /* J = 72 */
(PID.TID 0000.0001)                 9.862822156126382E+03,      /* J = 73 */
(PID.TID 0000.0001)                 9.918416141504455E+03,      /* J = 74 */
(PID.TID 0000.0001)                 9.973979913666863E+03,      /* J = 75 */
(PID.TID 0000.0001)                 1.002951330335672E+04,      /* J = 76 */
(PID.TID 0000.0001)                 1.008501614140969E+04,      /* J = 77 */
(PID.TID 0000.0001)                 1.014048825875450E+04,      /* J = 78 */
(PID.TID 0000.0001)                 1.019592948641347E+04,      /* J = 79 */
(PID.TID 0000.0001)                 1.025133965550300E+04,      /* J = 80 */
(PID.TID 0000.0001)                 1.030671859723410E+04,      /* J = 81 */
(PID.TID 0000.0001)                 1.036206614291292E+04,      /* J = 82 */
(PID.TID 0000.0001)                 1.041738212394122E+04,      /* J = 83 */
(PID.TID 0000.0001)                 1.047266637181695E+04,      /* J = 84 */
(PID.TID 0000.0001)                 1.052791871813469E+04,      /* J = 85 */
(PID.TID 0000.0001)                 1.058313899458622E+04,      /* J = 86 */
(PID.TID 0000.0001)                 1.063832703296099E+04,      /* J = 87 */
(PID.TID 0000.0001)                 1.069348266514667E+04,      /* J = 88 */
(PID.TID 0000.0001)                 1.074860572312964E+04,      /* J = 89 */
(PID.TID 0000.0001)                 1.080369603899551E+04,      /* J = 90 */
(PID.TID 0000.0001)                 1.085875344492962E+04,      /* J = 91 */
(PID.TID 0000.0001)                 1.091377777321755E+04,      /* J = 92 */
(PID.TID 0000.0001)                 1.096876885624567E+04,      /* J = 93 */
(PID.TID 0000.0001)                 1.102372652650160E+04,      /* J = 94 */
(PID.TID 0000.0001)                 1.107865061657475E+04,      /* J = 95 */
(PID.TID 0000.0001)                 1.113354095915680E+04,      /* J = 96 */
(PID.TID 0000.0001)                 1.118839738704227E+04,      /* J = 97 */
(PID.TID 0000.0001)                 1.124321973312895E+04,      /* J = 98 */
(PID.TID 0000.0001)                 1.129800783041847E+04,      /* J = 99 */
(PID.TID 0000.0001)                 1.135276151201679E+04       /* J =100 */
(PID.TID 0000.0001)     ;
(PID.TID 0000.0001) dyU =  /* dyU(:,1,:,1) ( units: m ) */
(PID.TID 0000.0001)    50 @  1.111774733520388E+04              /* I =  1: 50 */
(PID.TID 0000.0001)     ;
(PID.TID 0000.0001) dyU =  /* dyU(1,:,1,:) ( units: m ) */
(PID.TID 0000.0001)   100 @  1.111774733520388E+04              /* J =  1:100 */
(PID.TID 0000.0001)     ;
(PID.TID 0000.0001) rA  =  /* rA (:,1,:,1) ( units: m^2 ) */
(PID.TID 0000.0001)    50 @  6.470963377080289E+07              /* I =  1: 50 */
(PID.TID 0000.0001)     ;
(PID.TID 0000.0001) rA  =  /* rA (1,:,1,:) ( units: m^2 ) */
(PID.TID 0000.0001)                 6.470963377080289E+07,      /* J =  1 */
(PID.TID 0000.0001)                 6.534679484410104E+07,      /* J =  2 */
(PID.TID 0000.0001)                 6.598375685977945E+07,      /* J =  3 */
(PID.TID 0000.0001)                 6.662051787745729E+07,      /* J =  4 */
(PID.TID 0000.0001)                 6.725707595748492E+07,      /* J =  5 */
(PID.TID 0000.0001)                 6.789342916077879E+07,      /* J =  6 */
(PID.TID 0000.0001)                 6.852957554896304E+07,      /* J =  7 */
(PID.TID 0000.0001)                 6.916551318413351E+07,      /* J =  8 */
(PID.TID 0000.0001)                 6.980124012916450E+07,      /* J =  9 */
(PID.TID 0000.0001)                 7.043675444751994E+07,      /* J = 10 */
(PID.TID 0000.0001)                 7.107205420332426E+07,      /* J = 11 */
(PID.TID 0000.0001)                 7.170713746129155E+07,      /* J = 12 */
(PID.TID 0000.0001)                 7.234200228686719E+07,      /* J = 13 */
(PID.TID 0000.0001)                 7.297664674622770E+07,      /* J = 14 */
(PID.TID 0000.0001)                 7.361106890599781E+07,      /* J = 15 */
(PID.TID 0000.0001)                 7.424526683372219E+07,      /* J = 16 */
(PID.TID 0000.0001)                 7.487923859746441E+07,      /* J = 17 */
(PID.TID 0000.0001)                 7.551298226611364E+07,      /* J = 18 */
(PID.TID 0000.0001)                 7.614649590905435E+07,      /* J = 19 */
(PID.TID 0000.0001)                 7.677977759659100E+07,      /* J = 20 */
(PID.TID 0000.0001)                 7.741282539961770E+07,      /* J = 21 */
(PID.TID 0000.0001)                 7.804563738973619E+07,      /* J = 22 */
(PID.TID 0000.0001)                 7.867821163932665E+07,      /* J = 23 */
(PID.TID 0000.0001)                 7.931054622142966E+07,      /* J = 24 */
(PID.TID 0000.0001)                 7.994263920984067E+07,      /* J = 25 */
(PID.TID 0000.0001)                 8.057448867913349E+07,      /* J = 26 */
(PID.TID 0000.0001)                 8.120609270456599E+07,      /* J = 27 */
(PID.TID 0000.0001)                 8.183744936212724E+07,      /* J = 28 */
(PID.TID 0000.0001)                 8.246855672863193E+07,      /* J = 29 */
(PID.TID 0000.0001)                 8.309941288162594E+07,      /* J = 30 */
(PID.TID 0000.0001)                 8.373001589938636E+07,      /* J = 31 */
(PID.TID 0000.0001)                 8.436036386101587E+07,      /* J = 32 */
(PID.TID 0000.0001)                 8.499045484630123E+07,      /* J = 33 */
(PID.TID 0000.0001)                 8.562028693597265E+07,      /* J = 34 */
(PID.TID 0000.0001)                 8.624985821137366E+07,      /* J = 35 */
(PID.TID 0000.0001)                 8.687916675476770E+07,      /* J = 36 */
(PID.TID 0000.0001)                 8.750821064912586E+07,      /* J = 37 */
(PID.TID 0000.0001)                 8.813698797831558E+07,      /* J = 38 */
(PID.TID 0000.0001)                 8.876549682695904E+07,      /* J = 39 */
(PID.TID 0000.0001)                 8.939373528048050E+07,      /* J = 40 */
(PID.TID 0000.0001)                 9.002170142522410E+07,      /* J = 41 */
(PID.TID 0000.0001)                 9.064939334821798E+07,      /* J = 42 */
(PID.TID 0000.0001)                 9.127680913743389E+07,      /* J = 43 */
(PID.TID 0000.0001)                 9.190394688169266E+07,      /* J = 44 */
(PID.TID 0000.0001)                 9.253080467056999E+07,      /* J = 45 */
(PID.TID 0000.0001)                 9.315738059456144E+07,      /* J = 46 */
(PID.TID 0000.0001)                 9.378367274503537E+07,      /* J = 47 */
(PID.TID 0000.0001)                 9.440967921416211E+07,      /* J = 48 */
(PID.TID 0000.0001)                 9.503539809503193E+07,      /* J = 49 */
(PID.TID 0000.0001)                 9.566082748163140E+07,      /* J = 50 */
(PID.TID 0000.0001)                 9.628596546870193E+07,      /* J = 51 */
(PID.TID 0000.0001)                 9.691081015209354E+07,      /* J = 52 */
(PID.TID 0000.0001)                 9.753535962826957E+07,      /* J = 53 */
(PID.TID 0000.0001)                 9.815961199489628E+07,      /* J = 54 */
(PID.TID 0000.0001)                 9.878356535030043E+07,      /* J = 55 */
(PID.TID 0000.0001)                 9.940721779379947E+07,      /* J = 56 */
(PID.TID 0000.0001)                 1.000305674257251E+08,      /* J = 57 */
(PID.TID 0000.0001)                 1.006536123471403E+08,      /* J = 58 */
(PID.TID 0000.0001)                 1.012763506602401E+08,      /* J = 59 */
(PID.TID 0000.0001)                 1.018987804679982E+08,      /* J = 60 */
(PID.TID 0000.0001)                 1.025208998744024E+08,      /* J = 61 */
(PID.TID 0000.0001)                 1.031427069843603E+08,      /* J = 62 */
(PID.TID 0000.0001)                 1.037641999037469E+08,      /* J = 63 */
(PID.TID 0000.0001)                 1.043853767394042E+08,      /* J = 64 */
(PID.TID 0000.0001)                 1.050062355990467E+08,      /* J = 65 */
(PID.TID 0000.0001)                 1.056267745915686E+08,      /* J = 66 */
(PID.TID 0000.0001)                 1.062469918265245E+08,      /* J = 67 */
(PID.TID 0000.0001)                 1.068668854147899E+08,      /* J = 68 */
(PID.TID 0000.0001)                 1.074864534679241E+08,      /* J = 69 */
(PID.TID 0000.0001)                 1.081056940987605E+08,      /* J = 70 */
(PID.TID 0000.0001)                 1.087246054208165E+08,      /* J = 71 */
(PID.TID 0000.0001)                 1.093431855489537E+08,      /* J = 72 */
(PID.TID 0000.0001)                 1.099614325987181E+08,      /* J = 73 */
(PID.TID 0000.0001)                 1.105793446869293E+08,      /* J = 74 */
(PID.TID 0000.0001)                 1.111969199312560E+08,      /* J = 75 */
(PID.TID 0000.0001)                 1.118141564504991E+08,      /* J = 76 */
(PID.TID 0000.0001)                 1.124310523644033E+08,      /* J = 77 */
(PID.TID 0000.0001)                 1.130476057938687E+08,      /* J = 78 */
(PID.TID 0000.0001)                 1.136638148606683E+08,      /* J = 79 */
(PID.TID 0000.0001)                 1.142796776878255E+08,      /* J = 80 */
(PID.TID 0000.0001)                 1.148951923992126E+08,      /* J = 81 */
(PID.TID 0000.0001)                 1.155103571199756E+08,      /* J = 82 */
(PID.TID 0000.0001)                 1.161251699761098E+08,      /* J = 83 */
(PID.TID 0000.0001)                 1.167396290948606E+08,      /* J = 84 */
(PID.TID 0000.0001)                 1.173537326044641E+08,      /* J = 85 */
(PID.TID 0000.0001)                 1.179674786342178E+08,      /* J = 86 */
(PID.TID 0000.0001)                 1.185808653145988E+08,      /* J = 87 */
(PID.TID 0000.0001)                 1.191938907770982E+08,      /* J = 88 */
(PID.TID 0000.0001)                 1.198065531543159E+08,      /* J = 89 */
(PID.TID 0000.0001)                 1.204188505800075E+08,      /* J = 90 */
(PID.TID 0000.0001)                 1.210307811890137E+08,      /* J = 91 */
(PID.TID 0000.0001)                 1.216423431172366E+08,      /* J = 92 */
(PID.TID 0000.0001)                 1.222535345018050E+08,      /* J = 93 */
(PID.TID 0000.0001)                 1.228643534808854E+08,      /* J = 94 */
(PID.TID 0000.0001)                 1.234747981938710E+08,      /* J = 95 */
(PID.TID 0000.0001)                 1.240848667811927E+08,      /* J = 96 */
(PID.TID 0000.0001)                 1.246945573844846E+08,      /* J = 97 */
(PID.TID 0000.0001)                 1.253038681465364E+08,      /* J = 98 */
(PID.TID 0000.0001)                 1.259127972112936E+08,      /* J = 99 */
(PID.TID 0000.0001)                 1.265213427237870E+08       /* J =100 */
(PID.TID 0000.0001)     ;
(PID.TID 0000.0001) rAw =  /* rAw(:,1,:,1) ( units: m^2 ) */
(PID.TID 0000.0001)    50 @  6.470963377080289E+07              /* I =  1: 50 */
(PID.TID 0000.0001)     ;
(PID.TID 0000.0001) rAw =  /* rAw(1,:,1,:) ( units: m^2 ) */
(PID.TID 0000.0001)                 6.470963377080289E+07,      /* J =  1 */
(PID.TID 0000.0001)                 6.534679484410104E+07,      /* J =  2 */
(PID.TID 0000.0001)                 6.598375685977945E+07,      /* J =  3 */
(PID.TID 0000.0001)                 6.662051787745729E+07,      /* J =  4 */
(PID.TID 0000.0001)                 6.725707595748492E+07,      /* J =  5 */
(PID.TID 0000.0001)                 6.789342916077879E+07,      /* J =  6 */
(PID.TID 0000.0001)                 6.852957554896304E+07,      /* J =  7 */
(PID.TID 0000.0001)                 6.916551318413351E+07,      /* J =  8 */
(PID.TID 0000.0001)                 6.980124012916450E+07,      /* J =  9 */
(PID.TID 0000.0001)                 7.043675444751994E+07,      /* J = 10 */
(PID.TID 0000.0001)                 7.107205420332426E+07,      /* J = 11 */
(PID.TID 0000.0001)                 7.170713746129155E+07,      /* J = 12 */
(PID.TID 0000.0001)                 7.234200228686719E+07,      /* J = 13 */
(PID.TID 0000.0001)                 7.297664674622770E+07,      /* J = 14 */
(PID.TID 0000.0001)                 7.361106890599781E+07,      /* J = 15 */
(PID.TID 0000.0001)                 7.424526683372219E+07,      /* J = 16 */
(PID.TID 0000.0001)                 7.487923859746441E+07,      /* J = 17 */
(PID.TID 0000.0001)                 7.551298226611364E+07,      /* J = 18 */
(PID.TID 0000.0001)                 7.614649590905435E+07,      /* J = 19 */
(PID.TID 0000.0001)                 7.677977759659100E+07,      /* J = 20 */
(PID.TID 0000.0001)                 7.741282539961770E+07,      /* J = 21 */
(PID.TID 0000.0001)                 7.804563738973619E+07,      /* J = 22 */
(PID.TID 0000.0001)                 7.867821163932665E+07,      /* J = 23 */
(PID.TID 0000.0001)                 7.931054622142966E+07,      /* J = 24 */
(PID.TID 0000.0001)                 7.994263920984067E+07,      /* J = 25 */
(PID.TID 0000.0001)                 8.057448867913349E+07,      /* J = 26 */
(PID.TID 0000.0001)                 8.120609270456599E+07,      /* J = 27 */
(PID.TID 0000.0001)                 8.183744936212724E+07,      /* J = 28 */
(PID.TID 0000.0001)                 8.246855672863193E+07,      /* J = 29 */
(PID.TID 0000.0001)                 8.309941288162594E+07,      /* J = 30 */
(PID.TID 0000.0001)                 8.373001589938636E+07,      /* J = 31 */
(PID.TID 0000.0001)                 8.436036386101587E+07,      /* J = 32 */
(PID.TID 0000.0001)                 8.499045484630123E+07,      /* J = 33 */
(PID.TID 0000.0001)                 8.562028693597265E+07,      /* J = 34 */
(PID.TID 0000.0001)                 8.624985821137366E+07,      /* J = 35 */
(PID.TID 0000.0001)                 8.687916675476770E+07,      /* J = 36 */
(PID.TID 0000.0001)                 8.750821064912586E+07,      /* J = 37 */
(PID.TID 0000.0001)                 8.813698797831558E+07,      /* J = 38 */
(PID.TID 0000.0001)                 8.876549682695904E+07,      /* J = 39 */
(PID.TID 0000.0001)                 8.939373528048050E+07,      /* J = 40 */
(PID.TID 0000.0001)                 9.002170142522410E+07,      /* J = 41 */
(PID.TID 0000.0001)                 9.064939334821798E+07,      /* J = 42 */
(PID.TID 0000.0001)                 9.127680913743389E+07,      /* J = 43 */
(PID.TID 0000.0001)                 9.190394688169266E+07,      /* J = 44 */
(PID.TID 0000.0001)                 9.253080467056999E+07,      /* J = 45 */
(PID.TID 0000.0001)                 9.315738059456144E+07,      /* J = 46 */
(PID.TID 0000.0001)                 9.378367274503537E+07,      /* J = 47 */
(PID.TID 0000.0001)                 9.440967921416211E+07,      /* J = 48 */
(PID.TID 0000.0001)                 9.503539809503193E+07,      /* J = 49 */
(PID.TID 0000.0001)                 9.566082748163140E+07,      /* J = 50 */
(PID.TID 0000.0001)                 9.628596546870193E+07,      /* J = 51 */
(PID.TID 0000.0001)                 9.691081015209354E+07,      /* J = 52 */
(PID.TID 0000.0001)                 9.753535962826957E+07,      /* J = 53 */
(PID.TID 0000.0001)                 9.815961199489628E+07,      /* J = 54 */
(PID.TID 0000.0001)                 9.878356535030043E+07,      /* J = 55 */
(PID.TID 0000.0001)                 9.940721779379947E+07,      /* J = 56 */
(PID.TID 0000.0001)                 1.000305674257251E+08,      /* J = 57 */
(PID.TID 0000.0001)                 1.006536123471403E+08,      /* J = 58 */
(PID.TID 0000.0001)                 1.012763506602401E+08,      /* J = 59 */
(PID.TID 0000.0001)                 1.018987804679982E+08,      /* J = 60 */
(PID.TID 0000.0001)                 1.025208998744024E+08,      /* J = 61 */
(PID.TID 0000.0001)                 1.031427069843603E+08,      /* J = 62 */
(PID.TID 0000.0001)                 1.037641999037469E+08,      /* J = 63 */
(PID.TID 0000.0001)                 1.043853767394042E+08,      /* J = 64 */
(PID.TID 0000.0001)                 1.050062355990467E+08,      /* J = 65 */
(PID.TID 0000.0001)                 1.056267745915686E+08,      /* J = 66 */
(PID.TID 0000.0001)                 1.062469918265245E+08,      /* J = 67 */
(PID.TID 0000.0001)                 1.068668854147899E+08,      /* J = 68 */
(PID.TID 0000.0001)                 1.074864534679241E+08,      /* J = 69 */
(PID.TID 0000.0001)                 1.081056940987605E+08,      /* J = 70 */
(PID.TID 0000.0001)                 1.087246054208165E+08,      /* J = 71 */
(PID.TID 0000.0001)                 1.093431855489537E+08,      /* J = 72 */
(PID.TID 0000.0001)                 1.099614325987181E+08,      /* J = 73 */
(PID.TID 0000.0001)                 1.105793446869293E+08,      /* J = 74 */
(PID.TID 0000.0001)                 1.111969199312560E+08,      /* J = 75 */
(PID.TID 0000.0001)                 1.118141564504991E+08,      /* J = 76 */
(PID.TID 0000.0001)                 1.124310523644033E+08,      /* J = 77 */
(PID.TID 0000.0001)                 1.130476057938687E+08,      /* J = 78 */
(PID.TID 0000.0001)                 1.136638148606683E+08,      /* J = 79 */
(PID.TID 0000.0001)                 1.142796776878255E+08,      /* J = 80 */
(PID.TID 0000.0001)                 1.148951923992126E+08,      /* J = 81 */
(PID.TID 0000.0001)                 1.155103571199756E+08,      /* J = 82 */
(PID.TID 0000.0001)                 1.161251699761098E+08,      /* J = 83 */
(PID.TID 0000.0001)                 1.167396290948606E+08,      /* J = 84 */
(PID.TID 0000.0001)                 1.173537326044641E+08,      /* J = 85 */
(PID.TID 0000.0001)                 1.179674786342178E+08,      /* J = 86 */
(PID.TID 0000.0001)                 1.185808653145988E+08,      /* J = 87 */
(PID.TID 0000.0001)                 1.191938907770982E+08,      /* J = 88 */
(PID.TID 0000.0001)                 1.198065531543159E+08,      /* J = 89 */
(PID.TID 0000.0001)                 1.204188505800075E+08,      /* J = 90 */
(PID.TID 0000.0001)                 1.210307811890137E+08,      /* J = 91 */
(PID.TID 0000.0001)                 1.216423431172366E+08,      /* J = 92 */
(PID.TID 0000.0001)                 1.222535345018050E+08,      /* J = 93 */
(PID.TID 0000.0001)                 1.228643534808854E+08,      /* J = 94 */
(PID.TID 0000.0001)                 1.234747981938710E+08,      /* J = 95 */
(PID.TID 0000.0001)                 1.240848667811927E+08,      /* J = 96 */
(PID.TID 0000.0001)                 1.246945573844846E+08,      /* J = 97 */
(PID.TID 0000.0001)                 1.253038681465364E+08,      /* J = 98 */
(PID.TID 0000.0001)                 1.259127972112936E+08,      /* J = 99 */
(PID.TID 0000.0001)                 1.265213427237870E+08       /* J =100 */
(PID.TID 0000.0001)     ;
(PID.TID 0000.0001) rAs =  /* rAs(:,1,:,1) ( units: m^2 ) */
(PID.TID 0000.0001)    50 @  6.439097919401864E+07              /* I =  1: 50 */
(PID.TID 0000.0001)     ;
(PID.TID 0000.0001) rAs =  /* rAs(1,:,1,:) ( units: m^2 ) */
(PID.TID 0000.0001)                 6.439097919401864E+07,      /* J =  1 */
(PID.TID 0000.0001)                 6.502823906837179E+07,      /* J =  2 */
(PID.TID 0000.0001)                 6.566530085543716E+07,      /* J =  3 */
(PID.TID 0000.0001)                 6.630216261459803E+07,      /* J =  4 */
(PID.TID 0000.0001)                 6.693882240587452E+07,      /* J =  5 */
(PID.TID 0000.0001)                 6.757527828990008E+07,      /* J =  6 */
(PID.TID 0000.0001)                 6.821152832789779E+07,      /* J =  7 */
(PID.TID 0000.0001)                 6.884757058175126E+07,      /* J =  8 */
(PID.TID 0000.0001)                 6.948340311398090E+07,      /* J =  9 */
(PID.TID 0000.0001)                 7.011902398769690E+07,      /* J = 10 */
(PID.TID 0000.0001)                 7.075443126669341E+07,      /* J = 11 */
(PID.TID 0000.0001)                 7.138962301544867E+07,      /* J = 12 */
(PID.TID 0000.0001)                 7.202459729903063E+07,      /* J = 13 */
(PID.TID 0000.0001)                 7.265935218316765E+07,      /* J = 14 */
(PID.TID 0000.0001)                 7.329388573434296E+07,      /* J = 15 */
(PID.TID 0000.0001)                 7.392819601962943E+07,      /* J = 16 */
(PID.TID 0000.0001)                 7.456228110680762E+07,      /* J = 17 */
(PID.TID 0000.0001)                 7.519613906436566E+07,      /* J = 18 */
(PID.TID 0000.0001)                 7.582976796140501E+07,      /* J = 19 */
(PID.TID 0000.0001)                 7.646316586782910E+07,      /* J = 20 */
(PID.TID 0000.0001)                 7.709633085422541E+07,      /* J = 21 */
(PID.TID 0000.0001)                 7.772926099177113E+07,      /* J = 22 */
(PID.TID 0000.0001)                 7.836195435256335E+07,      /* J = 23 */
(PID.TID 0000.0001)                 7.899440900921808E+07,      /* J = 24 */
(PID.TID 0000.0001)                 7.962662303520055E+07,      /* J = 25 */
(PID.TID 0000.0001)                 8.025859450470714E+07,      /* J = 26 */
(PID.TID 0000.0001)                 8.089032149259475E+07,      /* J = 27 */
(PID.TID 0000.0001)                 8.152180207452223E+07,      /* J = 28 */
(PID.TID 0000.0001)                 8.215303432695043E+07,      /* J = 29 */
(PID.TID 0000.0001)                 8.278401632695346E+07,      /* J = 30 */
(PID.TID 0000.0001)                 8.341474615247822E+07,      /* J = 31 */
(PID.TID 0000.0001)                 8.404522188224998E+07,      /* J = 32 */
(PID.TID 0000.0001)                 8.467544159567805E+07,      /* J = 33 */
(PID.TID 0000.0001)                 8.530540337302092E+07,      /* J = 34 */
(PID.TID 0000.0001)                 8.593510529533908E+07,      /* J = 35 */
(PID.TID 0000.0001)                 8.656454544440059E+07,      /* J = 36 */
(PID.TID 0000.0001)                 8.719372190284635E+07,      /* J = 37 */
(PID.TID 0000.0001)                 8.782263275409557E+07,      /* J = 38 */
(PID.TID 0000.0001)                 8.845127608236952E+07,      /* J = 39 */
(PID.TID 0000.0001)                 8.907964997273858E+07,      /* J = 40 */
(PID.TID 0000.0001)                 8.970775251102796E+07,      /* J = 41 */
(PID.TID 0000.0001)                 9.033558178395921E+07,      /* J = 42 */
(PID.TID 0000.0001)                 9.096313587903227E+07,      /* J = 43 */
(PID.TID 0000.0001)                 9.159041288459623E+07,      /* J = 44 */
(PID.TID 0000.0001)                 9.221741088992015E+07,      /* J = 45 */
(PID.TID 0000.0001)                 9.284412798498066E+07,      /* J = 46 */
(PID.TID 0000.0001)                 9.347056226076873E+07,      /* J = 47 */
(PID.TID 0000.0001)                 9.409671180895932E+07,      /* J = 48 */
(PID.TID 0000.0001)                 9.472257472228888E+07,      /* J = 49 */
(PID.TID 0000.0001)                 9.534814909420149E+07,      /* J = 50 */
(PID.TID 0000.0001)                 9.597343301913190E+07,      /* J = 51 */
(PID.TID 0000.0001)                 9.659842459236403E+07,      /* J = 52 */
(PID.TID 0000.0001)                 9.722312190998378E+07,      /* J = 53 */
(PID.TID 0000.0001)                 9.784752306916212E+07,      /* J = 54 */
(PID.TID 0000.0001)                 9.847162616780120E+07,      /* J = 55 */
(PID.TID 0000.0001)                 9.909542930479389E+07,      /* J = 56 */
(PID.TID 0000.0001)                 9.971893057990581E+07,      /* J = 57 */
(PID.TID 0000.0001)                 1.003421280938932E+08,      /* J = 58 */
(PID.TID 0000.0001)                 1.009650199483144E+08,      /* J = 59 */
(PID.TID 0000.0001)                 1.015876042458127E+08,      /* J = 60 */
(PID.TID 0000.0001)                 1.022098790898334E+08,      /* J = 61 */
(PID.TID 0000.0001)                 1.028318425848597E+08,      /* J = 62 */
(PID.TID 0000.0001)                 1.034534928362239E+08,      /* J = 63 */
(PID.TID 0000.0001)                 1.040748279503199E+08,      /* J = 64 */
(PID.TID 0000.0001)                 1.046958460344376E+08,      /* J = 65 */
(PID.TID 0000.0001)                 1.053165451968815E+08,      /* J = 66 */
(PID.TID 0000.0001)                 1.059369235468288E+08,      /* J = 67 */
(PID.TID 0000.0001)                 1.065569791945417E+08,      /* J = 68 */
(PID.TID 0000.0001)                 1.071767102512258E+08,      /* J = 69 */
(PID.TID 0000.0001)                 1.077961148290539E+08,      /* J = 70 */
(PID.TID 0000.0001)                 1.084151910412367E+08,      /* J = 71 */
(PID.TID 0000.0001)                 1.090339370019284E+08,      /* J = 72 */
(PID.TID 0000.0001)                 1.096523508263446E+08,      /* J = 73 */
(PID.TID 0000.0001)                 1.102704306306916E+08,      /* J = 74 */
(PID.TID 0000.0001)                 1.108881745321664E+08,      /* J = 75 */
(PID.TID 0000.0001)                 1.115055806490511E+08,      /* J = 76 */
(PID.TID 0000.0001)                 1.121226471005947E+08,      /* J = 77 */
(PID.TID 0000.0001)                 1.127393720071080E+08,      /* J = 78 */
(PID.TID 0000.0001)                 1.133557534899393E+08,      /* J = 79 */
(PID.TID 0000.0001)                 1.139717896714750E+08,      /* J = 80 */
(PID.TID 0000.0001)                 1.145874786751864E+08,      /* J = 81 */
(PID.TID 0000.0001)                 1.152028186255828E+08,      /* J = 82 */
(PID.TID 0000.0001)                 1.158178076481876E+08,      /* J = 83 */
(PID.TID 0000.0001)                 1.164324438696802E+08,      /* J = 84 */
(PID.TID 0000.0001)                 1.170467254177541E+08,      /* J = 85 */
(PID.TID 0000.0001)                 1.176606504211880E+08,      /* J = 86 */
(PID.TID 0000.0001)                 1.182742170098927E+08,      /* J = 87 */
(PID.TID 0000.0001)                 1.188874233148169E+08,      /* J = 88 */
(PID.TID 0000.0001)                 1.195002674680178E+08,      /* J = 89 */
(PID.TID 0000.0001)                 1.201127476027324E+08,      /* J = 90 */
(PID.TID 0000.0001)                 1.207248618531171E+08,      /* J = 91 */
(PID.TID 0000.0001)                 1.213366083546731E+08,      /* J = 92 */
(PID.TID 0000.0001)                 1.219479852438687E+08,      /* J = 93 */
(PID.TID 0000.0001)                 1.225589906583516E+08,      /* J = 94 */
(PID.TID 0000.0001)                 1.231696227369014E+08,      /* J = 95 */
(PID.TID 0000.0001)                 1.237798796194069E+08,      /* J = 96 */
(PID.TID 0000.0001)                 1.243897594469357E+08,      /* J = 97 */
(PID.TID 0000.0001)                 1.249992603617116E+08,      /* J = 98 */
(PID.TID 0000.0001)                 1.256083805070198E+08,      /* J = 99 */
(PID.TID 0000.0001)                 1.262171180274426E+08       /* J =100 */
(PID.TID 0000.0001)     ;
(PID.TID 0000.0001) globalArea = /* Integrated horizontal Area (m^2) */
(PID.TID 0000.0001)                 4.665024516720103E+11
(PID.TID 0000.0001)     ;
(PID.TID 0000.0001) // =======================================================
(PID.TID 0000.0001) // End of Model config. summary
(PID.TID 0000.0001) // =======================================================
(PID.TID 0000.0001) 
(PID.TID 0000.0001) // =======================================================
(PID.TID 0000.0001) // Field Initial Temperature at iteration          1
(PID.TID 0000.0001) // CMIN =          1.000000000000000E+32
(PID.TID 0000.0001) // CMAX =         -1.000000000000000E+32
(PID.TID 0000.0001) // CINT =          0.000000000000000E+00
(PID.TID 0000.0001) // SYMBOLS (CMIN->CMAX): -abcdefghijklmnopqrstuvwxyz+
(PID.TID 0000.0001) //                  0.0: .
(PID.TID 0000.0001) // RANGE I (Lo:Hi:Step):(   1:  50:   1)
(PID.TID 0000.0001) // RANGE J (Lo:Hi:Step):( 100:   1:  -1)
(PID.TID 0000.0001) // RANGE K (Lo:Hi:Step):(   1:   1:   1)
(PID.TID 0000.0001) // =======================================================
(PID.TID 0000.0001) // =======================================================
(PID.TID 0000.0001) // END OF FIELD                                          =
(PID.TID 0000.0001) // =======================================================
(PID.TID 0000.0001) 
(PID.TID 0000.0001) // =======================================================
(PID.TID 0000.0001) // Field Initial Salinity at iteration          1
(PID.TID 0000.0001) // CMIN =          1.000000000000000E+32
(PID.TID 0000.0001) // CMAX =         -1.000000000000000E+32
(PID.TID 0000.0001) // CINT =          0.000000000000000E+00
(PID.TID 0000.0001) // SYMBOLS (CMIN->CMAX): -abcdefghijklmnopqrstuvwxyz+
(PID.TID 0000.0001) //                  0.0: .
(PID.TID 0000.0001) // RANGE I (Lo:Hi:Step):(   1:  50:   1)
(PID.TID 0000.0001) // RANGE J (Lo:Hi:Step):( 100:   1:  -1)
(PID.TID 0000.0001) // RANGE K (Lo:Hi:Step):(   1:   1:   1)
(PID.TID 0000.0001) // =======================================================
(PID.TID 0000.0001) // =======================================================
(PID.TID 0000.0001) // END OF FIELD                                          =
(PID.TID 0000.0001) // =======================================================
(PID.TID 0000.0001) 
(PID.TID 0000.0001) Start initial hydrostatic pressure computation
(PID.TID 0000.0001) Pressure is predetermined for buoyancyRelation OCEANIC
(PID.TID 0000.0001) 
(PID.TID 0000.0001) // =======================================================
(PID.TID 0000.0001) // Model current state
(PID.TID 0000.0001) // =======================================================
(PID.TID 0000.0001) 
(PID.TID 0000.0001) // =======================================================
(PID.TID 0000.0001) // Begin MONITOR dynamic field statistics
(PID.TID 0000.0001) // =======================================================
(PID.TID 0000.0001) %MON time_tsnumber                =                     0
(PID.TID 0000.0001) %MON time_secondsf                =   0.0000000000000E+00
(PID.TID 0000.0001) %MON dynstat_eta_max              =   0.0000000000000E+00
(PID.TID 0000.0001) %MON dynstat_eta_min              =   0.0000000000000E+00
(PID.TID 0000.0001) %MON dynstat_eta_mean             =   0.0000000000000E+00
(PID.TID 0000.0001) %MON dynstat_eta_sd               =   0.0000000000000E+00
(PID.TID 0000.0001) %MON dynstat_eta_del2             =   0.0000000000000E+00
(PID.TID 0000.0001) %MON dynstat_uvel_max             =   0.0000000000000E+00
(PID.TID 0000.0001) %MON dynstat_uvel_min             =   0.0000000000000E+00
(PID.TID 0000.0001) %MON dynstat_uvel_mean            =   0.0000000000000E+00
(PID.TID 0000.0001) %MON dynstat_uvel_sd              =   0.0000000000000E+00
(PID.TID 0000.0001) %MON dynstat_uvel_del2            =   0.0000000000000E+00
(PID.TID 0000.0001) %MON dynstat_vvel_max             =   0.0000000000000E+00
(PID.TID 0000.0001) %MON dynstat_vvel_min             =   0.0000000000000E+00
(PID.TID 0000.0001) %MON dynstat_vvel_mean            =   0.0000000000000E+00
(PID.TID 0000.0001) %MON dynstat_vvel_sd              =   0.0000000000000E+00
(PID.TID 0000.0001) %MON dynstat_vvel_del2            =   0.0000000000000E+00
(PID.TID 0000.0001) %MON dynstat_wvel_max             =   0.0000000000000E+00
(PID.TID 0000.0001) %MON dynstat_wvel_min             =   0.0000000000000E+00
(PID.TID 0000.0001) %MON dynstat_wvel_mean            =   0.0000000000000E+00
(PID.TID 0000.0001) %MON dynstat_wvel_sd              =   0.0000000000000E+00
(PID.TID 0000.0001) %MON dynstat_wvel_del2            =   0.0000000000000E+00
(PID.TID 0000.0001) %MON dynstat_theta_max            =  -1.9000000000000E+00
(PID.TID 0000.0001) %MON dynstat_theta_min            =  -1.9000000000000E+00
(PID.TID 0000.0001) %MON dynstat_theta_mean           =  -1.9000000000000E+00
(PID.TID 0000.0001) %MON dynstat_theta_sd             =   0.0000000000000E+00
(PID.TID 0000.0001) %MON dynstat_theta_del2           =   0.0000000000000E+00
(PID.TID 0000.0001) %MON dynstat_salt_max             =   3.4400000000000E+01
(PID.TID 0000.0001) %MON dynstat_salt_min             =   3.4400000000000E+01
(PID.TID 0000.0001) %MON dynstat_salt_mean            =   3.4400000000002E+01
(PID.TID 0000.0001) %MON dynstat_salt_sd              =   2.0961010704923E-12
(PID.TID 0000.0001) %MON dynstat_salt_del2            =   0.0000000000000E+00
(PID.TID 0000.0001) %MON advcfl_uvel_max              =   0.0000000000000E+00
(PID.TID 0000.0001) %MON advcfl_vvel_max              =   0.0000000000000E+00
(PID.TID 0000.0001) %MON advcfl_wvel_max              =   0.0000000000000E+00
(PID.TID 0000.0001) %MON advcfl_W_hf_max              =   0.0000000000000E+00
(PID.TID 0000.0001) %MON pe_b_mean                    =   0.0000000000000E+00
(PID.TID 0000.0001) %MON ke_max                       =   0.0000000000000E+00
(PID.TID 0000.0001) %MON ke_mean                      =   0.0000000000000E+00
(PID.TID 0000.0001) %MON ke_vol                       =   2.9241705273104E+14
(PID.TID 0000.0001) %MON vort_r_min                   =   0.0000000000000E+00
(PID.TID 0000.0001) %MON vort_r_max                   =   0.0000000000000E+00
(PID.TID 0000.0001) %MON vort_a_mean                  =  -1.4007437277915E-04
(PID.TID 0000.0001) %MON vort_a_sd                    =   1.7682771465337E-06
(PID.TID 0000.0001) %MON vort_p_mean                  =  -1.5039772194955E-04
(PID.TID 0000.0001) %MON vort_p_sd                    =   8.7081213929711E-05
(PID.TID 0000.0001) %MON surfExpan_theta_mean         =   0.0000000000000E+00
(PID.TID 0000.0001) %MON surfExpan_salt_mean          =   0.0000000000000E+00
(PID.TID 0000.0001) // =======================================================
(PID.TID 0000.0001) // End MONITOR dynamic field statistics
(PID.TID 0000.0001) // =======================================================
 cg2d: Sum(rhs),rhsMax =  -1.83186799063151E-14  3.88700162323895E-14
(PID.TID 0000.0001)                    cg2d_init_res =    2.18953287600515E+01
(PID.TID 0000.0001)                       cg2d_iters =   216
(PID.TID 0000.0001)                         cg2d_res =    9.20750847868326E-14
(PID.TID 0000.0001) // =======================================================
(PID.TID 0000.0001) // Begin MONITOR dynamic field statistics
(PID.TID 0000.0001) // =======================================================
(PID.TID 0000.0001) %MON time_tsnumber                =                     1
(PID.TID 0000.0001) %MON time_secondsf                =   1.8000000000000E+03
(PID.TID 0000.0001) %MON dynstat_eta_max              =   2.9172428893540E-14
(PID.TID 0000.0001) %MON dynstat_eta_min              =  -1.8475101007480E-14
(PID.TID 0000.0001) %MON dynstat_eta_mean             =   3.5946206801286E-30
(PID.TID 0000.0001) %MON dynstat_eta_sd               =   7.3556156094534E-15
(PID.TID 0000.0001) %MON dynstat_eta_del2             =   5.3829126889287E-16
(PID.TID 0000.0001) %MON dynstat_uvel_max             =   1.0788672123772E-15
(PID.TID 0000.0001) %MON dynstat_uvel_min             =  -1.2238471730639E-15
(PID.TID 0000.0001) %MON dynstat_uvel_mean            =   9.9170813469251E-17
(PID.TID 0000.0001) %MON dynstat_uvel_sd              =   3.5676722034974E-16
(PID.TID 0000.0001) %MON dynstat_uvel_del2            =   7.1220547327556E-17
(PID.TID 0000.0001) %MON dynstat_vvel_max             =   9.6860214043341E-17
(PID.TID 0000.0001) %MON dynstat_vvel_min             =  -4.1124222343785E-15
(PID.TID 0000.0001) %MON dynstat_vvel_mean            =  -9.0699308283666E-16
(PID.TID 0000.0001) %MON dynstat_vvel_sd              =   1.1550308930280E-15
(PID.TID 0000.0001) %MON dynstat_vvel_del2            =   7.8928935467701E-18
(PID.TID 0000.0001) %MON dynstat_wvel_max             =   1.6206904940856E-17
(PID.TID 0000.0001) %MON dynstat_wvel_min             =  -1.3159813703837E-17
(PID.TID 0000.0001) %MON dynstat_wvel_mean            =  -7.2632899150968E-19
(PID.TID 0000.0001) %MON dynstat_wvel_sd              =   2.0036033020317E-18
(PID.TID 0000.0001) %MON dynstat_wvel_del2            =   1.3952463819852E-19
(PID.TID 0000.0001) %MON dynstat_theta_max            =  -1.9000000000000E+00
(PID.TID 0000.0001) %MON dynstat_theta_min            =  -1.9030052660460E+00
(PID.TID 0000.0001) %MON dynstat_theta_mean           =  -1.9000555939192E+00
(PID.TID 0000.0001) %MON dynstat_theta_sd             =   2.5248038268679E-04
(PID.TID 0000.0001) %MON dynstat_theta_del2           =   3.3715119434934E-06
(PID.TID 0000.0001) %MON dynstat_salt_max             =   3.4400000000000E+01
(PID.TID 0000.0001) %MON dynstat_salt_min             =   3.4398805707273E+01
(PID.TID 0000.0001) %MON dynstat_salt_mean            =   3.4399977906979E+01
(PID.TID 0000.0001) %MON dynstat_salt_sd              =   1.0033570408003E-04
(PID.TID 0000.0001) %MON dynstat_salt_del2            =   1.3398388463472E-06
(PID.TID 0000.0001) %MON advcfl_uvel_max              =   3.4650666880848E-16
(PID.TID 0000.0001) %MON advcfl_vvel_max              =   6.6581473734719E-16
(PID.TID 0000.0001) %MON advcfl_wvel_max              =   9.7241429645134E-16
(PID.TID 0000.0001) %MON advcfl_W_hf_max              =   1.0607925590321E-14
(PID.TID 0000.0001) %MON pe_b_mean                    =  -5.9508927605323E-18
(PID.TID 0000.0001) %MON ke_max                       =   7.9251101869563E-30
(PID.TID 0000.0001) %MON ke_mean                      =   1.1328472119094E-30
(PID.TID 0000.0001) %MON ke_vol                       =   2.9241705273104E+14
(PID.TID 0000.0001) %MON vort_r_min                   =  -5.7096094687165E-19
(PID.TID 0000.0001) %MON vort_r_max                   =   6.0802152751963E-19
(PID.TID 0000.0001) %MON vort_a_mean                  =  -1.4007437277915E-04
(PID.TID 0000.0001) %MON vort_a_sd                    =   1.7682771465365E-06
(PID.TID 0000.0001) %MON vort_p_mean                  =  -1.5039772194955E-04
(PID.TID 0000.0001) %MON vort_p_sd                    =   8.7081213929711E-05
(PID.TID 0000.0001) %MON surfExpan_theta_mean         =  -2.0809714103587E-21
(PID.TID 0000.0001) %MON surfExpan_salt_mean          =  -8.2697803842916E-22
(PID.TID 0000.0001) // =======================================================
(PID.TID 0000.0001) // End MONITOR dynamic field statistics
(PID.TID 0000.0001) // =======================================================
 cg2d: Sum(rhs),rhsMax =  -8.27599304619809E-15  7.63317068982967E-05
(PID.TID 0000.0001)                    cg2d_init_res =    3.43797637355217E+01
(PID.TID 0000.0001)                       cg2d_iters =   212
(PID.TID 0000.0001)                         cg2d_res =    8.74567188462851E-14
(PID.TID 0000.0001) // =======================================================
(PID.TID 0000.0001) // Begin MONITOR dynamic field statistics
(PID.TID 0000.0001) // =======================================================
(PID.TID 0000.0001) %MON time_tsnumber                =                     2
(PID.TID 0000.0001) %MON time_secondsf                =   3.6000000000000E+03
(PID.TID 0000.0001) %MON dynstat_eta_max              =   1.7459307486741E-05
(PID.TID 0000.0001) %MON dynstat_eta_min              =  -1.4842699373718E-05
(PID.TID 0000.0001) %MON dynstat_eta_mean             =   0.0000000000000E+00
(PID.TID 0000.0001) %MON dynstat_eta_sd               =   4.3137541181787E-06
(PID.TID 0000.0001) %MON dynstat_eta_del2             =   2.0483189248042E-06
(PID.TID 0000.0001) %MON dynstat_uvel_max             =   4.0827440292710E-06
(PID.TID 0000.0001) %MON dynstat_uvel_min             =  -4.5263917935580E-06
(PID.TID 0000.0001) %MON dynstat_uvel_mean            =   9.9039424024903E-09
(PID.TID 0000.0001) %MON dynstat_uvel_sd              =   5.7588457520673E-07
(PID.TID 0000.0001) %MON dynstat_uvel_del2            =   1.5484684087904E-07
(PID.TID 0000.0001) %MON dynstat_vvel_max             =   2.4755033105122E-05
(PID.TID 0000.0001) %MON dynstat_vvel_min             =  -5.3741855517615E-06
(PID.TID 0000.0001) %MON dynstat_vvel_mean            =  -1.5884821280413E-07
(PID.TID 0000.0001) %MON dynstat_vvel_sd              =   1.5158974454464E-06
(PID.TID 0000.0001) %MON dynstat_vvel_del2            =   8.2046745067781E-08
(PID.TID 0000.0001) %MON dynstat_wvel_max             =   5.6095973885695E-08
(PID.TID 0000.0001) %MON dynstat_wvel_min             =  -4.9918361805722E-08
(PID.TID 0000.0001) %MON dynstat_wvel_mean            =  -1.0364259153533E-10
(PID.TID 0000.0001) %MON dynstat_wvel_sd              =   4.1204774964581E-09
(PID.TID 0000.0001) %MON dynstat_wvel_del2            =   1.4822035714026E-09
(PID.TID 0000.0001) %MON dynstat_theta_max            =  -1.9000000000000E+00
(PID.TID 0000.0001) %MON dynstat_theta_min            =  -1.9059865078836E+00
(PID.TID 0000.0001) %MON dynstat_theta_mean           =  -1.9001107484133E+00
(PID.TID 0000.0001) %MON dynstat_theta_sd             =   5.0280687873533E-04
(PID.TID 0000.0001) %MON dynstat_theta_del2           =   6.7048938261419E-06
(PID.TID 0000.0001) %MON dynstat_salt_max             =   3.4400000000000E+01
(PID.TID 0000.0001) %MON dynstat_salt_min             =   3.4397620961767E+01
(PID.TID 0000.0001) %MON dynstat_salt_mean            =   3.4399955988583E+01
(PID.TID 0000.0001) %MON dynstat_salt_sd              =   1.9981545360971E-04
(PID.TID 0000.0001) %MON dynstat_salt_del2            =   2.6645248065080E-06
(PID.TID 0000.0001) %MON advcfl_uvel_max              =   1.3727907799664E-06
(PID.TID 0000.0001) %MON advcfl_vvel_max              =   4.0079215911055E-06
(PID.TID 0000.0001) %MON advcfl_wvel_max              =   3.3657584331417E-06
(PID.TID 0000.0001) %MON advcfl_W_hf_max              =   1.5139427083270E-05
(PID.TID 0000.0001) %MON pe_b_mean                    =  -1.3038718281821E-09
(PID.TID 0000.0001) %MON ke_max                       =   1.6629702632926E-10
(PID.TID 0000.0001) %MON ke_mean                      =   1.3104169999175E-12
(PID.TID 0000.0001) %MON ke_vol                       =   2.9241705273104E+14
(PID.TID 0000.0001) %MON vort_r_min                   =  -4.1795304213337E-09
(PID.TID 0000.0001) %MON vort_r_max                   =   4.1115184499152E-09
(PID.TID 0000.0001) %MON vort_a_mean                  =  -1.4007437277911E-04
(PID.TID 0000.0001) %MON vort_a_sd                    =   1.7682771653332E-06
(PID.TID 0000.0001) %MON vort_p_mean                  =  -1.5039772194950E-04
(PID.TID 0000.0001) %MON vort_p_sd                    =   8.7081211731174E-05
(PID.TID 0000.0001) %MON surfExpan_theta_mean         =  -6.8577999409040E-13
(PID.TID 0000.0001) %MON surfExpan_salt_mean          =  -2.7252896967282E-13
(PID.TID 0000.0001) // =======================================================
(PID.TID 0000.0001) // End MONITOR dynamic field statistics
(PID.TID 0000.0001) // =======================================================
 cg2d: Sum(rhs),rhsMax =   9.27036225562006E-15  1.23252284247386E-04
(PID.TID 0000.0001)                    cg2d_init_res =    1.32310400238218E+01
(PID.TID 0000.0001)                       cg2d_iters =   211
(PID.TID 0000.0001)                         cg2d_res =    9.05492896437925E-14
(PID.TID 0000.0001) // =======================================================
(PID.TID 0000.0001) // Begin MONITOR dynamic field statistics
(PID.TID 0000.0001) // =======================================================
(PID.TID 0000.0001) %MON time_tsnumber                =                     3
(PID.TID 0000.0001) %MON time_secondsf                =   5.4000000000000E+03
(PID.TID 0000.0001) %MON dynstat_eta_max              =   3.2415611567144E-05
(PID.TID 0000.0001) %MON dynstat_eta_min              =  -2.1402132550836E-05
(PID.TID 0000.0001) %MON dynstat_eta_mean             =   1.3309291605757E-22
(PID.TID 0000.0001) %MON dynstat_eta_sd               =   7.6562322024322E-06
(PID.TID 0000.0001) %MON dynstat_eta_del2             =   3.3200154801427E-06
(PID.TID 0000.0001) %MON dynstat_uvel_max             =   6.5210983596016E-06
(PID.TID 0000.0001) %MON dynstat_uvel_min             =  -1.4646922436231E-05
(PID.TID 0000.0001) %MON dynstat_uvel_mean            =   2.0637577385500E-08
(PID.TID 0000.0001) %MON dynstat_uvel_sd              =   1.2112503072746E-06
(PID.TID 0000.0001) %MON dynstat_uvel_del2            =   2.1989810168614E-07
(PID.TID 0000.0001) %MON dynstat_vvel_max             =   6.0832912783675E-05
(PID.TID 0000.0001) %MON dynstat_vvel_min             =  -1.0694088902494E-05
(PID.TID 0000.0001) %MON dynstat_vvel_mean            =  -3.7824051595087E-07
(PID.TID 0000.0001) %MON dynstat_vvel_sd              =   3.8333747509968E-06
(PID.TID 0000.0001) %MON dynstat_vvel_del2            =   2.0160332124364E-07
(PID.TID 0000.0001) %MON dynstat_wvel_max             =   1.4469698901642E-07
(PID.TID 0000.0001) %MON dynstat_wvel_min             =  -1.3040911914951E-07
(PID.TID 0000.0001) %MON dynstat_wvel_mean            =  -2.3789062182823E-10
(PID.TID 0000.0001) %MON dynstat_wvel_sd              =   1.0097199391960E-08
(PID.TID 0000.0001) %MON dynstat_wvel_del2            =   3.6204101101932E-09
(PID.TID 0000.0001) %MON dynstat_theta_max            =  -1.9000000000000E+00
(PID.TID 0000.0001) %MON dynstat_theta_min            =  -1.9089529373551E+00
(PID.TID 0000.0001) %MON dynstat_theta_mean           =  -1.9001656319047E+00
(PID.TID 0000.0001) %MON dynstat_theta_sd             =   7.5180605166896E-04
(PID.TID 0000.0001) %MON dynstat_theta_del2           =   1.0014859330688E-05
(PID.TID 0000.0001) %MON dynstat_salt_max             =   3.4400000000000E+01
(PID.TID 0000.0001) %MON dynstat_salt_min             =   3.4396442102695E+01
(PID.TID 0000.0001) %MON dynstat_salt_mean            =   3.4399934177884E+01
(PID.TID 0000.0001) %MON dynstat_salt_sd              =   2.9876772493352E-04
(PID.TID 0000.0001) %MON dynstat_salt_del2            =   3.9799050980263E-06
(PID.TID 0000.0001) %MON advcfl_uvel_max              =   4.4422049598000E-06
(PID.TID 0000.0001) %MON advcfl_vvel_max              =   9.8490494260371E-06
(PID.TID 0000.0001) %MON advcfl_wvel_max              =   8.6818193409851E-06
(PID.TID 0000.0001) %MON advcfl_W_hf_max              =   1.9229726219007E-05
(PID.TID 0000.0001) %MON pe_b_mean                    =  -3.8409807995820E-09
(PID.TID 0000.0001) %MON ke_max                       =   1.0452868577218E-09
(PID.TID 0000.0001) %MON ke_mean                      =   8.0504877116433E-12
(PID.TID 0000.0001) %MON ke_vol                       =   2.9241705273104E+14
(PID.TID 0000.0001) %MON vort_r_min                   =  -1.0299579004174E-08
(PID.TID 0000.0001) %MON vort_r_max                   =   1.0080010910405E-08
(PID.TID 0000.0001) %MON vort_a_mean                  =  -1.4007437277810E-04
(PID.TID 0000.0001) %MON vort_a_sd                    =   1.7682771265301E-06
(PID.TID 0000.0001) %MON vort_p_mean                  =  -1.5039772194841E-04
(PID.TID 0000.0001) %MON vort_p_sd                    =   8.7081112735033E-05
(PID.TID 0000.0001) %MON surfExpan_theta_mean         =  -2.1225947748912E-12
(PID.TID 0000.0001) %MON surfExpan_salt_mean          =  -8.4351916350540E-13
(PID.TID 0000.0001) // =======================================================
(PID.TID 0000.0001) // End MONITOR dynamic field statistics
(PID.TID 0000.0001) // =======================================================
 cg2d: Sum(rhs),rhsMax =  -5.83977310952832E-14  1.69855549842954E-04
(PID.TID 0000.0001)                    cg2d_init_res =    9.50062061236704E+00
(PID.TID 0000.0001)                       cg2d_iters =   210
(PID.TID 0000.0001)                         cg2d_res =    9.29333488752334E-14
(PID.TID 0000.0001) // =======================================================
(PID.TID 0000.0001) // Begin MONITOR dynamic field statistics
(PID.TID 0000.0001) // =======================================================
(PID.TID 0000.0001) %MON time_tsnumber                =                     4
(PID.TID 0000.0001) %MON time_secondsf                =   7.2000000000000E+03
(PID.TID 0000.0001) %MON dynstat_eta_max              =   4.8976121138886E-05
(PID.TID 0000.0001) %MON dynstat_eta_min              =  -2.4913265886817E-05
(PID.TID 0000.0001) %MON dynstat_eta_mean             =  -5.3237166423027E-21
(PID.TID 0000.0001) %MON dynstat_eta_sd               =   1.1508240331259E-05
(PID.TID 0000.0001) %MON dynstat_eta_del2             =   4.5770272018091E-06
(PID.TID 0000.0001) %MON dynstat_uvel_max             =   9.0656571132819E-06
(PID.TID 0000.0001) %MON dynstat_uvel_min             =  -3.3228036967123E-05
(PID.TID 0000.0001) %MON dynstat_uvel_mean            =   2.9108355779537E-08
(PID.TID 0000.0001) %MON dynstat_uvel_sd              =   2.5346786823615E-06
(PID.TID 0000.0001) %MON dynstat_uvel_del2            =   2.6815005020232E-07
(PID.TID 0000.0001) %MON dynstat_vvel_max             =   1.0627957187326E-04
(PID.TID 0000.0001) %MON dynstat_vvel_min             =  -1.6510251206446E-05
(PID.TID 0000.0001) %MON dynstat_vvel_mean            =  -6.1866565635076E-07
(PID.TID 0000.0001) %MON dynstat_vvel_sd              =   6.8008553900531E-06
(PID.TID 0000.0001) %MON dynstat_vvel_del2            =   3.5301094628067E-07
(PID.TID 0000.0001) %MON dynstat_wvel_max             =   2.7215872854077E-07
(PID.TID 0000.0001) %MON dynstat_wvel_min             =  -2.6215929994841E-07
(PID.TID 0000.0001) %MON dynstat_wvel_mean            =  -3.4874620331160E-10
(PID.TID 0000.0001) %MON dynstat_wvel_sd              =   1.8095747635972E-08
(PID.TID 0000.0001) %MON dynstat_wvel_del2            =   6.3732024356756E-09
(PID.TID 0000.0001) %MON dynstat_theta_max            =  -1.9000000000000E+00
(PID.TID 0000.0001) %MON dynstat_theta_min            =  -1.9119046003647E+00
(PID.TID 0000.0001) %MON dynstat_theta_mean           =  -1.9002202452705E+00
(PID.TID 0000.0001) %MON dynstat_theta_sd             =   9.9948248907381E-04
(PID.TID 0000.0001) %MON dynstat_theta_del2           =   1.3301516963600E-05
(PID.TID 0000.0001) %MON dynstat_salt_max             =   3.4400000000000E+01
(PID.TID 0000.0001) %MON dynstat_salt_min             =   3.4395269111815E+01
(PID.TID 0000.0001) %MON dynstat_salt_mean            =   3.4399912474532E+01
(PID.TID 0000.0001) %MON dynstat_salt_sd              =   3.9719434115826E-04
(PID.TID 0000.0001) %MON dynstat_salt_del2            =   5.2860228413363E-06
(PID.TID 0000.0001) %MON advcfl_uvel_max              =   1.0077594884687E-05
(PID.TID 0000.0001) %MON advcfl_vvel_max              =   1.7207013579640E-05
(PID.TID 0000.0001) %MON advcfl_wvel_max              =   1.6329523712446E-05
(PID.TID 0000.0001) %MON advcfl_W_hf_max              =   2.9217448048498E-05
(PID.TID 0000.0001) %MON pe_b_mean                    =  -7.3902626285841E-09
(PID.TID 0000.0001) %MON ke_max                       =   3.4775639621851E-09
(PID.TID 0000.0001) %MON ke_mean                      =   2.6190195028820E-11
(PID.TID 0000.0001) %MON ke_vol                       =   2.9241705273104E+14
(PID.TID 0000.0001) %MON vort_r_min                   =  -1.7994121881537E-08
(PID.TID 0000.0001) %MON vort_r_max                   =   1.7581152961246E-08
(PID.TID 0000.0001) %MON vort_a_mean                  =  -1.4007437277289E-04
(PID.TID 0000.0001) %MON vort_a_sd                    =   1.7682770279080E-06
(PID.TID 0000.0001) %MON vort_p_mean                  =  -1.5039772194282E-04
(PID.TID 0000.0001) %MON vort_p_sd                    =   8.7080901664141E-05
(PID.TID 0000.0001) %MON surfExpan_theta_mean         =  -4.0797364382678E-12
(PID.TID 0000.0001) %MON surfExpan_salt_mean          =  -1.6212872605339E-12
(PID.TID 0000.0001) // =======================================================
(PID.TID 0000.0001) // End MONITOR dynamic field statistics
(PID.TID 0000.0001) // =======================================================
 cg2d: Sum(rhs),rhsMax =  -4.55191440096314E-14  2.15996563968181E-04
(PID.TID 0000.0001)                    cg2d_init_res =    7.44084417117679E+00
(PID.TID 0000.0001)                       cg2d_iters =   209
(PID.TID 0000.0001)                         cg2d_res =    8.55840919571278E-14
(PID.TID 0000.0001) // =======================================================
(PID.TID 0000.0001) // Begin MONITOR dynamic field statistics
(PID.TID 0000.0001) // =======================================================
(PID.TID 0000.0001) %MON time_tsnumber                =                     5
(PID.TID 0000.0001) %MON time_secondsf                =   9.0000000000000E+03
(PID.TID 0000.0001) %MON dynstat_eta_max              =   6.6454102866098E-05
(PID.TID 0000.0001) %MON dynstat_eta_min              =  -2.6949314653632E-05
(PID.TID 0000.0001) %MON dynstat_eta_mean             =  -9.5826899561448E-21
(PID.TID 0000.0001) %MON dynstat_eta_sd               =   1.5825371914321E-05
(PID.TID 0000.0001) %MON dynstat_eta_del2             =   5.8285130254796E-06
(PID.TID 0000.0001) %MON dynstat_uvel_max             =   1.2082247143384E-05
(PID.TID 0000.0001) %MON dynstat_uvel_min             =  -6.2391020517545E-05
(PID.TID 0000.0001) %MON dynstat_uvel_mean            =   3.1065227546166E-08
(PID.TID 0000.0001) %MON dynstat_uvel_sd              =   4.7548348620332E-06
(PID.TID 0000.0001) %MON dynstat_uvel_del2            =   3.0702048530559E-07
(PID.TID 0000.0001) %MON dynstat_vvel_max             =   1.5798108237402E-04
(PID.TID 0000.0001) %MON dynstat_vvel_min             =  -2.2417925281794E-05
(PID.TID 0000.0001) %MON dynstat_vvel_mean            =  -8.3883180183035E-07
(PID.TID 0000.0001) %MON dynstat_vvel_sd              =   1.0217530235806E-05
(PID.TID 0000.0001) %MON dynstat_vvel_del2            =   5.2598452563916E-07
(PID.TID 0000.0001) %MON dynstat_wvel_max             =   4.3357794441392E-07
(PID.TID 0000.0001) %MON dynstat_wvel_min             =  -4.4825313938267E-07
(PID.TID 0000.0001) %MON dynstat_wvel_mean            =  -4.2659213288875E-10
(PID.TID 0000.0001) %MON dynstat_wvel_sd              =   2.7717351507235E-08
(PID.TID 0000.0001) %MON dynstat_wvel_del2            =   9.5282498514212E-09
(PID.TID 0000.0001) %MON dynstat_theta_max            =  -1.9000000000000E+00
(PID.TID 0000.0001) %MON dynstat_theta_min            =  -1.9148415730457E+00
(PID.TID 0000.0001) %MON dynstat_theta_mean           =  -1.9002745899054E+00
(PID.TID 0000.0001) %MON dynstat_theta_sd             =   1.2458434415375E-03
(PID.TID 0000.0001) %MON dynstat_theta_del2           =   1.6565024711639E-05
(PID.TID 0000.0001) %MON dynstat_salt_max             =   3.4400000000000E+01
(PID.TID 0000.0001) %MON dynstat_salt_min             =   3.4394101958872E+01
(PID.TID 0000.0001) %MON dynstat_salt_mean            =   3.4399890877974E+01
(PID.TID 0000.0001) %MON dynstat_salt_sd              =   4.9509818366730E-04
(PID.TID 0000.0001) %MON dynstat_salt_del2            =   6.5829408204171E-06
(PID.TID 0000.0001) %MON advcfl_uvel_max              =   1.8922316411292E-05
(PID.TID 0000.0001) %MON advcfl_vvel_max              =   2.5577658827774E-05
(PID.TID 0000.0001) %MON advcfl_wvel_max              =   2.6895188362960E-05
(PID.TID 0000.0001) %MON advcfl_W_hf_max              =   4.1311818004199E-05
(PID.TID 0000.0001) %MON pe_b_mean                    =  -1.1705123921698E-08
(PID.TID 0000.0001) %MON ke_max                       =   8.6399928655306E-09
(PID.TID 0000.0001) %MON ke_mean                      =   6.3006918426769E-11
(PID.TID 0000.0001) %MON ke_vol                       =   2.9241705273104E+14
(PID.TID 0000.0001) %MON vort_r_min                   =  -2.6747669388481E-08
(PID.TID 0000.0001) %MON vort_r_max                   =   2.6099687512503E-08
(PID.TID 0000.0001) %MON vort_a_mean                  =  -1.4007437275785E-04
(PID.TID 0000.0001) %MON vort_a_sd                    =   1.7682768805432E-06
(PID.TID 0000.0001) %MON vort_p_mean                  =  -1.5039772192667E-04
(PID.TID 0000.0001) %MON vort_p_sd                    =   8.7080557375729E-05
(PID.TID 0000.0001) %MON surfExpan_theta_mean         =  -6.1854444550343E-12
(PID.TID 0000.0001) %MON surfExpan_salt_mean          =  -2.4580956264365E-12
(PID.TID 0000.0001) // =======================================================
(PID.TID 0000.0001) // End MONITOR dynamic field statistics
(PID.TID 0000.0001) // =======================================================
 cg2d: Sum(rhs),rhsMax =  -3.55271367880050E-14  2.61886386770564E-04
(PID.TID 0000.0001)                    cg2d_init_res =    6.10378150014400E+00
(PID.TID 0000.0001)                       cg2d_iters =   206
(PID.TID 0000.0001)                         cg2d_res =    9.35732629927363E-14
(PID.TID 0000.0001) // =======================================================
(PID.TID 0000.0001) // Begin MONITOR dynamic field statistics
(PID.TID 0000.0001) // =======================================================
(PID.TID 0000.0001) %MON time_tsnumber                =                     6
(PID.TID 0000.0001) %MON time_secondsf                =   1.0800000000000E+04
(PID.TID 0000.0001) %MON dynstat_eta_max              =   8.5302898258367E-05
(PID.TID 0000.0001) %MON dynstat_eta_min              =  -2.9692058577353E-05
(PID.TID 0000.0001) %MON dynstat_eta_mean             =  -1.4906406598448E-20
(PID.TID 0000.0001) %MON dynstat_eta_sd               =   2.0446036135569E-05
(PID.TID 0000.0001) %MON dynstat_eta_del2             =   7.0724695326270E-06
(PID.TID 0000.0001) %MON dynstat_uvel_max             =   1.5934149193162E-05
(PID.TID 0000.0001) %MON dynstat_uvel_min             =  -1.0752561186370E-04
(PID.TID 0000.0001) %MON dynstat_uvel_mean            =   2.4663562530211E-08
(PID.TID 0000.0001) %MON dynstat_uvel_sd              =   7.9505933309918E-06
(PID.TID 0000.0001) %MON dynstat_uvel_del2            =   3.5250538319517E-07
(PID.TID 0000.0001) %MON dynstat_vvel_max             =   2.1251389017801E-04
(PID.TID 0000.0001) %MON dynstat_vvel_min             =  -3.0179143646263E-05
(PID.TID 0000.0001) %MON dynstat_vvel_mean            =  -1.0028761898168E-06
(PID.TID 0000.0001) %MON dynstat_vvel_sd              =   1.3854919110949E-05
(PID.TID 0000.0001) %MON dynstat_vvel_del2            =   7.0904038697741E-07
(PID.TID 0000.0001) %MON dynstat_wvel_max             =   6.8072183286089E-07
(PID.TID 0000.0001) %MON dynstat_wvel_min             =  -6.8931628990679E-07
(PID.TID 0000.0001) %MON dynstat_wvel_mean            =  -4.6617585434849E-10
(PID.TID 0000.0001) %MON dynstat_wvel_sd              =   3.8640194596088E-08
(PID.TID 0000.0001) %MON dynstat_wvel_del2            =   1.2884409635203E-08
(PID.TID 0000.0001) %MON dynstat_theta_max            =  -1.9000000000000E+00
(PID.TID 0000.0001) %MON dynstat_theta_min            =  -1.9177639338624E+00
(PID.TID 0000.0001) %MON dynstat_theta_mean           =  -1.9003286671963E+00
(PID.TID 0000.0001) %MON dynstat_theta_sd             =   1.4908961191748E-03
(PID.TID 0000.0001) %MON dynstat_theta_del2           =   1.9805543842106E-05
(PID.TID 0000.0001) %MON dynstat_salt_max             =   3.4400000000000E+01
(PID.TID 0000.0001) %MON dynstat_salt_min             =   3.4392940612683E+01
(PID.TID 0000.0001) %MON dynstat_salt_mean            =   3.4399869387658E+01
(PID.TID 0000.0001) %MON dynstat_salt_sd              =   5.9248211776040E-04
(PID.TID 0000.0001) %MON dynstat_salt_del2            =   7.8707231228758E-06
(PID.TID 0000.0001) %MON advcfl_uvel_max              =   3.1993605859708E-05
(PID.TID 0000.0001) %MON advcfl_vvel_max              =   3.4406700457130E-05
(PID.TID 0000.0001) %MON advcfl_wvel_max              =   4.1358977394407E-05
(PID.TID 0000.0001) %MON advcfl_W_hf_max              =   5.5600907288029E-05
(PID.TID 0000.0001) %MON pe_b_mean                    =  -1.6492665495348E-08
(PID.TID 0000.0001) %MON ke_max                       =   1.8126063012688E-08
(PID.TID 0000.0001) %MON ke_mean                      =   1.2630913096586E-10
(PID.TID 0000.0001) %MON ke_vol                       =   2.9241705273104E+14
(PID.TID 0000.0001) %MON vort_r_min                   =  -3.5980581912231E-08
(PID.TID 0000.0001) %MON vort_r_max                   =   3.5317298725933E-08
(PID.TID 0000.0001) %MON vort_a_mean                  =  -1.4007437272762E-04
(PID.TID 0000.0001) %MON vort_a_sd                    =   1.7682767116218E-06
(PID.TID 0000.0001) %MON vort_p_mean                  =  -1.5039772189422E-04
(PID.TID 0000.0001) %MON vort_p_sd                    =   8.7080068026393E-05
(PID.TID 0000.0001) %MON surfExpan_theta_mean         =  -8.0671876713225E-12
(PID.TID 0000.0001) %MON surfExpan_salt_mean          =  -3.2059003806268E-12
(PID.TID 0000.0001) // =======================================================
(PID.TID 0000.0001) // End MONITOR dynamic field statistics
(PID.TID 0000.0001) // =======================================================
 cg2d: Sum(rhs),rhsMax =  -1.95399252334028E-14  3.08160488053842E-04
(PID.TID 0000.0001)                    cg2d_init_res =    5.15861286516161E+00
(PID.TID 0000.0001)                       cg2d_iters =   208
(PID.TID 0000.0001)                         cg2d_res =    8.72138496197978E-14
(PID.TID 0000.0001) // =======================================================
(PID.TID 0000.0001) // Begin MONITOR dynamic field statistics
(PID.TID 0000.0001) // =======================================================
(PID.TID 0000.0001) %MON time_tsnumber                =                     7
(PID.TID 0000.0001) %MON time_secondsf                =   1.2600000000000E+04
(PID.TID 0000.0001) %MON dynstat_eta_max              =   1.0501629838002E-04
(PID.TID 0000.0001) %MON dynstat_eta_min              =  -3.2313958348661E-05
(PID.TID 0000.0001) %MON dynstat_eta_mean             =   9.5826899561448E-21
(PID.TID 0000.0001) %MON dynstat_eta_sd               =   2.5176123658541E-05
(PID.TID 0000.0001) %MON dynstat_eta_del2             =   8.3087086621463E-06
(PID.TID 0000.0001) %MON dynstat_uvel_max             =   2.5069280382261E-05
(PID.TID 0000.0001) %MON dynstat_uvel_min             =  -1.6744329219656E-04
(PID.TID 0000.0001) %MON dynstat_uvel_mean            =   1.0871168261877E-08
(PID.TID 0000.0001) %MON dynstat_uvel_sd              =   1.2136062659804E-05
(PID.TID 0000.0001) %MON dynstat_uvel_del2            =   4.7193271374408E-07
(PID.TID 0000.0001) %MON dynstat_vvel_max             =   2.6633683581192E-04
(PID.TID 0000.0001) %MON dynstat_vvel_min             =  -3.8178500228144E-05
(PID.TID 0000.0001) %MON dynstat_vvel_mean            =  -1.0859197926350E-06
(PID.TID 0000.0001) %MON dynstat_vvel_sd              =   1.7471445298237E-05
(PID.TID 0000.0001) %MON dynstat_vvel_del2            =   8.8984531025401E-07
(PID.TID 0000.0001) %MON dynstat_wvel_max             =   9.8452314967463E-07
(PID.TID 0000.0001) %MON dynstat_wvel_min             =  -9.8255436397821E-07
(PID.TID 0000.0001) %MON dynstat_wvel_mean            =  -4.6896733379285E-10
(PID.TID 0000.0001) %MON dynstat_wvel_sd              =   5.0543733891024E-08
(PID.TID 0000.0001) %MON dynstat_wvel_del2            =   1.6243154950547E-08
(PID.TID 0000.0001) %MON dynstat_theta_max            =  -1.9000000000000E+00
(PID.TID 0000.0001) %MON dynstat_theta_min            =  -1.9206717644681E+00
(PID.TID 0000.0001) %MON dynstat_theta_mean           =  -1.9003824785239E+00
(PID.TID 0000.0001) %MON dynstat_theta_sd             =   1.7346476978193E-03
(PID.TID 0000.0001) %MON dynstat_theta_del2           =   2.3023233964190E-05
(PID.TID 0000.0001) %MON dynstat_salt_max             =   3.4400000000000E+01
(PID.TID 0000.0001) %MON dynstat_salt_min             =   3.4391785040800E+01
(PID.TID 0000.0001) %MON dynstat_salt_mean            =   3.4399848003037E+01
(PID.TID 0000.0001) %MON dynstat_salt_sd              =   6.8934899511382E-04
(PID.TID 0000.0001) %MON dynstat_salt_del2            =   9.1494331774081E-06
(PID.TID 0000.0001) %MON advcfl_uvel_max              =   4.9821755036182E-05
(PID.TID 0000.0001) %MON advcfl_vvel_max              =   4.3120813057464E-05
(PID.TID 0000.0001) %MON advcfl_wvel_max              =   5.9071388980478E-05
(PID.TID 0000.0001) %MON advcfl_W_hf_max              =   7.7970737583644E-05
(PID.TID 0000.0001) %MON pe_b_mean                    =  -2.1426622781370E-08
(PID.TID 0000.0001) %MON ke_max                       =   3.3634058111768E-08
(PID.TID 0000.0001) %MON ke_mean                      =   2.2355305944212E-10
(PID.TID 0000.0001) %MON ke_vol                       =   2.9241705273104E+14
(PID.TID 0000.0001) %MON vort_r_min                   =  -4.5093308155755E-08
(PID.TID 0000.0001) %MON vort_r_max                   =   4.4572023718294E-08
(PID.TID 0000.0001) %MON vort_a_mean                  =  -1.4007437268108E-04
(PID.TID 0000.0001) %MON vort_a_sd                    =   1.7682765434039E-06
(PID.TID 0000.0001) %MON vort_p_mean                  =  -1.5039772184425E-04
(PID.TID 0000.0001) %MON vort_p_sd                    =   8.7079431622033E-05
(PID.TID 0000.0001) %MON surfExpan_theta_mean         =  -9.4335889806672E-12
(PID.TID 0000.0001) %MON surfExpan_salt_mean          =  -3.7489082609824E-12
(PID.TID 0000.0001) // =======================================================
(PID.TID 0000.0001) // End MONITOR dynamic field statistics
(PID.TID 0000.0001) // =======================================================
 cg2d: Sum(rhs),rhsMax =   2.66453525910038E-15  3.54249129715074E-04
(PID.TID 0000.0001)                    cg2d_init_res =    4.46255714868927E+00
(PID.TID 0000.0001)                       cg2d_iters =   206
(PID.TID 0000.0001)                         cg2d_res =    9.84342895415332E-14
(PID.TID 0000.0001) // =======================================================
(PID.TID 0000.0001) // Begin MONITOR dynamic field statistics
(PID.TID 0000.0001) // =======================================================
(PID.TID 0000.0001) %MON time_tsnumber                =                     8
(PID.TID 0000.0001) %MON time_secondsf                =   1.4400000000000E+04
(PID.TID 0000.0001) %MON dynstat_eta_max              =   1.2437687209843E-04
(PID.TID 0000.0001) %MON dynstat_eta_min              =  -3.5416134178134E-05
(PID.TID 0000.0001) %MON dynstat_eta_mean             =  -1.1712176613066E-20
(PID.TID 0000.0001) %MON dynstat_eta_sd               =   2.9812710018111E-05
(PID.TID 0000.0001) %MON dynstat_eta_del2             =   9.5372122656804E-06
(PID.TID 0000.0001) %MON dynstat_uvel_max             =   3.6507651359540E-05
(PID.TID 0000.0001) %MON dynstat_uvel_min             =  -2.4034302116908E-04
(PID.TID 0000.0001) %MON dynstat_uvel_mean            =  -7.1132757660942E-09
(PID.TID 0000.0001) %MON dynstat_uvel_sd              =   1.7264516079687E-05
(PID.TID 0000.0001) %MON dynstat_uvel_del2            =   7.4923408606049E-07
(PID.TID 0000.0001) %MON dynstat_vvel_max             =   3.1606867041810E-04
(PID.TID 0000.0001) %MON dynstat_vvel_min             =  -4.6913947994560E-05
(PID.TID 0000.0001) %MON dynstat_vvel_mean            =  -1.0776668177722E-06
(PID.TID 0000.0001) %MON dynstat_vvel_sd              =   2.0828483750453E-05
(PID.TID 0000.0001) %MON dynstat_vvel_del2            =   1.0576996064161E-06
(PID.TID 0000.0001) %MON dynstat_wvel_max             =   1.3391167213644E-06
(PID.TID 0000.0001) %MON dynstat_wvel_min             =  -1.3218152166476E-06
(PID.TID 0000.0001) %MON dynstat_wvel_mean            =  -4.4045476340415E-10
(PID.TID 0000.0001) %MON dynstat_wvel_sd              =   6.3116099177625E-08
(PID.TID 0000.0001) %MON dynstat_wvel_del2            =   1.9414145147806E-08
(PID.TID 0000.0001) %MON dynstat_theta_max            =  -1.9000000000000E+00
(PID.TID 0000.0001) %MON dynstat_theta_min            =  -1.9235651501584E+00
(PID.TID 0000.0001) %MON dynstat_theta_mean           =  -1.9004360252623E+00
(PID.TID 0000.0001) %MON dynstat_theta_sd             =   1.9771053159754E-03
(PID.TID 0000.0001) %MON dynstat_theta_del2           =   2.6218253625995E-05
(PID.TID 0000.0001) %MON dynstat_salt_max             =   3.4400000000000E+01
(PID.TID 0000.0001) %MON dynstat_salt_min             =   3.4390635209327E+01
(PID.TID 0000.0001) %MON dynstat_salt_mean            =   3.4399826723563E+01
(PID.TID 0000.0001) %MON dynstat_salt_sd              =   7.8570165256900E-04
(PID.TID 0000.0001) %MON dynstat_salt_del2            =   1.0419133991039E-05
(PID.TID 0000.0001) %MON advcfl_uvel_max              =   7.1512635521317E-05
(PID.TID 0000.0001) %MON advcfl_vvel_max              =   5.1172561275171E-05
(PID.TID 0000.0001) %MON advcfl_wvel_max              =   8.0347003281865E-05
(PID.TID 0000.0001) %MON advcfl_W_hf_max              =   1.0322695653086E-04
(PID.TID 0000.0001) %MON pe_b_mean                    =  -2.6184807008619E-08
(PID.TID 0000.0001) %MON ke_max                       =   5.6717910168761E-08
(PID.TID 0000.0001) %MON ke_mean                      =   3.6092670646934E-10
(PID.TID 0000.0001) %MON ke_vol                       =   2.9241705273104E+14
(PID.TID 0000.0001) %MON vort_r_min                   =  -5.3508105440510E-08
(PID.TID 0000.0001) %MON vort_r_max                   =   5.3150636893086E-08
(PID.TID 0000.0001) %MON vort_a_mean                  =  -1.4007437262356E-04
(PID.TID 0000.0001) %MON vort_a_sd                    =   1.7682763810895E-06
(PID.TID 0000.0001) %MON vort_p_mean                  =  -1.5039772178248E-04
(PID.TID 0000.0001) %MON vort_p_sd                    =   8.7078655820803E-05
(PID.TID 0000.0001) %MON surfExpan_theta_mean         =  -1.0104333206379E-11
(PID.TID 0000.0001) %MON surfExpan_salt_mean          =  -4.0154620162295E-12
(PID.TID 0000.0001) // =======================================================
(PID.TID 0000.0001) // End MONITOR dynamic field statistics
(PID.TID 0000.0001) // =======================================================
 cg2d: Sum(rhs),rhsMax =  -2.88657986402541E-14  4.00175855451288E-04
(PID.TID 0000.0001)                    cg2d_init_res =    3.92837031361839E+00
(PID.TID 0000.0001)                       cg2d_iters =   206
(PID.TID 0000.0001)                         cg2d_res =    8.35027438234733E-14
(PID.TID 0000.0001) // =======================================================
(PID.TID 0000.0001) // Begin MONITOR dynamic field statistics
(PID.TID 0000.0001) // =======================================================
(PID.TID 0000.0001) %MON time_tsnumber                =                     9
(PID.TID 0000.0001) %MON time_secondsf                =   1.6200000000000E+04
(PID.TID 0000.0001) %MON dynstat_eta_max              =   1.4270466842737E-04
(PID.TID 0000.0001) %MON dynstat_eta_min              =  -4.0511897896589E-05
(PID.TID 0000.0001) %MON dynstat_eta_mean             =  -1.7035893255369E-20
(PID.TID 0000.0001) %MON dynstat_eta_sd               =   3.4166662498115E-05
(PID.TID 0000.0001) %MON dynstat_eta_del2             =   1.0757992392616E-05
(PID.TID 0000.0001) %MON dynstat_uvel_max             =   4.9762903508055E-05
(PID.TID 0000.0001) %MON dynstat_uvel_min             =  -3.2456022624722E-04
(PID.TID 0000.0001) %MON dynstat_uvel_mean            =  -2.4859721619175E-08
(PID.TID 0000.0001) %MON dynstat_uvel_sd              =   2.3230126168080E-05
(PID.TID 0000.0001) %MON dynstat_uvel_del2            =   1.0701703606963E-06
(PID.TID 0000.0001) %MON dynstat_vvel_max             =   3.5913372620548E-04
(PID.TID 0000.0001) %MON dynstat_vvel_min             =  -5.5792002776594E-05
(PID.TID 0000.0001) %MON dynstat_vvel_mean            =  -9.8308825833402E-07
(PID.TID 0000.0001) %MON dynstat_vvel_sd              =   2.3706347539312E-05
(PID.TID 0000.0001) %MON dynstat_vvel_del2            =   1.2022349253349E-06
(PID.TID 0000.0001) %MON dynstat_wvel_max             =   1.7353240354791E-06
(PID.TID 0000.0001) %MON dynstat_wvel_min             =  -1.6980798588796E-06
(PID.TID 0000.0001) %MON dynstat_wvel_mean            =  -3.8802418147446E-10
(PID.TID 0000.0001) %MON dynstat_wvel_sd              =   7.6061956754217E-08
(PID.TID 0000.0001) %MON dynstat_wvel_del2            =   2.2248026816446E-08
(PID.TID 0000.0001) %MON dynstat_theta_max            =  -1.9000000000000E+00
(PID.TID 0000.0001) %MON dynstat_theta_min            =  -1.9264441799881E+00
(PID.TID 0000.0001) %MON dynstat_theta_mean           =  -1.9004893087788E+00
(PID.TID 0000.0001) %MON dynstat_theta_sd             =   2.2182760725588E-03
(PID.TID 0000.0001) %MON dynstat_theta_del2           =   2.9390761370766E-05
(PID.TID 0000.0001) %MON dynstat_salt_max             =   3.4400000000000E+01
(PID.TID 0000.0001) %MON dynstat_salt_min             =   3.4389491082873E+01
(PID.TID 0000.0001) %MON dynstat_salt_mean            =   3.4399805548694E+01
(PID.TID 0000.0001) %MON dynstat_salt_sd              =   8.8154291123519E-04
(PID.TID 0000.0001) %MON dynstat_salt_del2            =   1.1679888568849E-05
(PID.TID 0000.0001) %MON advcfl_uvel_max              =   9.6570963664492E-05
(PID.TID 0000.0001) %MON advcfl_vvel_max              =   5.8144935991028E-05
(PID.TID 0000.0001) %MON advcfl_wvel_max              =   1.0411944212874E-04
(PID.TID 0000.0001) %MON advcfl_W_hf_max              =   1.3058737194275E-04
(PID.TID 0000.0001) %MON pe_b_mean                    =  -3.0489724658378E-08
(PID.TID 0000.0001) %MON ke_max                       =   8.8659151171635E-08
(PID.TID 0000.0001) %MON ke_mean                      =   5.4248240122584E-10
(PID.TID 0000.0001) %MON ke_vol                       =   2.9241705273104E+14
(PID.TID 0000.0001) %MON vort_r_min                   =  -6.0708661860344E-08
(PID.TID 0000.0001) %MON vort_r_max                   =   6.0515390764988E-08
(PID.TID 0000.0001) %MON vort_a_mean                  =  -1.4007437256572E-04
(PID.TID 0000.0001) %MON vort_a_sd                    =   1.7682762106897E-06
(PID.TID 0000.0001) %MON vort_p_mean                  =  -1.5039772172038E-04
(PID.TID 0000.0001) %MON vort_p_sd                    =   8.7077757245873E-05
(PID.TID 0000.0001) %MON surfExpan_theta_mean         =  -1.0010480478518E-11
(PID.TID 0000.0001) %MON surfExpan_salt_mean          =  -3.9781649421843E-12
(PID.TID 0000.0001) // =======================================================
(PID.TID 0000.0001) // End MONITOR dynamic field statistics
(PID.TID 0000.0001) // =======================================================
 cg2d: Sum(rhs),rhsMax =  -1.77635683940025E-15  4.45953855900383E-04
(PID.TID 0000.0001)                    cg2d_init_res =    3.50540072042502E+00
(PID.TID 0000.0001)                       cg2d_iters =   205
(PID.TID 0000.0001)                         cg2d_res =    9.60254575209488E-14
(PID.TID 0000.0001) // =======================================================
(PID.TID 0000.0001) // Begin MONITOR dynamic field statistics
(PID.TID 0000.0001) // =======================================================
(PID.TID 0000.0001) %MON time_tsnumber                =                    10
(PID.TID 0000.0001) %MON time_secondsf                =   1.8000000000000E+04
(PID.TID 0000.0001) %MON dynstat_eta_max              =   1.5951664732212E-04
(PID.TID 0000.0001) %MON dynstat_eta_min              =  -4.6734806788630E-05
(PID.TID 0000.0001) %MON dynstat_eta_mean             =  -2.7683326539974E-20
(PID.TID 0000.0001) %MON dynstat_eta_sd               =   3.8090229504662E-05
(PID.TID 0000.0001) %MON dynstat_eta_del2             =   1.1971112397537E-05
(PID.TID 0000.0001) %MON dynstat_uvel_max             =   6.4448196445582E-05
(PID.TID 0000.0001) %MON dynstat_uvel_min             =  -4.1771220801174E-04
(PID.TID 0000.0001) %MON dynstat_uvel_mean            =  -3.7889385178800E-08
(PID.TID 0000.0001) %MON dynstat_uvel_sd              =   2.9874089270952E-05
(PID.TID 0000.0001) %MON dynstat_uvel_del2            =   1.4184087120350E-06
(PID.TID 0000.0001) %MON dynstat_vvel_max             =   3.9284976292437E-04
(PID.TID 0000.0001) %MON dynstat_vvel_min             =  -6.3600852439918E-05
(PID.TID 0000.0001) %MON dynstat_vvel_mean            =  -8.2028452505657E-07
(PID.TID 0000.0001) %MON dynstat_vvel_sd              =   2.5918824217206E-05
(PID.TID 0000.0001) %MON dynstat_vvel_del2            =   1.3150635362425E-06
(PID.TID 0000.0001) %MON dynstat_wvel_max             =   2.1613881469137E-06
(PID.TID 0000.0001) %MON dynstat_wvel_min             =  -2.1001334606744E-06
(PID.TID 0000.0001) %MON dynstat_wvel_mean            =  -3.1983764436119E-10
(PID.TID 0000.0001) %MON dynstat_wvel_sd              =   8.9108075675099E-08
(PID.TID 0000.0001) %MON dynstat_wvel_del2            =   2.4607392945829E-08
(PID.TID 0000.0001) %MON dynstat_theta_max            =  -1.9000000000000E+00
(PID.TID 0000.0001) %MON dynstat_theta_min            =  -1.9293089464605E+00
(PID.TID 0000.0001) %MON dynstat_theta_mean           =  -1.9005423304336E+00
(PID.TID 0000.0001) %MON dynstat_theta_sd             =   2.4581670254043E-03
(PID.TID 0000.0001) %MON dynstat_theta_del2           =   3.2540912096211E-05
(PID.TID 0000.0001) %MON dynstat_salt_max             =   3.4400000000000E+01
(PID.TID 0000.0001) %MON dynstat_salt_min             =   3.4388352624677E+01
(PID.TID 0000.0001) %MON dynstat_salt_mean            =   3.4399784477888E+01
(PID.TID 0000.0001) %MON dynstat_salt_sd              =   9.7687557589608E-04
(PID.TID 0000.0001) %MON dynstat_salt_del2            =   1.2931758467146E-05
(PID.TID 0000.0001) %MON advcfl_uvel_max              =   1.2428778143441E-04
(PID.TID 0000.0001) %MON advcfl_vvel_max              =   6.3603673652914E-05
(PID.TID 0000.0001) %MON advcfl_wvel_max              =   1.2968328881482E-04
(PID.TID 0000.0001) %MON advcfl_W_hf_max              =   1.5914282394723E-04
(PID.TID 0000.0001) %MON pe_b_mean                    =  -3.4139093824712E-08
(PID.TID 0000.0001) %MON ke_max                       =   1.3017095428960E-07
(PID.TID 0000.0001) %MON ke_mean                      =   7.6940055949603E-10
(PID.TID 0000.0001) %MON ke_vol                       =   2.9241705273104E+14
(PID.TID 0000.0001) %MON vort_r_min                   =  -6.6273390607648E-08
(PID.TID 0000.0001) %MON vort_r_max                   =   6.6226141180520E-08
(PID.TID 0000.0001) %MON vort_a_mean                  =  -1.4007437251998E-04
(PID.TID 0000.0001) %MON vort_a_sd                    =   1.7682760108099E-06
(PID.TID 0000.0001) %MON vort_p_mean                  =  -1.5039772167127E-04
(PID.TID 0000.0001) %MON vort_p_sd                    =   8.7076760331512E-05
(PID.TID 0000.0001) %MON surfExpan_theta_mean         =  -9.1873128946558E-12
(PID.TID 0000.0001) %MON surfExpan_salt_mean          =  -3.6510381442495E-12
(PID.TID 0000.0001) // =======================================================
(PID.TID 0000.0001) // End MONITOR dynamic field statistics
(PID.TID 0000.0001) // =======================================================
 cg2d: Sum(rhs),rhsMax =  -2.22044604925031E-14  4.91587839690440E-04
(PID.TID 0000.0001)                    cg2d_init_res =    3.16220871765310E+00
(PID.TID 0000.0001)                       cg2d_iters =   203
(PID.TID 0000.0001)                         cg2d_res =    9.80633118498879E-14
(PID.TID 0000.0001) // =======================================================
(PID.TID 0000.0001) // Begin MONITOR dynamic field statistics
(PID.TID 0000.0001) // =======================================================
(PID.TID 0000.0001) %MON time_tsnumber                =                    11
(PID.TID 0000.0001) %MON time_secondsf                =   1.9800000000000E+04
(PID.TID 0000.0001) %MON dynstat_eta_max              =   1.7455279042388E-04
(PID.TID 0000.0001) %MON dynstat_eta_min              =  -5.3961863994026E-05
(PID.TID 0000.0001) %MON dynstat_eta_mean             =   1.7035893255369E-20
(PID.TID 0000.0001) %MON dynstat_eta_sd               =   4.1502694982272E-05
(PID.TID 0000.0001) %MON dynstat_eta_del2             =   1.3176748265237E-05
(PID.TID 0000.0001) %MON dynstat_uvel_max             =   8.0084614933859E-05
(PID.TID 0000.0001) %MON dynstat_uvel_min             =  -5.1685969941475E-04
(PID.TID 0000.0001) %MON dynstat_uvel_mean            =  -4.2767242024884E-08
(PID.TID 0000.0001) %MON dynstat_uvel_sd              =   3.6994775538199E-05
(PID.TID 0000.0001) %MON dynstat_uvel_del2            =   1.7784742509475E-06
(PID.TID 0000.0001) %MON dynstat_vvel_max             =   4.1488970747937E-04
(PID.TID 0000.0001) %MON dynstat_vvel_min             =  -6.9896080337285E-05
(PID.TID 0000.0001) %MON dynstat_vvel_mean            =  -6.1640755094161E-07
(PID.TID 0000.0001) %MON dynstat_vvel_sd              =   2.7325260764959E-05
(PID.TID 0000.0001) %MON dynstat_vvel_del2            =   1.3909797543706E-06
(PID.TID 0000.0001) %MON dynstat_wvel_max             =   2.6038907348115E-06
(PID.TID 0000.0001) %MON dynstat_wvel_min             =  -2.5153583762277E-06
(PID.TID 0000.0001) %MON dynstat_wvel_mean            =  -2.4439314833321E-10
(PID.TID 0000.0001) %MON dynstat_wvel_sd              =   1.0200634420083E-07
(PID.TID 0000.0001) %MON dynstat_wvel_del2            =   2.6414852787518E-08
(PID.TID 0000.0001) %MON dynstat_theta_max            =  -1.9000000000000E+00
(PID.TID 0000.0001) %MON dynstat_theta_min            =  -1.9321595448009E+00
(PID.TID 0000.0001) %MON dynstat_theta_mean           =  -1.9005950915792E+00
(PID.TID 0000.0001) %MON dynstat_theta_sd             =   2.6967851901131E-03
(PID.TID 0000.0001) %MON dynstat_theta_del2           =   3.5668859314142E-05
(PID.TID 0000.0001) %MON dynstat_salt_max             =   3.4400000000000E+01
(PID.TID 0000.0001) %MON dynstat_salt_min             =   3.4387219796896E+01
(PID.TID 0000.0001) %MON dynstat_salt_mean            =   3.4399763510609E+01
(PID.TID 0000.0001) %MON dynstat_salt_sd              =   1.0717024345514E-03
(PID.TID 0000.0001) %MON dynstat_salt_del2            =   1.4174804691537E-05
(PID.TID 0000.0001) %MON advcfl_uvel_max              =   1.5378852741433E-04
(PID.TID 0000.0001) %MON advcfl_vvel_max              =   6.7172013443600E-05
(PID.TID 0000.0001) %MON advcfl_wvel_max              =   1.5623344408869E-04
(PID.TID 0000.0001) %MON advcfl_W_hf_max              =   1.8793094539539E-04
(PID.TID 0000.0001) %MON pe_b_mean                    =  -3.7023811615376E-08
(PID.TID 0000.0001) %MON ke_max                       =   1.8118634728242E-07
(PID.TID 0000.0001) %MON ke_mean                      =   1.0394754438636E-09
(PID.TID 0000.0001) %MON ke_vol                       =   2.9241705273104E+14
(PID.TID 0000.0001) %MON vort_r_min                   =  -6.9900769038446E-08
(PID.TID 0000.0001) %MON vort_r_max                   =   6.9966275710684E-08
(PID.TID 0000.0001) %MON vort_a_mean                  =  -1.4007437249643E-04
(PID.TID 0000.0001) %MON vort_a_sd                    =   1.7682757676830E-06
(PID.TID 0000.0001) %MON vort_p_mean                  =  -1.5039772164599E-04
(PID.TID 0000.0001) %MON vort_p_sd                    =   8.7075695728941E-05
(PID.TID 0000.0001) %MON surfExpan_theta_mean         =  -7.7699035148624E-12
(PID.TID 0000.0001) %MON surfExpan_salt_mean          =  -3.0877596567893E-12
(PID.TID 0000.0001) // =======================================================
(PID.TID 0000.0001) // End MONITOR dynamic field statistics
(PID.TID 0000.0001) // =======================================================
 cg2d: Sum(rhs),rhsMax =  -3.37507799486048E-14  5.37078788754052E-04
(PID.TID 0000.0001)                    cg2d_init_res =    2.87821780791597E+00
(PID.TID 0000.0001)                       cg2d_iters =   202
(PID.TID 0000.0001)                         cg2d_res =    8.86761766457206E-14
(PID.TID 0000.0001) // =======================================================
(PID.TID 0000.0001) // Begin MONITOR dynamic field statistics
(PID.TID 0000.0001) // =======================================================
(PID.TID 0000.0001) %MON time_tsnumber                =                    12
(PID.TID 0000.0001) %MON time_secondsf                =   2.1600000000000E+04
(PID.TID 0000.0001) %MON dynstat_eta_max              =   1.8776286101263E-04
(PID.TID 0000.0001) %MON dynstat_eta_min              =  -6.2061874877549E-05
(PID.TID 0000.0001) %MON dynstat_eta_mean             =   4.2589733138421E-21
(PID.TID 0000.0001) %MON dynstat_eta_sd               =   4.4403745157370E-05
(PID.TID 0000.0001) %MON dynstat_eta_del2             =   1.4374944576716E-05
(PID.TID 0000.0001) %MON dynstat_uvel_max             =   9.6176037671747E-05
(PID.TID 0000.0001) %MON dynstat_uvel_min             =  -6.1870438896751E-04
(PID.TID 0000.0001) %MON dynstat_uvel_mean            =  -3.7822645740421E-08
(PID.TID 0000.0001) %MON dynstat_uvel_sd              =   4.4360939617845E-05
(PID.TID 0000.0001) %MON dynstat_uvel_del2            =   2.1346677582907E-06
(PID.TID 0000.0001) %MON dynstat_vvel_max             =   4.2424309544837E-04
(PID.TID 0000.0001) %MON dynstat_vvel_min             =  -7.4334984913623E-05
(PID.TID 0000.0001) %MON dynstat_vvel_mean            =  -4.0271198210765E-07
(PID.TID 0000.0001) %MON dynstat_vvel_sd              =   2.7839502325986E-05
(PID.TID 0000.0001) %MON dynstat_vvel_del2            =   1.4262651484799E-06
(PID.TID 0000.0001) %MON dynstat_wvel_max             =   3.0487309125711E-06
(PID.TID 0000.0001) %MON dynstat_wvel_min             =  -2.9305917112017E-06
(PID.TID 0000.0001) %MON dynstat_wvel_mean            =  -1.7028438486463E-10
(PID.TID 0000.0001) %MON dynstat_wvel_sd              =   1.1453439824618E-07
(PID.TID 0000.0001) %MON dynstat_wvel_del2            =   2.7610145389332E-08
(PID.TID 0000.0001) %MON dynstat_theta_max            =  -1.9000000000000E+00
(PID.TID 0000.0001) %MON dynstat_theta_min            =  -1.9349960718919E+00
(PID.TID 0000.0001) %MON dynstat_theta_mean           =  -1.9006475935609E+00
(PID.TID 0000.0001) %MON dynstat_theta_sd             =   2.9341375388977E-03
(PID.TID 0000.0001) %MON dynstat_theta_del2           =   3.8774753231686E-05
(PID.TID 0000.0001) %MON dynstat_salt_max             =   3.4400000000000E+01
(PID.TID 0000.0001) %MON dynstat_salt_min             =   3.4386092561030E+01
(PID.TID 0000.0001) %MON dynstat_salt_mean            =   3.4399742646321E+01
(PID.TID 0000.0001) %MON dynstat_salt_sd              =   1.1660262579584E-03
(PID.TID 0000.0001) %MON dynstat_salt_del2            =   1.5409086934370E-05
(PID.TID 0000.0001) %MON advcfl_uvel_max              =   1.8409180865105E-04
(PID.TID 0000.0001) %MON advcfl_vvel_max              =   6.8686357836990E-05
(PID.TID 0000.0001) %MON advcfl_wvel_max              =   1.8292385475426E-04
(PID.TID 0000.0001) %MON advcfl_W_hf_max              =   2.1600880330998E-04
(PID.TID 0000.0001) %MON pe_b_mean                    =  -3.9134800329277E-08
(PID.TID 0000.0001) %MON ke_max                       =   2.4072787476683E-07
(PID.TID 0000.0001) %MON ke_mean                      =   1.3469095899378E-09
(PID.TID 0000.0001) %MON ke_vol                       =   2.9241705273104E+14
(PID.TID 0000.0001) %MON vort_r_min                   =  -7.1425753822587E-08
(PID.TID 0000.0001) %MON vort_r_max                   =   7.1559708571233E-08
(PID.TID 0000.0001) %MON vort_a_mean                  =  -1.4007437250010E-04
(PID.TID 0000.0001) %MON vort_a_sd                    =   1.7682754800365E-06
(PID.TID 0000.0001) %MON vort_p_mean                  =  -1.5039772164993E-04
(PID.TID 0000.0001) %MON vort_p_sd                    =   8.7074598327140E-05
(PID.TID 0000.0001) %MON surfExpan_theta_mean         =  -5.9885031591984E-12
(PID.TID 0000.0001) %MON surfExpan_salt_mean          =  -2.3798311553882E-12
(PID.TID 0000.0001) // =======================================================
(PID.TID 0000.0001) // End MONITOR dynamic field statistics
(PID.TID 0000.0001) // =======================================================
 cg2d: Sum(rhs),rhsMax =   3.15303338993544E-14  5.82427193862519E-04
(PID.TID 0000.0001)                    cg2d_init_res =    2.63937871174666E+00
(PID.TID 0000.0001)                       cg2d_iters =   203
(PID.TID 0000.0001)                         cg2d_res =    7.39559564209410E-14
(PID.TID 0000.0001) // =======================================================
(PID.TID 0000.0001) // Begin MONITOR dynamic field statistics
(PID.TID 0000.0001) // =======================================================
(PID.TID 0000.0001) %MON time_tsnumber                =                    13
(PID.TID 0000.0001) %MON time_secondsf                =   2.3400000000000E+04
(PID.TID 0000.0001) %MON dynstat_eta_max              =   1.9927629749926E-04
(PID.TID 0000.0001) %MON dynstat_eta_min              =  -7.0875645247482E-05
(PID.TID 0000.0001) %MON dynstat_eta_mean             =  -1.0647433284605E-20
(PID.TID 0000.0001) %MON dynstat_eta_sd               =   4.6869829746972E-05
(PID.TID 0000.0001) %MON dynstat_eta_del2             =   1.5565808660174E-05
(PID.TID 0000.0001) %MON dynstat_uvel_max             =   1.1222331059585E-04
(PID.TID 0000.0001) %MON dynstat_uvel_min             =  -7.1980683198621E-04
(PID.TID 0000.0001) %MON dynstat_uvel_mean            =  -2.3349097774000E-08
(PID.TID 0000.0001) %MON dynstat_uvel_sd              =   5.1726932521503E-05
(PID.TID 0000.0001) %MON dynstat_uvel_del2            =   2.4726981312660E-06
(PID.TID 0000.0001) %MON dynstat_vvel_max             =   4.2273307692283E-04
(PID.TID 0000.0001) %MON dynstat_vvel_min             =  -7.6694586698706E-05
(PID.TID 0000.0001) %MON dynstat_vvel_mean            =  -2.0966234435774E-07
(PID.TID 0000.0001) %MON dynstat_vvel_sd              =   2.7435202457582E-05
(PID.TID 0000.0001) %MON dynstat_vvel_del2            =   1.4198739983920E-06
(PID.TID 0000.0001) %MON dynstat_wvel_max             =   3.4820850856301E-06
(PID.TID 0000.0001) %MON dynstat_wvel_min             =  -3.3329867727055E-06
(PID.TID 0000.0001) %MON dynstat_wvel_mean            =  -1.0580729595161E-10
(PID.TID 0000.0001) %MON dynstat_wvel_sd              =   1.2649437181657E-07
(PID.TID 0000.0001) %MON dynstat_wvel_del2            =   2.8129225151301E-08
(PID.TID 0000.0001) %MON dynstat_theta_max            =  -1.9000000000000E+00
(PID.TID 0000.0001) %MON dynstat_theta_min            =  -1.9378186249720E+00
(PID.TID 0000.0001) %MON dynstat_theta_mean           =  -1.9006998377157E+00
(PID.TID 0000.0001) %MON dynstat_theta_sd             =   3.1702309994044E-03
(PID.TID 0000.0001) %MON dynstat_theta_del2           =   4.1858742623816E-05
(PID.TID 0000.0001) %MON dynstat_salt_max             =   3.4400000000000E+01
(PID.TID 0000.0001) %MON dynstat_salt_min             =   3.4384970878436E+01
(PID.TID 0000.0001) %MON dynstat_salt_mean            =   3.4399721884494E+01
(PID.TID 0000.0001) %MON dynstat_salt_sd              =   1.2598497991638E-03
(PID.TID 0000.0001) %MON dynstat_salt_del2            =   1.6634664318829E-05
(PID.TID 0000.0001) %MON advcfl_uvel_max              =   2.1417423884911E-04
(PID.TID 0000.0001) %MON advcfl_vvel_max              =   6.8441880852218E-05
(PID.TID 0000.0001) %MON advcfl_wvel_max              =   2.0892510513781E-04
(PID.TID 0000.0001) %MON advcfl_W_hf_max              =   2.4251768071098E-04
(PID.TID 0000.0001) %MON pe_b_mean                    =  -4.0559654248567E-08
(PID.TID 0000.0001) %MON ke_max                       =   3.0689960280510E-07
(PID.TID 0000.0001) %MON ke_mean                      =   1.6824774046011E-09
(PID.TID 0000.0001) %MON ke_vol                       =   2.9241705273104E+14
(PID.TID 0000.0001) %MON vort_r_min                   =  -7.0826761325986E-08
(PID.TID 0000.0001) %MON vort_r_max                   =   7.0978114387855E-08
(PID.TID 0000.0001) %MON vort_a_mean                  =  -1.4007437253014E-04
(PID.TID 0000.0001) %MON vort_a_sd                    =   1.7682751634300E-06
(PID.TID 0000.0001) %MON vort_p_mean                  =  -1.5039772168218E-04
(PID.TID 0000.0001) %MON vort_p_sd                    =   8.7073504995860E-05
(PID.TID 0000.0001) %MON surfExpan_theta_mean         =  -4.1547270383326E-12
(PID.TID 0000.0001) %MON surfExpan_salt_mean          =  -1.6510885250388E-12
(PID.TID 0000.0001) // =======================================================
(PID.TID 0000.0001) // End MONITOR dynamic field statistics
(PID.TID 0000.0001) // =======================================================
 cg2d: Sum(rhs),rhsMax =   2.26485497023532E-14  6.27632429468859E-04
(PID.TID 0000.0001)                    cg2d_init_res =    2.43577161438836E+00
(PID.TID 0000.0001)                       cg2d_iters =   202
(PID.TID 0000.0001)                         cg2d_res =    8.65357481671920E-14
(PID.TID 0000.0001) // =======================================================
(PID.TID 0000.0001) // Begin MONITOR dynamic field statistics
(PID.TID 0000.0001) // =======================================================
(PID.TID 0000.0001) %MON time_tsnumber                =                    14
(PID.TID 0000.0001) %MON time_secondsf                =   2.5200000000000E+04
(PID.TID 0000.0001) %MON dynstat_eta_max              =   2.0937021390743E-04
(PID.TID 0000.0001) %MON dynstat_eta_min              =  -8.0097789297032E-05
(PID.TID 0000.0001) %MON dynstat_eta_mean             =  -5.5366653079948E-20
(PID.TID 0000.0001) %MON dynstat_eta_sd               =   4.9035296955698E-05
(PID.TID 0000.0001) %MON dynstat_eta_del2             =   1.6749434792129E-05
(PID.TID 0000.0001) %MON dynstat_uvel_max             =   1.2758059451663E-04
(PID.TID 0000.0001) %MON dynstat_uvel_min             =  -8.1682036466712E-04
(PID.TID 0000.0001) %MON dynstat_uvel_mean            =  -1.3238586668519E-09
(PID.TID 0000.0001) %MON dynstat_uvel_sd              =   5.8848811124635E-05
(PID.TID 0000.0001) %MON dynstat_uvel_del2            =   2.7803930783802E-06
(PID.TID 0000.0001) %MON dynstat_vvel_max             =   4.1183491010991E-04
(PID.TID 0000.0001) %MON dynstat_vvel_min             =  -7.6902863147928E-05
(PID.TID 0000.0001) %MON dynstat_vvel_mean            =  -6.2783071913096E-08
(PID.TID 0000.0001) %MON dynstat_vvel_sd              =   2.6147240506417E-05
(PID.TID 0000.0001) %MON dynstat_vvel_del2            =   1.3737078973524E-06
(PID.TID 0000.0001) %MON dynstat_wvel_max             =   3.8912949658447E-06
(PID.TID 0000.0001) %MON dynstat_wvel_min             =  -3.7108244222694E-06
(PID.TID 0000.0001) %MON dynstat_wvel_mean            =  -5.8302805128551E-11
(PID.TID 0000.0001) %MON dynstat_wvel_sd              =   1.3771084445248E-07
(PID.TID 0000.0001) %MON dynstat_wvel_del2            =   2.7991430605862E-08
(PID.TID 0000.0001) %MON dynstat_theta_max            =  -1.9000000000000E+00
(PID.TID 0000.0001) %MON dynstat_theta_min            =  -1.9406273002026E+00
(PID.TID 0000.0001) %MON dynstat_theta_mean           =  -1.9007518253730E+00
(PID.TID 0000.0001) %MON dynstat_theta_sd             =   3.4050724537658E-03
(PID.TID 0000.0001) %MON dynstat_theta_del2           =   4.4920974237661E-05
(PID.TID 0000.0001) %MON dynstat_salt_max             =   3.4400000000000E+01
(PID.TID 0000.0001) %MON dynstat_salt_min             =   3.4383854710899E+01
(PID.TID 0000.0001) %MON dynstat_salt_mean            =   3.4399701224599E+01
(PID.TID 0000.0001) %MON dynstat_salt_sd              =   1.3531757931270E-03
(PID.TID 0000.0001) %MON dynstat_salt_del2            =   1.7851595162225E-05
(PID.TID 0000.0001) %MON advcfl_uvel_max              =   2.4304003811176E-04
(PID.TID 0000.0001) %MON advcfl_vvel_max              =   6.6677431663745E-05
(PID.TID 0000.0001) %MON advcfl_wvel_max              =   2.3347769795068E-04
(PID.TID 0000.0001) %MON advcfl_W_hf_max              =   2.6673704294229E-04
(PID.TID 0000.0001) %MON pe_b_mean                    =  -4.1469268688168E-08
(PID.TID 0000.0001) %MON ke_max                       =   3.7702047184474E-07
(PID.TID 0000.0001) %MON ke_mean                      =   2.0340747710603E-09
(PID.TID 0000.0001) %MON ke_vol                       =   2.9241705273104E+14
(PID.TID 0000.0001) %MON vort_r_min                   =  -6.8223163498386E-08
(PID.TID 0000.0001) %MON vort_r_max                   =   6.8338275113256E-08
(PID.TID 0000.0001) %MON vort_a_mean                  =  -1.4007437258070E-04
(PID.TID 0000.0001) %MON vort_a_sd                    =   1.7682748441636E-06
(PID.TID 0000.0001) %MON vort_p_mean                  =  -1.5039772173647E-04
(PID.TID 0000.0001) %MON vort_p_sd                    =   8.7072452202393E-05
(PID.TID 0000.0001) %MON surfExpan_theta_mean         =  -2.6313042348048E-12
(PID.TID 0000.0001) %MON surfExpan_salt_mean          =  -1.0456803029606E-12
(PID.TID 0000.0001) // =======================================================
(PID.TID 0000.0001) // End MONITOR dynamic field statistics
(PID.TID 0000.0001) // =======================================================
 cg2d: Sum(rhs),rhsMax =   1.77635683940025E-15  6.72688857515526E-04
(PID.TID 0000.0001)                    cg2d_init_res =    2.26020339711979E+00
(PID.TID 0000.0001)                       cg2d_iters =   202
(PID.TID 0000.0001)                         cg2d_res =    9.03050774667915E-14
(PID.TID 0000.0001) // =======================================================
(PID.TID 0000.0001) // Begin MONITOR dynamic field statistics
(PID.TID 0000.0001) // =======================================================
(PID.TID 0000.0001) %MON time_tsnumber                =                    15
(PID.TID 0000.0001) %MON time_secondsf                =   2.7000000000000E+04
(PID.TID 0000.0001) %MON dynstat_eta_max              =   2.1843864618095E-04
(PID.TID 0000.0001) %MON dynstat_eta_min              =  -8.9261347348136E-05
(PID.TID 0000.0001) %MON dynstat_eta_mean             =  -2.1294866569211E-20
(PID.TID 0000.0001) %MON dynstat_eta_sd               =   5.1064393133042E-05
(PID.TID 0000.0001) %MON dynstat_eta_del2             =   1.7925971522844E-05
(PID.TID 0000.0001) %MON dynstat_uvel_max             =   1.4174282211744E-04
(PID.TID 0000.0001) %MON dynstat_uvel_min             =  -9.0671300871408E-04
(PID.TID 0000.0001) %MON dynstat_uvel_mean            =   2.5174049386190E-08
(PID.TID 0000.0001) %MON dynstat_uvel_sd              =   6.5500235049584E-05
(PID.TID 0000.0001) %MON dynstat_uvel_del2            =   3.0491094247289E-06
(PID.TID 0000.0001) %MON dynstat_vvel_max             =   3.9024881413044E-04
(PID.TID 0000.0001) %MON dynstat_vvel_min             =  -7.5614464674418E-05
(PID.TID 0000.0001) %MON dynstat_vvel_mean            =   2.0308684364430E-08
(PID.TID 0000.0001) %MON dynstat_vvel_sd              =   2.4069248060424E-05
(PID.TID 0000.0001) %MON dynstat_vvel_del2            =   1.2930867994589E-06
(PID.TID 0000.0001) %MON dynstat_wvel_max             =   4.2656414678411E-06
(PID.TID 0000.0001) %MON dynstat_wvel_min             =  -4.0542289617381E-06
(PID.TID 0000.0001) %MON dynstat_wvel_mean            =  -3.3333485019228E-11
(PID.TID 0000.0001) %MON dynstat_wvel_sd              =   1.4802947075851E-07
(PID.TID 0000.0001) %MON dynstat_wvel_del2            =   2.7259181451915E-08
(PID.TID 0000.0001) %MON dynstat_theta_max            =  -1.9000000000000E+00
(PID.TID 0000.0001) %MON dynstat_theta_min            =  -1.9434221912186E+00
(PID.TID 0000.0001) %MON dynstat_theta_mean           =  -1.9008035578538E+00
(PID.TID 0000.0001) %MON dynstat_theta_sd             =   3.6386687382778E-03
(PID.TID 0000.0001) %MON dynstat_theta_del2           =   4.7961593016789E-05
(PID.TID 0000.0001) %MON dynstat_salt_max             =   3.4400000000000E+01
(PID.TID 0000.0001) %MON dynstat_salt_min             =   3.4382744021210E+01
(PID.TID 0000.0001) %MON dynstat_salt_mean            =   3.4399680666111E+01
(PID.TID 0000.0001) %MON dynstat_salt_sd              =   1.4460069565919E-03
(PID.TID 0000.0001) %MON dynstat_salt_del2            =   1.9059937064963E-05
(PID.TID 0000.0001) %MON advcfl_uvel_max              =   2.6978705934212E-04
(PID.TID 0000.0001) %MON advcfl_vvel_max              =   6.3182571455867E-05
(PID.TID 0000.0001) %MON advcfl_wvel_max              =   2.5593848807046E-04
(PID.TID 0000.0001) %MON advcfl_W_hf_max              =   2.8812609929895E-04
(PID.TID 0000.0001) %MON pe_b_mean                    =  -4.2095204007056E-08
(PID.TID 0000.0001) %MON ke_max                       =   4.4787584834841E-07
(PID.TID 0000.0001) %MON ke_mean                      =   2.3876214233926E-09
(PID.TID 0000.0001) %MON ke_vol                       =   2.9241705273104E+14
(PID.TID 0000.0001) %MON vort_r_min                   =  -6.3863745905691E-08
(PID.TID 0000.0001) %MON vort_r_max                   =   6.3890054156903E-08
(PID.TID 0000.0001) %MON vort_a_mean                  =  -1.4007437264275E-04
(PID.TID 0000.0001) %MON vort_a_sd                    =   1.7682745532658E-06
(PID.TID 0000.0001) %MON vort_p_mean                  =  -1.5039772180309E-04
(PID.TID 0000.0001) %MON vort_p_sd                    =   8.7071473672178E-05
(PID.TID 0000.0001) %MON surfExpan_theta_mean         =  -1.7845358811255E-12
(PID.TID 0000.0001) %MON surfExpan_salt_mean          =  -7.0917455918227E-13
(PID.TID 0000.0001) // =======================================================
(PID.TID 0000.0001) // End MONITOR dynamic field statistics
(PID.TID 0000.0001) // =======================================================
 cg2d: Sum(rhs),rhsMax =  -4.88498130835069E-15  7.17580889542574E-04
(PID.TID 0000.0001)                    cg2d_init_res =    2.10734275312244E+00
(PID.TID 0000.0001)                       cg2d_iters =   202
(PID.TID 0000.0001)                         cg2d_res =    8.56742107526038E-14
(PID.TID 0000.0001) // =======================================================
(PID.TID 0000.0001) // Begin MONITOR dynamic field statistics
(PID.TID 0000.0001) // =======================================================
(PID.TID 0000.0001) %MON time_tsnumber                =                    16
(PID.TID 0000.0001) %MON time_secondsf                =   2.8800000000000E+04
(PID.TID 0000.0001) %MON dynstat_eta_max              =   2.2695843335022E-04
(PID.TID 0000.0001) %MON dynstat_eta_min              =  -9.7961839391209E-05
(PID.TID 0000.0001) %MON dynstat_eta_mean             =   2.1294866569211E-21
(PID.TID 0000.0001) %MON dynstat_eta_sd               =   5.3122256561610E-05
(PID.TID 0000.0001) %MON dynstat_eta_del2             =   1.9095529202984E-05
(PID.TID 0000.0001) %MON dynstat_uvel_max             =   1.5428603238984E-04
(PID.TID 0000.0001) %MON dynstat_uvel_min             =  -9.8696334750922E-04
(PID.TID 0000.0001) %MON dynstat_uvel_mean            =   5.2631929249739E-08
(PID.TID 0000.0001) %MON dynstat_uvel_sd              =   7.1487084604441E-05
(PID.TID 0000.0001) %MON dynstat_uvel_del2            =   3.2716179025357E-06
(PID.TID 0000.0001) %MON dynstat_vvel_max             =   3.5986419410366E-04
(PID.TID 0000.0001) %MON dynstat_vvel_min             =  -7.2545410601983E-05
(PID.TID 0000.0001) %MON dynstat_vvel_mean            =   3.1480560633477E-08
(PID.TID 0000.0001) %MON dynstat_vvel_sd              =   2.1347561441884E-05
(PID.TID 0000.0001) %MON dynstat_vvel_del2            =   1.1856557714934E-06
(PID.TID 0000.0001) %MON dynstat_wvel_max             =   4.5969669476778E-06
(PID.TID 0000.0001) %MON dynstat_wvel_min             =  -4.3557499359353E-06
(PID.TID 0000.0001) %MON dynstat_wvel_mean            =  -3.3905138935712E-11
(PID.TID 0000.0001) %MON dynstat_wvel_sd              =   1.5731772234415E-07
(PID.TID 0000.0001) %MON dynstat_wvel_del2            =   2.6030820732281E-08
(PID.TID 0000.0001) %MON dynstat_theta_max            =  -1.9000000000000E+00
(PID.TID 0000.0001) %MON dynstat_theta_min            =  -1.9462033877872E+00
(PID.TID 0000.0001) %MON dynstat_theta_mean           =  -1.9008550364713E+00
(PID.TID 0000.0001) %MON dynstat_theta_sd             =   3.8710266440457E-03
(PID.TID 0000.0001) %MON dynstat_theta_del2           =   5.0983159118004E-05
(PID.TID 0000.0001) %MON dynstat_salt_max             =   3.4400000000000E+01
(PID.TID 0000.0001) %MON dynstat_salt_min             =   3.4381638773693E+01
(PID.TID 0000.0001) %MON dynstat_salt_mean            =   3.4399660208508E+01
(PID.TID 0000.0001) %MON dynstat_salt_sd              =   1.5383459883443E-03
(PID.TID 0000.0001) %MON dynstat_salt_del2            =   2.0260707433591E-05
(PID.TID 0000.0001) %MON advcfl_uvel_max              =   2.9366507003202E-04
(PID.TID 0000.0001) %MON advcfl_vvel_max              =   5.8263201155462E-05
(PID.TID 0000.0001) %MON advcfl_wvel_max              =   2.7581801686067E-04
(PID.TID 0000.0001) %MON advcfl_W_hf_max              =   3.0635174829876E-04
(PID.TID 0000.0001) %MON pe_b_mean                    =  -4.2699985296538E-08
(PID.TID 0000.0001) %MON ke_max                       =   5.1606401992159E-07
(PID.TID 0000.0001) %MON ke_mean                      =   2.7282369597578E-09
(PID.TID 0000.0001) %MON ke_vol                       =   2.9241705273104E+14
(PID.TID 0000.0001) %MON vort_r_min                   =  -5.8107085366405E-08
(PID.TID 0000.0001) %MON vort_r_max                   =   5.7996051631600E-08
(PID.TID 0000.0001) %MON vort_a_mean                  =  -1.4007437270598E-04
(PID.TID 0000.0001) %MON vort_a_sd                    =   1.7682743198593E-06
(PID.TID 0000.0001) %MON vort_p_mean                  =  -1.5039772187098E-04
(PID.TID 0000.0001) %MON vort_p_sd                    =   8.7070598254595E-05
(PID.TID 0000.0001) %MON surfExpan_theta_mean         =  -1.9258093395244E-12
(PID.TID 0000.0001) %MON surfExpan_salt_mean          =  -7.6531663152801E-13
(PID.TID 0000.0001) // =======================================================
(PID.TID 0000.0001) // End MONITOR dynamic field statistics
(PID.TID 0000.0001) // =======================================================
 cg2d: Sum(rhs),rhsMax =  -3.15303338993544E-14  7.62279359083341E-04
(PID.TID 0000.0001)                    cg2d_init_res =    1.97316095436343E+00
(PID.TID 0000.0001)                       cg2d_iters =   201
(PID.TID 0000.0001)                         cg2d_res =    9.15639549820415E-14
(PID.TID 0000.0001) // =======================================================
(PID.TID 0000.0001) // Begin MONITOR dynamic field statistics
(PID.TID 0000.0001) // =======================================================
(PID.TID 0000.0001) %MON time_tsnumber                =                    17
(PID.TID 0000.0001) %MON time_secondsf                =   3.0600000000000E+04
(PID.TID 0000.0001) %MON dynstat_eta_max              =   2.3544663277120E-04
(PID.TID 0000.0001) %MON dynstat_eta_min              =  -1.0580204036116E-04
(PID.TID 0000.0001) %MON dynstat_eta_mean             =  -2.9812813196895E-20
(PID.TID 0000.0001) %MON dynstat_eta_sd               =   5.5352428237441E-05
(PID.TID 0000.0001) %MON dynstat_eta_del2             =   2.0259873058637E-05
(PID.TID 0000.0001) %MON dynstat_uvel_max             =   1.6489382469609E-04
(PID.TID 0000.0001) %MON dynstat_uvel_min             =  -1.0557177514794E-03
(PID.TID 0000.0001) %MON dynstat_uvel_mean            =   7.7690197374634E-08
(PID.TID 0000.0001) %MON dynstat_uvel_sd              =   7.6659836926623E-05
(PID.TID 0000.0001) %MON dynstat_uvel_del2            =   3.4443110467545E-06
(PID.TID 0000.0001) %MON dynstat_vvel_max             =   3.2311575276430E-04
(PID.TID 0000.0001) %MON dynstat_vvel_min             =  -6.7969250531564E-05
(PID.TID 0000.0001) %MON dynstat_vvel_mean            =  -2.7726812005505E-08
(PID.TID 0000.0001) %MON dynstat_vvel_sd              =   1.8172292616443E-05
(PID.TID 0000.0001) %MON dynstat_vvel_del2            =   1.0605802333158E-06
(PID.TID 0000.0001) %MON dynstat_wvel_max             =   4.8801144457473E-06
(PID.TID 0000.0001) %MON dynstat_wvel_min             =  -4.6107775182984E-06
(PID.TID 0000.0001) %MON dynstat_wvel_mean            =  -5.9958982911484E-11
(PID.TID 0000.0001) %MON dynstat_wvel_sd              =   1.6546866100689E-07
(PID.TID 0000.0001) %MON dynstat_wvel_del2            =   2.4434845409940E-08
(PID.TID 0000.0001) %MON dynstat_theta_max            =  -1.9000000000000E+00
(PID.TID 0000.0001) %MON dynstat_theta_min            =  -1.9489709747037E+00
(PID.TID 0000.0001) %MON dynstat_theta_mean           =  -1.9009062625311E+00
(PID.TID 0000.0001) %MON dynstat_theta_sd             =   4.1021529187647E-03
(PID.TID 0000.0001) %MON dynstat_theta_del2           =   5.3987368818949E-05
(PID.TID 0000.0001) %MON dynstat_salt_max             =   3.4400000000000E+01
(PID.TID 0000.0001) %MON dynstat_salt_min             =   3.4380538934653E+01
(PID.TID 0000.0001) %MON dynstat_salt_mean            =   3.4399639851273E+01
(PID.TID 0000.0001) %MON dynstat_salt_sd              =   1.6301955699177E-03
(PID.TID 0000.0001) %MON dynstat_salt_del2            =   2.1454580368747E-05
(PID.TID 0000.0001) %MON advcfl_uvel_max              =   3.1412253373407E-04
(PID.TID 0000.0001) %MON advcfl_vvel_max              =   5.2313507173715E-05
(PID.TID 0000.0001) %MON advcfl_wvel_max              =   2.9280686674484E-04
(PID.TID 0000.0001) %MON advcfl_W_hf_max              =   3.2130204187467E-04
(PID.TID 0000.0001) %MON pe_b_mean                    =  -4.3543969265167E-08
(PID.TID 0000.0001) %MON ke_max                       =   5.7838277372677E-07
(PID.TID 0000.0001) %MON ke_mean                      =   3.0415771181657E-09
(PID.TID 0000.0001) %MON ke_vol                       =   2.9241705273104E+14
(PID.TID 0000.0001) %MON vort_r_min                   =  -5.1395279636038E-08
(PID.TID 0000.0001) %MON vort_r_max                   =   5.1498873008756E-08
(PID.TID 0000.0001) %MON vort_a_mean                  =  -1.4007437276058E-04
(PID.TID 0000.0001) %MON vort_a_sd                    =   1.7682741684376E-06
(PID.TID 0000.0001) %MON vort_p_mean                  =  -1.5039772192960E-04
(PID.TID 0000.0001) %MON vort_p_sd                    =   8.7069848130643E-05
(PID.TID 0000.0001) %MON surfExpan_theta_mean         =  -3.2537423402989E-12
(PID.TID 0000.0001) %MON surfExpan_salt_mean          =  -1.2930372060048E-12
(PID.TID 0000.0001) // =======================================================
(PID.TID 0000.0001) // End MONITOR dynamic field statistics
(PID.TID 0000.0001) // =======================================================
 cg2d: Sum(rhs),rhsMax =  -2.97539770599542E-14  8.06740737667743E-04
(PID.TID 0000.0001)                    cg2d_init_res =    1.85455637099827E+00
(PID.TID 0000.0001)                       cg2d_iters =   201
(PID.TID 0000.0001)                         cg2d_res =    7.66295874424817E-14
(PID.TID 0000.0001) // =======================================================
(PID.TID 0000.0001) // Begin MONITOR dynamic field statistics
(PID.TID 0000.0001) // =======================================================
(PID.TID 0000.0001) %MON time_tsnumber                =                    18
(PID.TID 0000.0001) %MON time_secondsf                =   3.2400000000000E+04
(PID.TID 0000.0001) %MON dynstat_eta_max              =   2.4440918240901E-04
(PID.TID 0000.0001) %MON dynstat_eta_min              =  -1.1246870042573E-04
(PID.TID 0000.0001) %MON dynstat_eta_mean             =  -4.2589733138421E-20
(PID.TID 0000.0001) %MON dynstat_eta_sd               =   5.7864777552831E-05
(PID.TID 0000.0001) %MON dynstat_eta_del2             =   2.1418134196346E-05
(PID.TID 0000.0001) %MON dynstat_uvel_max             =   1.7337682072656E-04
(PID.TID 0000.0001) %MON dynstat_uvel_min             =  -1.1118992664972E-03
(PID.TID 0000.0001) %MON dynstat_uvel_mean            =   9.7564764750718E-08
(PID.TID 0000.0001) %MON dynstat_uvel_sd              =   8.0922899073236E-05
(PID.TID 0000.0001) %MON dynstat_uvel_del2            =   3.5667159349843E-06
(PID.TID 0000.0001) %MON dynstat_vvel_max             =   2.8281142649919E-04
(PID.TID 0000.0001) %MON dynstat_vvel_min             =  -6.2239884267247E-05
(PID.TID 0000.0001) %MON dynstat_vvel_mean            =  -1.4713360903290E-07
(PID.TID 0000.0001) %MON dynstat_vvel_sd              =   1.4766731238124E-05
(PID.TID 0000.0001) %MON dynstat_vvel_del2            =   9.2695668185742E-07
(PID.TID 0000.0001) %MON dynstat_wvel_max             =   5.1131623008502E-06
(PID.TID 0000.0001) %MON dynstat_wvel_min             =  -4.8754618412486E-06
(PID.TID 0000.0001) %MON dynstat_wvel_mean            =  -1.0829702078971E-10
(PID.TID 0000.0001) %MON dynstat_wvel_sd              =   1.7240791572913E-07
(PID.TID 0000.0001) %MON dynstat_wvel_del2            =   2.2620740107811E-08
(PID.TID 0000.0001) %MON dynstat_theta_max            =  -1.9000000000000E+00
(PID.TID 0000.0001) %MON dynstat_theta_min            =  -1.9517250310322E+00
(PID.TID 0000.0001) %MON dynstat_theta_mean           =  -1.9009572373315E+00
(PID.TID 0000.0001) %MON dynstat_theta_sd             =   4.3320542695254E-03
(PID.TID 0000.0001) %MON dynstat_theta_del2           =   5.6971064918562E-05
(PID.TID 0000.0001) %MON dynstat_salt_max             =   3.4400000000000E+01
(PID.TID 0000.0001) %MON dynstat_salt_min             =   3.4379444472668E+01
(PID.TID 0000.0001) %MON dynstat_salt_mean            =   3.4399619593887E+01
(PID.TID 0000.0001) %MON dynstat_salt_sd              =   1.7215583667097E-03
(PID.TID 0000.0001) %MON dynstat_salt_del2            =   2.2640301198737E-05
(PID.TID 0000.0001) %MON advcfl_uvel_max              =   3.3083900915722E-04
(PID.TID 0000.0001) %MON advcfl_vvel_max              =   4.5788103682356E-05
(PID.TID 0000.0001) %MON advcfl_wvel_max              =   3.0678973805101E-04
(PID.TID 0000.0001) %MON advcfl_W_hf_max              =   3.3308490457764E-04
(PID.TID 0000.0001) %MON pe_b_mean                    =  -4.4853215602159E-08
(PID.TID 0000.0001) %MON ke_max                       =   6.3219232759061E-07
(PID.TID 0000.0001) %MON ke_mean                      =   3.3151982526251E-09
(PID.TID 0000.0001) %MON ke_vol                       =   2.9241705273104E+14
(PID.TID 0000.0001) %MON vort_r_min                   =  -4.4222856517212E-08
(PID.TID 0000.0001) %MON vort_r_max                   =   5.3441858011959E-08
(PID.TID 0000.0001) %MON vort_a_mean                  =  -1.4007437279850E-04
(PID.TID 0000.0001) %MON vort_a_sd                    =   1.7682741142292E-06
(PID.TID 0000.0001) %MON vort_p_mean                  =  -1.5039772197032E-04
(PID.TID 0000.0001) %MON vort_p_sd                    =   8.7069237467864E-05
(PID.TID 0000.0001) %MON surfExpan_theta_mean         =  -5.8101517609970E-12
(PID.TID 0000.0001) %MON surfExpan_salt_mean          =  -2.3089543098576E-12
(PID.TID 0000.0001) // =======================================================
(PID.TID 0000.0001) // End MONITOR dynamic field statistics
(PID.TID 0000.0001) // =======================================================
 cg2d: Sum(rhs),rhsMax =   1.73194791841524E-14  8.50909658342328E-04
(PID.TID 0000.0001)                    cg2d_init_res =    1.74909536802563E+00
(PID.TID 0000.0001)                       cg2d_iters =   200
(PID.TID 0000.0001)                         cg2d_res =    9.25782941863311E-14
(PID.TID 0000.0001) // =======================================================
(PID.TID 0000.0001) // Begin MONITOR dynamic field statistics
(PID.TID 0000.0001) // =======================================================
(PID.TID 0000.0001) %MON time_tsnumber                =                    19
(PID.TID 0000.0001) %MON time_secondsf                =   3.4200000000000E+04
(PID.TID 0000.0001) %MON dynstat_eta_max              =   2.5428635323476E-04
(PID.TID 0000.0001) %MON dynstat_eta_min              =  -1.1790049554697E-04
(PID.TID 0000.0001) %MON dynstat_eta_mean             =  -4.2589733138421E-21
(PID.TID 0000.0001) %MON dynstat_eta_sd               =   6.0732496747775E-05
(PID.TID 0000.0001) %MON dynstat_eta_del2             =   2.2571735008002E-05
(PID.TID 0000.0001) %MON dynstat_uvel_max             =   1.7968382011771E-04
(PID.TID 0000.0001) %MON dynstat_uvel_min             =  -1.1552650827254E-03
(PID.TID 0000.0001) %MON dynstat_uvel_mean            =   1.1029579909011E-07
(PID.TID 0000.0001) %MON dynstat_uvel_sd              =   8.4240306931141E-05
(PID.TID 0000.0001) %MON dynstat_uvel_del2            =   3.6411442240043E-06
(PID.TID 0000.0001) %MON dynstat_vvel_max             =   2.4193853968992E-04
(PID.TID 0000.0001) %MON dynstat_vvel_min             =  -5.5766763256736E-05
(PID.TID 0000.0001) %MON dynstat_vvel_mean            =  -3.0989324407244E-07
(PID.TID 0000.0001) %MON dynstat_vvel_sd              =   1.1377212056078E-05
(PID.TID 0000.0001) %MON dynstat_vvel_del2            =   7.9402115909857E-07
(PID.TID 0000.0001) %MON dynstat_wvel_max             =   5.2974448413850E-06
(PID.TID 0000.0001) %MON dynstat_wvel_min             =  -5.1189782640428E-06
(PID.TID 0000.0001) %MON dynstat_wvel_mean            =  -1.7299367725173E-10
(PID.TID 0000.0001) %MON dynstat_wvel_sd              =   1.7810329989338E-07
(PID.TID 0000.0001) %MON dynstat_wvel_del2            =   2.0747501698101E-08
(PID.TID 0000.0001) %MON dynstat_theta_max            =  -1.9000000000000E+00
(PID.TID 0000.0001) %MON dynstat_theta_min            =  -1.9544656297670E+00
(PID.TID 0000.0001) %MON dynstat_theta_mean           =  -1.9010079621643E+00
(PID.TID 0000.0001) %MON dynstat_theta_sd             =   4.5607373662564E-03
(PID.TID 0000.0001) %MON dynstat_theta_del2           =   5.9934367437738E-05
(PID.TID 0000.0001) %MON dynstat_salt_max             =   3.4400000000000E+01
(PID.TID 0000.0001) %MON dynstat_salt_min             =   3.4378355358731E+01
(PID.TID 0000.0001) %MON dynstat_salt_mean            =   3.4399599435838E+01
(PID.TID 0000.0001) %MON dynstat_salt_sd              =   1.8124370293506E-03
(PID.TID 0000.0001) %MON dynstat_salt_del2            =   2.3817917619866E-05
(PID.TID 0000.0001) %MON advcfl_uvel_max              =   3.4374224967958E-04
(PID.TID 0000.0001) %MON advcfl_vvel_max              =   3.9170648361733E-05
(PID.TID 0000.0001) %MON advcfl_wvel_max              =   3.1784669048310E-04
(PID.TID 0000.0001) %MON advcfl_W_hf_max              =   3.4201263880275E-04
(PID.TID 0000.0001) %MON pe_b_mean                    =  -4.6792743468579E-08
(PID.TID 0000.0001) %MON ke_max                       =   6.7570971153131E-07
(PID.TID 0000.0001) %MON ke_mean                      =   3.5398154898863E-09
(PID.TID 0000.0001) %MON ke_vol                       =   2.9241705273104E+14
(PID.TID 0000.0001) %MON vort_r_min                   =  -3.7102971722204E-08
(PID.TID 0000.0001) %MON vort_r_max                   =   5.6306770170574E-08
(PID.TID 0000.0001) %MON vort_a_mean                  =  -1.4007437281418E-04
(PID.TID 0000.0001) %MON vort_a_sd                    =   1.7682741657085E-06
(PID.TID 0000.0001) %MON vort_p_mean                  =  -1.5039772198716E-04
(PID.TID 0000.0001) %MON vort_p_sd                    =   8.7068771596282E-05
(PID.TID 0000.0001) %MON surfExpan_theta_mean         =  -9.4606465941194E-12
(PID.TID 0000.0001) %MON surfExpan_salt_mean          =  -3.7596609565458E-12
(PID.TID 0000.0001) // =======================================================
(PID.TID 0000.0001) // End MONITOR dynamic field statistics
(PID.TID 0000.0001) // =======================================================
 cg2d: Sum(rhs),rhsMax =   3.15303338993544E-14  8.94724270101982E-04
(PID.TID 0000.0001)                    cg2d_init_res =    1.65483091876446E+00
(PID.TID 0000.0001)                       cg2d_iters =   201
(PID.TID 0000.0001)                         cg2d_res =    7.14521990624162E-14
(PID.TID 0000.0001) // =======================================================
(PID.TID 0000.0001) // Begin MONITOR dynamic field statistics
(PID.TID 0000.0001) // =======================================================
(PID.TID 0000.0001) %MON time_tsnumber                =                    20
(PID.TID 0000.0001) %MON time_secondsf                =   3.6000000000000E+04
(PID.TID 0000.0001) %MON dynstat_eta_max              =   2.6540391961160E-04
(PID.TID 0000.0001) %MON dynstat_eta_min              =  -1.2245928133961E-04
(PID.TID 0000.0001) %MON dynstat_eta_mean             =   4.2589733138421E-21
(PID.TID 0000.0001) %MON dynstat_eta_sd               =   6.3993156612218E-05
(PID.TID 0000.0001) %MON dynstat_eta_del2             =   2.3719349992836E-05
(PID.TID 0000.0001) %MON dynstat_uvel_max             =   1.8390392319563E-04
(PID.TID 0000.0001) %MON dynstat_uvel_min             =  -1.1864019312188E-03
(PID.TID 0000.0001) %MON dynstat_uvel_mean            =   1.1485373952707E-07
(PID.TID 0000.0001) %MON dynstat_uvel_sd              =   8.6637444073516E-05
(PID.TID 0000.0001) %MON dynstat_uvel_del2            =   3.6733475121634E-06
(PID.TID 0000.0001) %MON dynstat_vvel_max             =   2.0346144173997E-04
(PID.TID 0000.0001) %MON dynstat_vvel_min             =  -4.8988673717586E-05
(PID.TID 0000.0001) %MON dynstat_vvel_mean            =  -4.9505648308894E-07
(PID.TID 0000.0001) %MON dynstat_vvel_sd              =   8.2673818270289E-06
(PID.TID 0000.0001) %MON dynstat_vvel_del2            =   6.7081177069037E-07
(PID.TID 0000.0001) %MON dynstat_wvel_max             =   5.4697558050292E-06
(PID.TID 0000.0001) %MON dynstat_wvel_min             =  -5.3162283756611E-06
(PID.TID 0000.0001) %MON dynstat_wvel_mean            =  -2.4622810695111E-10
(PID.TID 0000.0001) %MON dynstat_wvel_sd              =   1.8257591753922E-07
(PID.TID 0000.0001) %MON dynstat_wvel_del2            =   1.8961963685879E-08
(PID.TID 0000.0001) %MON dynstat_theta_max            =  -1.9000000000000E+00
(PID.TID 0000.0001) %MON dynstat_theta_min            =  -1.9571928379488E+00
(PID.TID 0000.0001) %MON dynstat_theta_mean           =  -1.9010584383150E+00
(PID.TID 0000.0001) %MON dynstat_theta_sd             =   4.7882088452494E-03
(PID.TID 0000.0001) %MON dynstat_theta_del2           =   6.2877405532345E-05
(PID.TID 0000.0001) %MON dynstat_salt_max             =   3.4400000000000E+01
(PID.TID 0000.0001) %MON dynstat_salt_min             =   3.4377271566199E+01
(PID.TID 0000.0001) %MON dynstat_salt_mean            =   3.4399579376616E+01
(PID.TID 0000.0001) %MON dynstat_salt_sd              =   1.9028341951024E-03
(PID.TID 0000.0001) %MON dynstat_salt_del2            =   2.4987480958669E-05
(PID.TID 0000.0001) %MON advcfl_uvel_max              =   3.5300683363446E-04
(PID.TID 0000.0001) %MON advcfl_vvel_max              =   3.2941079167387E-05
(PID.TID 0000.0001) %MON advcfl_wvel_max              =   3.2818534830175E-04
(PID.TID 0000.0001) %MON advcfl_W_hf_max              =   3.4857360463855E-04
(PID.TID 0000.0001) %MON pe_b_mean                    =  -4.9448667697219E-08
(PID.TID 0000.0001) %MON ke_max                       =   7.0819847090478E-07
(PID.TID 0000.0001) %MON ke_mean                      =   3.7103320626459E-09
(PID.TID 0000.0001) %MON ke_vol                       =   2.9241705273104E+14
(PID.TID 0000.0001) %MON vort_r_min                   =  -3.5883537585793E-08
(PID.TID 0000.0001) %MON vort_r_max                   =   5.8678430030829E-08
(PID.TID 0000.0001) %MON vort_a_mean                  =  -1.4007437280494E-04
(PID.TID 0000.0001) %MON vort_a_sd                    =   1.7682743223610E-06
(PID.TID 0000.0001) %MON vort_p_mean                  =  -1.5039772197723E-04
(PID.TID 0000.0001) %MON vort_p_sd                    =   8.7068446746662E-05
(PID.TID 0000.0001) %MON surfExpan_theta_mean         =  -1.3905107838705E-11
(PID.TID 0000.0001) %MON surfExpan_salt_mean          =  -5.5258898551271E-12
(PID.TID 0000.0001) // =======================================================
(PID.TID 0000.0001) // End MONITOR dynamic field statistics
(PID.TID 0000.0001) // =======================================================
(PID.TID 0000.0001) %CHECKPOINT        20 ckptA
(PID.TID 0000.0001)   Seconds in section "ALL                    [THE_MODEL_MAIN]":
(PID.TID 0000.0001)           User time:  47.389796
(PID.TID 0000.0001)         System time:  0.611906979
(PID.TID 0000.0001)     Wall clock time:  48.2542939
(PID.TID 0000.0001)          No. starts: 1
(PID.TID 0000.0001)           No. stops: 1
(PID.TID 0000.0001)   Seconds in section "INITIALISE_FIXED       [THE_MODEL_MAIN]":
(PID.TID 0000.0001)           User time:  1.87171494
(PID.TID 0000.0001)         System time:  0.153976995
(PID.TID 0000.0001)     Wall clock time:  2.02872396
(PID.TID 0000.0001)          No. starts: 1
(PID.TID 0000.0001)           No. stops: 1
(PID.TID 0000.0001)   Seconds in section "THE_MAIN_LOOP          [THE_MODEL_MAIN]":
(PID.TID 0000.0001)           User time:  44.7521967
(PID.TID 0000.0001)         System time:  0.154975995
(PID.TID 0000.0001)     Wall clock time:  45.1565781
(PID.TID 0000.0001)          No. starts: 1
(PID.TID 0000.0001)           No. stops: 1
(PID.TID 0000.0001)   Seconds in section "INITIALISE_VARIA    [THE_MAIN_LOOP]":
(PID.TID 0000.0001)           User time:  0.41793716
(PID.TID 0000.0001)         System time:  0.0559910089
(PID.TID 0000.0001)     Wall clock time:  0.473804951
(PID.TID 0000.0001)          No. starts: 1
(PID.TID 0000.0001)           No. stops: 1
(PID.TID 0000.0001)   Seconds in section "MAIN LOOP           [THE_MAIN_LOOP]":
(PID.TID 0000.0001)           User time:  43.8073397
(PID.TID 0000.0001)         System time:  0.054990977
(PID.TID 0000.0001)     Wall clock time:  44.1116779
(PID.TID 0000.0001)          No. starts: 1
(PID.TID 0000.0001)           No. stops: 1
(PID.TID 0000.0001)   Seconds in section "FORWARD_STEP        [THE_MAIN_LOOP]":
(PID.TID 0000.0001)           User time:  43.8073397
(PID.TID 0000.0001)         System time:  0.054990977
(PID.TID 0000.0001)     Wall clock time:  44.1109715
(PID.TID 0000.0001)          No. starts: 20
(PID.TID 0000.0001)           No. stops: 20
(PID.TID 0000.0001)   Seconds in section "LOAD_FIELDS_DRIVER  [FORWARD_STEP]":
(PID.TID 0000.0001)           User time:  0.00200080872
(PID.TID 0000.0001)         System time:  0.
(PID.TID 0000.0001)     Wall clock time:  0.00204634666
(PID.TID 0000.0001)          No. starts: 20
(PID.TID 0000.0001)           No. stops: 20
(PID.TID 0000.0001)   Seconds in section "EXTERNAL_FLDS_LOAD [LOAD_FLDS_DRIVER]":
(PID.TID 0000.0001)           User time:  0.00200080872
(PID.TID 0000.0001)         System time:  0.
(PID.TID 0000.0001)     Wall clock time:  0.000700712204
(PID.TID 0000.0001)          No. starts: 20
(PID.TID 0000.0001)           No. stops: 20
(PID.TID 0000.0001)   Seconds in section "DO_ATMOSPHERIC_PHYS [FORWARD_STEP]":
(PID.TID 0000.0001)           User time:  0.
(PID.TID 0000.0001)         System time:  0.
(PID.TID 0000.0001)     Wall clock time:  0.000684261322
(PID.TID 0000.0001)          No. starts: 20
(PID.TID 0000.0001)           No. stops: 20
(PID.TID 0000.0001)   Seconds in section "DO_OCEANIC_PHYS     [FORWARD_STEP]":
(PID.TID 0000.0001)           User time:  0.261968851
(PID.TID 0000.0001)         System time:  0.
(PID.TID 0000.0001)     Wall clock time:  0.261887074
(PID.TID 0000.0001)          No. starts: 20
(PID.TID 0000.0001)           No. stops: 20
(PID.TID 0000.0001)   Seconds in section "SHELFICE_THERMODYNAMICS [DO_OCEANIC_PHYS]":
(PID.TID 0000.0001)           User time:  0.0460011959
(PID.TID 0000.0001)         System time:  0.
(PID.TID 0000.0001)     Wall clock time:  0.047693491
(PID.TID 0000.0001)          No. starts: 20
(PID.TID 0000.0001)           No. stops: 20
(PID.TID 0000.0001)   Seconds in section "THERMODYNAMICS      [FORWARD_STEP]":
(PID.TID 0000.0001)           User time:  6.32603979
(PID.TID 0000.0001)         System time:  0.00499898195
(PID.TID 0000.0001)     Wall clock time:  6.33404994
(PID.TID 0000.0001)          No. starts: 20
(PID.TID 0000.0001)           No. stops: 20
(PID.TID 0000.0001)   Seconds in section "DYNAMICS            [FORWARD_STEP]":
(PID.TID 0000.0001)           User time:  16.6134675
(PID.TID 0000.0001)         System time:  0.011999011
(PID.TID 0000.0001)     Wall clock time:  16.642951
(PID.TID 0000.0001)          No. starts: 20
(PID.TID 0000.0001)           No. stops: 20
(PID.TID 0000.0001)   Seconds in section "SOLVE_FOR_PRESSURE  [FORWARD_STEP]":
(PID.TID 0000.0001)           User time:  9.69053507
(PID.TID 0000.0001)         System time:  0.00999802351
(PID.TID 0000.0001)     Wall clock time:  9.91987896
(PID.TID 0000.0001)          No. starts: 20
(PID.TID 0000.0001)           No. stops: 20
(PID.TID 0000.0001)   Seconds in section "MOM_CORRECTION_STEP [FORWARD_STEP]":
(PID.TID 0000.0001)           User time:  1.17081785
(PID.TID 0000.0001)         System time:  0.
(PID.TID 0000.0001)     Wall clock time:  1.17110252
(PID.TID 0000.0001)          No. starts: 20
(PID.TID 0000.0001)           No. stops: 20
(PID.TID 0000.0001)   Seconds in section "UPDATE_ETAH         [FORWARD_STEP]":
(PID.TID 0000.0001)           User time:  0.007999897
(PID.TID 0000.0001)         System time:  0.
(PID.TID 0000.0001)     Wall clock time:  0.00562477112
(PID.TID 0000.0001)          No. starts: 20
(PID.TID 0000.0001)           No. stops: 20
(PID.TID 0000.0001)   Seconds in section "TRC_CORRECTION_STEP [FORWARD_STEP]":
(PID.TID 0000.0001)           User time:  3.79942179
(PID.TID 0000.0001)         System time:  0.000999987125
(PID.TID 0000.0001)     Wall clock time:  3.80243874
(PID.TID 0000.0001)          No. starts: 20
(PID.TID 0000.0001)           No. stops: 20
(PID.TID 0000.0001)   Seconds in section "BLOCKING_EXCHANGES  [FORWARD_STEP]":
(PID.TID 0000.0001)           User time:  0.47893095
(PID.TID 0000.0001)         System time:  0.
(PID.TID 0000.0001)     Wall clock time:  0.478466272
(PID.TID 0000.0001)          No. starts: 20
(PID.TID 0000.0001)           No. stops: 20
(PID.TID 0000.0001)   Seconds in section "DO_STATEVARS_TAVE   [FORWARD_STEP]":
(PID.TID 0000.0001)           User time:  0.000999450684
(PID.TID 0000.0001)         System time:  0.
(PID.TID 0000.0001)     Wall clock time:  0.000808477402
(PID.TID 0000.0001)          No. starts: 20
(PID.TID 0000.0001)           No. stops: 20
(PID.TID 0000.0001)   Seconds in section "MONITOR             [FORWARD_STEP]":
(PID.TID 0000.0001)           User time:  5.13121367
(PID.TID 0000.0001)         System time:  0.000999987125
(PID.TID 0000.0001)     Wall clock time:  5.13570404
(PID.TID 0000.0001)          No. starts: 20
(PID.TID 0000.0001)           No. stops: 20
(PID.TID 0000.0001)   Seconds in section "DO_THE_MODEL_IO     [FORWARD_STEP]":
(PID.TID 0000.0001)           User time:  0.318950653
(PID.TID 0000.0001)         System time:  0.0249959826
(PID.TID 0000.0001)     Wall clock time:  0.343823195
(PID.TID 0000.0001)          No. starts: 20
(PID.TID 0000.0001)           No. stops: 20
(PID.TID 0000.0001)   Seconds in section "DO_WRITE_PICKUP     [FORWARD_STEP]":
(PID.TID 0000.0001)           User time:  0.00199890137
(PID.TID 0000.0001)         System time:  0.
(PID.TID 0000.0001)     Wall clock time:  0.000708341599
(PID.TID 0000.0001)          No. starts: 20
(PID.TID 0000.0001)           No. stops: 20
(PID.TID 0000.0001)   Seconds in section "DO_WRITE_PICKUP        [THE_MODEL_MAIN]":
(PID.TID 0000.0001)           User time:  0.765884399
(PID.TID 0000.0001)         System time:  0.302953988
(PID.TID 0000.0001)     Wall clock time:  1.06884193
(PID.TID 0000.0001)          No. starts: 1
(PID.TID 0000.0001)           No. stops: 1
(PID.TID 0000.0001) // ======================================================
(PID.TID 0000.0001) // Tile <-> Tile communication statistics
(PID.TID 0000.0001) // ======================================================
(PID.TID 0000.0001) // o Tile number: 000001
(PID.TID 0000.0001) //         No. X exchanges =              0
(PID.TID 0000.0001) //            Max. X spins =              0
(PID.TID 0000.0001) //            Min. X spins =     1000000000
(PID.TID 0000.0001) //          Total. X spins =              0
(PID.TID 0000.0001) //            Avg. X spins =       0.00E+00
(PID.TID 0000.0001) //         No. Y exchanges =              0
(PID.TID 0000.0001) //            Max. Y spins =              0
(PID.TID 0000.0001) //            Min. Y spins =     1000000000
(PID.TID 0000.0001) //          Total. Y spins =              0
(PID.TID 0000.0001) //            Avg. Y spins =       0.00E+00
(PID.TID 0000.0001) // o Tile number: 000002
(PID.TID 0000.0001) //         No. X exchanges =              0
(PID.TID 0000.0001) //            Max. X spins =              0
(PID.TID 0000.0001) //            Min. X spins =     1000000000
(PID.TID 0000.0001) //          Total. X spins =              0
(PID.TID 0000.0001) //            Avg. X spins =       0.00E+00
(PID.TID 0000.0001) //         No. Y exchanges =              0
(PID.TID 0000.0001) //            Max. Y spins =              0
(PID.TID 0000.0001) //            Min. Y spins =     1000000000
(PID.TID 0000.0001) //          Total. Y spins =              0
(PID.TID 0000.0001) //            Avg. Y spins =       0.00E+00
(PID.TID 0000.0001) // o Thread number: 000001
(PID.TID 0000.0001) //            No. barriers =          56106
(PID.TID 0000.0001) //      Max. barrier spins =              1
(PID.TID 0000.0001) //      Min. barrier spins =              1
(PID.TID 0000.0001) //     Total barrier spins =          56106
(PID.TID 0000.0001) //      Avg. barrier spins =       1.00E+00
