(PID.TID 0000.0001) 
(PID.TID 0000.0001) // ======================================================
(PID.TID 0000.0001) //                      MITgcm UV
(PID.TID 0000.0001) //                      =========
(PID.TID 0000.0001) // ======================================================
(PID.TID 0000.0001) // execution environment starting up...
(PID.TID 0000.0001) 
(PID.TID 0000.0001) // MITgcmUV version:  checkpoint63e
(PID.TID 0000.0001) // Build user:        jmc
(PID.TID 0000.0001) // Build host:        baudelaire
(PID.TID 0000.0001) // Build date:        Mon Nov  7 16:02:43 EST 2011
(PID.TID 0000.0001) 
(PID.TID 0000.0001) // =======================================================
(PID.TID 0000.0001) // Execution Environment parameter file "eedata"
(PID.TID 0000.0001) // =======================================================
(PID.TID 0000.0001) ># Example "eedata" file
(PID.TID 0000.0001) ># Lines beginning "#" are comments
(PID.TID 0000.0001) ># nTx - No. threads per process in X
(PID.TID 0000.0001) ># nTy - No. threads per process in Y
(PID.TID 0000.0001) > &EEPARMS
(PID.TID 0000.0001) > /
(PID.TID 0000.0001) ># Note: Some systems use & as the
(PID.TID 0000.0001) ># namelist terminator. Other systems
(PID.TID 0000.0001) ># use a / character (as shown here).
(PID.TID 0000.0001) 
(PID.TID 0000.0001) // =======================================================
(PID.TID 0000.0001) // Computational Grid Specification ( see files "SIZE.h" )
(PID.TID 0000.0001) //                                  ( and "eedata"       )
(PID.TID 0000.0001) // =======================================================
(PID.TID 0000.0001)      nPx =    1 ; /* No. processes in X */
(PID.TID 0000.0001)      nPy =    1 ; /* No. processes in Y */
(PID.TID 0000.0001)      nSx =    1 ; /* No. tiles in X per process */
(PID.TID 0000.0001)      nSy =    2 ; /* No. tiles in Y per process */
(PID.TID 0000.0001)      sNx =   50 ; /* Tile size in X */
(PID.TID 0000.0001)      sNy =   50 ; /* Tile size in Y */
(PID.TID 0000.0001)      OLx =    3 ; /* Tile overlap distance in X */
(PID.TID 0000.0001)      OLy =    3 ; /* Tile overlap distance in Y */
(PID.TID 0000.0001)      nTx =    1 ; /* No. threads in X per process */
(PID.TID 0000.0001)      nTy =    1 ; /* No. threads in Y per process */
(PID.TID 0000.0001)       Nr =   30 ; /* No. levels in the vertical   */
(PID.TID 0000.0001)       Nx =   50 ; /* Total domain size in X ( = nPx*nSx*sNx ) */
(PID.TID 0000.0001)       Ny =  100 ; /* Total domain size in Y ( = nPy*nSy*sNy ) */
(PID.TID 0000.0001)   nTiles =    2 ; /* Total no. tiles per process ( = nSx*nSy ) */
(PID.TID 0000.0001)   nProcs =    1 ; /* Total no. processes ( = nPx*nPy ) */
(PID.TID 0000.0001) nThreads =    1 ; /* Total no. threads per process ( = nTx*nTy ) */
(PID.TID 0000.0001) usingMPI =    F ; /* Flag used to control whether MPI is in use */
(PID.TID 0000.0001)                   /*  note: To execute a program with MPI calls */
(PID.TID 0000.0001)                   /*  it must be launched appropriately e.g     */
(PID.TID 0000.0001)                   /*  "mpirun -np 64 ......"                    */
(PID.TID 0000.0001) useCoupler=    F ;/* Flag used to control communications with   */
(PID.TID 0000.0001)                   /*  other model components, through a coupler */
(PID.TID 0000.0001) debugMode =    F ; /* print debug msg. (sequence of S/R calls)  */
(PID.TID 0000.0001) printMapIncludesZeros=    F ; /* print zeros in Std.Output maps */
(PID.TID 0000.0001) maxLengthPrt1D=   65 /* maxLength of 1D array printed to StdOut */
(PID.TID 0000.0001) 
(PID.TID 0000.0001) // ======================================================
(PID.TID 0000.0001) // Mapping of tiles to threads
(PID.TID 0000.0001) // ======================================================
(PID.TID 0000.0001) // -o- Thread   1, tiles (   1:   1,   1:   2)
(PID.TID 0000.0001) 
(PID.TID 0000.0001) // ======================================================
(PID.TID 0000.0001) // Tile <-> Tile connectvity table
(PID.TID 0000.0001) // ======================================================
(PID.TID 0000.0001) // Tile number: 000001 (process no. = 000001)
(PID.TID 0000.0001) //        WEST: Tile = 000001, Process = 000001, Comm = put
(PID.TID 0000.0001) //                bi = 000001, bj = 000001
(PID.TID 0000.0001) //        EAST: Tile = 000001, Process = 000001, Comm = put
(PID.TID 0000.0001) //                bi = 000001, bj = 000001
(PID.TID 0000.0001) //       SOUTH: Tile = 000002, Process = 000001, Comm = put
(PID.TID 0000.0001) //                bi = 000001, bj = 000002
(PID.TID 0000.0001) //       NORTH: Tile = 000002, Process = 000001, Comm = put
(PID.TID 0000.0001) //                bi = 000001, bj = 000002
(PID.TID 0000.0001) // Tile number: 000002 (process no. = 000001)
(PID.TID 0000.0001) //        WEST: Tile = 000002, Process = 000001, Comm = put
(PID.TID 0000.0001) //                bi = 000001, bj = 000002
(PID.TID 0000.0001) //        EAST: Tile = 000002, Process = 000001, Comm = put
(PID.TID 0000.0001) //                bi = 000001, bj = 000002
(PID.TID 0000.0001) //       SOUTH: Tile = 000001, Process = 000001, Comm = put
(PID.TID 0000.0001) //                bi = 000001, bj = 000001
(PID.TID 0000.0001) //       NORTH: Tile = 000001, Process = 000001, Comm = put
(PID.TID 0000.0001) //                bi = 000001, bj = 000001
(PID.TID 0000.0001) 
(PID.TID 0000.0001)  INI_PARMS: opening model parameter file "data"
(PID.TID 0000.0001)  OPEN_COPY_DATA_FILE: opening file data
(PID.TID 0000.0001) // =======================================================
(PID.TID 0000.0001) // Parameter file "data"
(PID.TID 0000.0001) // =======================================================
(PID.TID 0000.0001) ># ====================
(PID.TID 0000.0001) ># | Model parameters |
(PID.TID 0000.0001) ># ====================
(PID.TID 0000.0001) >#
(PID.TID 0000.0001) ># Continuous equation parameters
(PID.TID 0000.0001) > &PARM01
(PID.TID 0000.0001) > Tref = 30*-1.9,
(PID.TID 0000.0001) > Sref = 30*34.4,
(PID.TID 0000.0001) > viscAz=1.E-3,
(PID.TID 0000.0001) > viscAh=600.0,
(PID.TID 0000.0001) > no_slip_sides=.FALSE.,
(PID.TID 0000.0001) > no_slip_bottom=.FALSE.,
(PID.TID 0000.0001) > diffKhT=100.0,
(PID.TID 0000.0001) > diffKzT=5.E-5,
(PID.TID 0000.0001) > diffKhS=100.0,
(PID.TID 0000.0001) > diffKzS=5.E-5,
(PID.TID 0000.0001) > bottomDragQuadratic=2.5E-3,
(PID.TID 0000.0001) > eosType='JMD95Z',
(PID.TID 0000.0001) > HeatCapacity_cp = 3974.0,
(PID.TID 0000.0001) > rhoConst=1030.,
(PID.TID 0000.0001) > rhoNil=1030.,
(PID.TID 0000.0001) > gravity=9.81,
(PID.TID 0000.0001) > convertFW2Salt = 33.4,
(PID.TID 0000.0001) > rigidLid=.FALSE.,
(PID.TID 0000.0001) > implicitFreeSurface=.TRUE.,
(PID.TID 0000.0001) > exactConserv=.TRUE.,
(PID.TID 0000.0001) > hFacMin=0.05,
(PID.TID 0000.0001) > nonHydrostatic=.FALSE.,
(PID.TID 0000.0001) > readBinaryPrec=64,
(PID.TID 0000.0001) > useCDScheme = .TRUE.,
(PID.TID 0000.0001) > /
(PID.TID 0000.0001) >
(PID.TID 0000.0001) ># Elliptic solver parameters
(PID.TID 0000.0001) > &PARM02
(PID.TID 0000.0001) > cg2dMaxIters=1000,
(PID.TID 0000.0001) > cg2dTargetResidual=1.E-13,
(PID.TID 0000.0001) > cg3dMaxIters=400,
(PID.TID 0000.0001) > cg3dTargetResidual=1.E-13,
(PID.TID 0000.0001) > /
(PID.TID 0000.0001) >
(PID.TID 0000.0001) ># Time stepping parameters
(PID.TID 0000.0001) > &PARM03
(PID.TID 0000.0001) > nIter0=0,
(PID.TID 0000.0001) > nTimeSteps=20,
(PID.TID 0000.0001) > deltaT=1800.0,
(PID.TID 0000.0001) > abEps=0.1,
(PID.TID 0000.0001) > cAdjFreq = -1.,
(PID.TID 0000.0001) > tauCD = 400000.,
(PID.TID 0000.0001) > pChkptFreq=0.0,
(PID.TID 0000.0001) > chkptFreq=0.0,
(PID.TID 0000.0001) > dumpFreq=0.0,
(PID.TID 0000.0001) > taveFreq=0.0,
(PID.TID 0000.0001) > monitorFreq=1.,
(PID.TID 0000.0001) > monitorSelect=2,
(PID.TID 0000.0001) > /
(PID.TID 0000.0001) >
(PID.TID 0000.0001) ># Gridding parameters
(PID.TID 0000.0001) > &PARM04
(PID.TID 0000.0001) > usingSphericalPolarGrid=.TRUE.,
(PID.TID 0000.0001) > ygOrigin = -80.0,
(PID.TID 0000.0001) > delX=50*0.3,
(PID.TID 0000.0001) > delY=100*0.1,
(PID.TID 0000.0001) > delZ=30*30.0,
(PID.TID 0000.0001) > /
(PID.TID 0000.0001) >
(PID.TID 0000.0001) ># Input datasets
(PID.TID 0000.0001) > &PARM05
(PID.TID 0000.0001) > bathyFile='bathy.box',
(PID.TID 0000.0001) > /
(PID.TID 0000.0001) 
(PID.TID 0000.0001)  INI_PARMS ; starts to read PARM01
(PID.TID 0000.0001)  INI_PARMS ; read PARM01 : OK
(PID.TID 0000.0001)  INI_PARMS ; starts to read PARM02
(PID.TID 0000.0001)  INI_PARMS ; read PARM02 : OK
(PID.TID 0000.0001)  INI_PARMS ; starts to read PARM03
(PID.TID 0000.0001)  INI_PARMS ; read PARM03 : OK
(PID.TID 0000.0001)  INI_PARMS ; starts to read PARM04
(PID.TID 0000.0001)  INI_PARMS ; read PARM04 : OK
(PID.TID 0000.0001)  INI_PARMS ; starts to read PARM05
(PID.TID 0000.0001)  INI_PARMS ; read PARM05 : OK
(PID.TID 0000.0001)  INI_PARMS: finished reading file "data"
(PID.TID 0000.0001)  PACKAGES_BOOT: opening data.pkg
(PID.TID 0000.0001)  OPEN_COPY_DATA_FILE: opening file data.pkg
(PID.TID 0000.0001) // =======================================================
(PID.TID 0000.0001) // Parameter file "data.pkg"
(PID.TID 0000.0001) // =======================================================
(PID.TID 0000.0001) ># Packages
(PID.TID 0000.0001) > &PACKAGES
(PID.TID 0000.0001) > useDiagnostics = .TRUE.,
(PID.TID 0000.0001) > useShelfIce=.true.,
(PID.TID 0000.0001) > useIcefront=.true.,
(PID.TID 0000.0001) > /
(PID.TID 0000.0001) 
(PID.TID 0000.0001)  PACKAGES_BOOT: finished reading data.pkg
(PID.TID 0000.0001)  SHELFICE_READPARMS: opening data.shelfice
(PID.TID 0000.0001)  OPEN_COPY_DATA_FILE: opening file data.shelfice
(PID.TID 0000.0001) // =======================================================
(PID.TID 0000.0001) // Parameter file "data.shelfice"
(PID.TID 0000.0001) // =======================================================
(PID.TID 0000.0001) ># ===================================
(PID.TID 0000.0001) ># | Parameters for SHELFICE package |
(PID.TID 0000.0001) ># ===================================
(PID.TID 0000.0001) > &SHELFICE_PARM01
(PID.TID 0000.0001) > SHELFICEboundaryLayer = .TRUE.,
(PID.TID 0000.0001) > SHELFICEtopoFile='icetopo.exp1',
(PID.TID 0000.0001) > SHELFICEloadAnomalyFile = 'phi0surf.exp1.jmd95z',
(PID.TID 0000.0001) > SHELFICEconserve = .true.,
(PID.TID 0000.0001) > useISOMIPTD = .FALSE.,
(PID.TID 0000.0001) > no_slip_shelfice = .false.,
(PID.TID 0000.0001) > SHELFICEwriteState = .TRUE.,
(PID.TID 0000.0001) > /
(PID.TID 0000.0001) 
(PID.TID 0000.0001)  SHELFICE_READPARMS: finished reading data.shelfice
(PID.TID 0000.0001)  ICEFRONT_READPARMS: opening data.icefront
(PID.TID 0000.0001)  OPEN_COPY_DATA_FILE: opening file data.icefront
(PID.TID 0000.0001) // =======================================================
(PID.TID 0000.0001) // Parameter file "data.icefront"
(PID.TID 0000.0001) // =======================================================
(PID.TID 0000.0001) ># ===================================
(PID.TID 0000.0001) ># | Parameters for ICEFRONT package |
(PID.TID 0000.0001) ># ===================================
(PID.TID 0000.0001) > &ICEFRONT_PARM01
(PID.TID 0000.0001) > ICEFRONTdepthFile='frontdepth.xuyun',
(PID.TID 0000.0001) > ICEFRONTlengthFile = 'frontcircum.xuyun',
(PID.TID 0000.0001) > applyIcefrontTendT = .true.,
(PID.TID 0000.0001) > applyIcefrontTendS = .true.,
(PID.TID 0000.0001) > /
(PID.TID 0000.0001) 
(PID.TID 0000.0001)  ICEFRONT_READPARMS: finished reading data.icefront
(PID.TID 0000.0001)  DIAGNOSTICS_READPARMS: opening data.diagnostics
(PID.TID 0000.0001)  OPEN_COPY_DATA_FILE: opening file data.diagnostics
(PID.TID 0000.0001) // =======================================================
(PID.TID 0000.0001) // Parameter file "data.diagnostics"
(PID.TID 0000.0001) // =======================================================
(PID.TID 0000.0001) ># Diagnostic Package Choices
(PID.TID 0000.0001) >#--------------------
(PID.TID 0000.0001) >#  dumpAtLast (logical): always write output at the end of simulation (default=F)
(PID.TID 0000.0001) >#  diag_mnc   (logical): write to NetCDF files (default=useMNC)
(PID.TID 0000.0001) >#--for each output-stream:
(PID.TID 0000.0001) >#  fileName(n) : prefix of the output file name (max 80c long) for outp.stream n
(PID.TID 0000.0001) >#  frequency(n):< 0 : write snap-shot output every |frequency| seconds
(PID.TID 0000.0001) >#               > 0 : write time-average output every frequency seconds
(PID.TID 0000.0001) >#  timePhase(n)     : write at time = timePhase + multiple of |frequency|
(PID.TID 0000.0001) >#    averagingFreq  : frequency (in s) for periodic averaging interval
(PID.TID 0000.0001) >#    averagingPhase : phase     (in s) for periodic averaging interval
(PID.TID 0000.0001) >#    repeatCycle    : number of averaging intervals in 1 cycle
(PID.TID 0000.0001) >#  levels(:,n) : list of levels to write to file (Notes: declared as REAL)
(PID.TID 0000.0001) >#                when this entry is missing, select all common levels of this list
(PID.TID 0000.0001) >#  fields(:,n) : list of selected diagnostics fields (8.c) in outp.stream n
(PID.TID 0000.0001) >#                (see "available_diagnostics.log" file for the full list of diags)
(PID.TID 0000.0001) >#  missing_value(n) : missing value for real-type fields in output file "n"
(PID.TID 0000.0001) >#  fileFlags(n)     : specific code (8c string) for output file "n"
(PID.TID 0000.0001) >#--------------------
(PID.TID 0000.0001) > &DIAGNOSTICS_LIST
(PID.TID 0000.0001) >  fields(1:2,1)  = 'SHIfwFlx','SHIhtFlx',
(PID.TID 0000.0001) >   fileName(1) = 'shelficeDiag',
(PID.TID 0000.0001) >  frequency(1) = 18000.,
(PID.TID 0000.0001) >  fields(1:2,2)  = 'ICFfwFlx','ICFhtFlx',
(PID.TID 0000.0001) >   fileName(2) = 'icefrontDiag',
(PID.TID 0000.0001) >  frequency(2) = 18000.,
(PID.TID 0000.0001) > /
(PID.TID 0000.0001) >
(PID.TID 0000.0001) >#--------------------
(PID.TID 0000.0001) ># Parameter for Diagnostics of per level statistics:
(PID.TID 0000.0001) >#--------------------
(PID.TID 0000.0001) >#  diagSt_mnc (logical): write stat-diags to NetCDF files (default=diag_mnc)
(PID.TID 0000.0001) >#  diagSt_regMaskFile : file containing the region-mask to read-in
(PID.TID 0000.0001) >#  nSetRegMskFile   : number of region-mask sets within the region-mask file
(PID.TID 0000.0001) >#  set_regMask(i)   : region-mask set-index that identifies the region "i"
(PID.TID 0000.0001) >#  val_regMask(i)   : region "i" identifier value in the region mask
(PID.TID 0000.0001) >#--for each output-stream:
(PID.TID 0000.0001) >#  stat_fName(n) : prefix of the output file name (max 80c long) for outp.stream n
(PID.TID 0000.0001) >#  stat_freq(n):< 0 : write snap-shot output every |stat_freq| seconds
(PID.TID 0000.0001) >#               > 0 : write time-average output every stat_freq seconds
(PID.TID 0000.0001) >#  stat_phase(n)    : write at time = stat_phase + multiple of |stat_freq|
(PID.TID 0000.0001) >#  stat_region(:,n) : list of "regions" (default: 1 region only=global)
(PID.TID 0000.0001) >#  stat_fields(:,n) : list of selected diagnostics fields (8.c) in outp.stream n
(PID.TID 0000.0001) >#                (see "available_diagnostics.log" file for the full list of diags)
(PID.TID 0000.0001) >#--------------------
(PID.TID 0000.0001) > &DIAG_STATIS_PARMS
(PID.TID 0000.0001) >#stat_fields(1:5,1)  = 'ETAN    ','UVEL    ','VVEL    ','WVEL    ', 'THETA   ',
(PID.TID 0000.0001) ># stat_fName(1) = 'dynStDiag',
(PID.TID 0000.0001) >#  stat_freq(1) = -3600.,
(PID.TID 0000.0001) ># stat_phase(1) = 0.,
(PID.TID 0000.0001) > /
(PID.TID 0000.0001) 
(PID.TID 0000.0001) S/R DIAGNOSTICS_READPARMS, read namelist "diagnostics_list": start
(PID.TID 0000.0001) S/R DIAGNOSTICS_READPARMS, read namelist "diagnostics_list": OK
(PID.TID 0000.0001) S/R DIAGNOSTICS_READPARMS, read namelist "DIAG_STATIS_PARMS": start
(PID.TID 0000.0001) S/R DIAGNOSTICS_READPARMS, read namelist "DIAG_STATIS_PARMS": OK
(PID.TID 0000.0001)  DIAGNOSTICS_READPARMS: global parameter summary:
(PID.TID 0000.0001)  dumpAtLast = /* always write time-ave diags at the end */
(PID.TID 0000.0001)                   F
(PID.TID 0000.0001)     ;
(PID.TID 0000.0001)  diag_mnc =   /* write NetCDF output files */
(PID.TID 0000.0001)                   F
(PID.TID 0000.0001)     ;
(PID.TID 0000.0001)  useMissingValue = /* put MissingValue where mask = 0 */
(PID.TID 0000.0001)                   F
(PID.TID 0000.0001)     ;
(PID.TID 0000.0001)  diagCG_maxIters = /* max number of iters in diag_cg2d */
(PID.TID 0000.0001)                    1000
(PID.TID 0000.0001)     ;
(PID.TID 0000.0001)  diagCG_resTarget = /* residual target for diag_cg2d */
(PID.TID 0000.0001)                 1.000000000000000E-13
(PID.TID 0000.0001)     ;
(PID.TID 0000.0001) -----------------------------------------------------
(PID.TID 0000.0001)  DIAGNOSTICS_READPARMS: active diagnostics summary:
(PID.TID 0000.0001) -----------------------------------------------------
(PID.TID 0000.0001) Creating Output Stream: shelficeDiag
(PID.TID 0000.0001) Output Frequency:      18000.000000 ; Phase:           0.000000
(PID.TID 0000.0001)  Averaging Freq.:      18000.000000 , Phase:           0.000000 , Cycle:   1
(PID.TID 0000.0001)  missing value:  1.234567000000E+05 ; for integers:   123456789
(PID.TID 0000.0001)  Levels:    will be set later
(PID.TID 0000.0001)  Fields:    SHIfwFlx SHIhtFlx
(PID.TID 0000.0001) Creating Output Stream: icefrontDiag
(PID.TID 0000.0001) Output Frequency:      18000.000000 ; Phase:           0.000000
(PID.TID 0000.0001)  Averaging Freq.:      18000.000000 , Phase:           0.000000 , Cycle:   1
(PID.TID 0000.0001)  missing value:  1.234567000000E+05 ; for integers:   123456789
(PID.TID 0000.0001)  Levels:    will be set later
(PID.TID 0000.0001)  Fields:    ICFfwFlx ICFhtFlx
(PID.TID 0000.0001) -----------------------------------------------------
(PID.TID 0000.0001)  DIAGNOSTICS_READPARMS: statistics diags. summary:
(PID.TID 0000.0001) -----------------------------------------------------
(PID.TID 0000.0001) 
(PID.TID 0000.0001) SET_PARMS: done
(PID.TID 0000.0001) Enter INI_VERTICAL_GRID: setInterFDr=    T ; setCenterDr=    F
(PID.TID 0000.0001) %MON XC_max                       =   1.4850000000000E+01
(PID.TID 0000.0001) %MON XC_min                       =   1.5000000000000E-01
(PID.TID 0000.0001) %MON XC_mean                      =   7.5000000000000E+00
(PID.TID 0000.0001) %MON XC_sd                        =   4.3292609068985E+00
(PID.TID 0000.0001) %MON XG_max                       =   1.4700000000000E+01
(PID.TID 0000.0001) %MON XG_min                       =   1.1102230246252E-16
(PID.TID 0000.0001) %MON XG_mean                      =   7.3500000000000E+00
(PID.TID 0000.0001) %MON XG_sd                        =   4.3292609068985E+00
(PID.TID 0000.0001) %MON DXC_max                      =   1.1380125394806E+04
(PID.TID 0000.0001) %MON DXC_min                      =   5.8203914905589E+03
(PID.TID 0000.0001) %MON DXC_mean                     =   8.6215028627206E+03
(PID.TID 0000.0001) %MON DXC_sd                       =   1.6219001271572E+03
(PID.TID 0000.0001) %MON DXF_max                      =   1.1380125394806E+04
(PID.TID 0000.0001) %MON DXF_min                      =   5.8203914905589E+03
(PID.TID 0000.0001) %MON DXF_mean                     =   8.6215028627206E+03
(PID.TID 0000.0001) %MON DXF_sd                       =   1.6219001271572E+03
(PID.TID 0000.0001) %MON DXG_max                      =   1.1352761512017E+04
(PID.TID 0000.0001) %MON DXG_min                      =   5.7917296935586E+03
(PID.TID 0000.0001) %MON DXG_mean                     =   8.5934208253080E+03
(PID.TID 0000.0001) %MON DXG_sd                       =   1.6222785520817E+03
(PID.TID 0000.0001) %MON DXV_max                      =   1.1352761512017E+04
(PID.TID 0000.0001) %MON DXV_min                      =   5.7917296935586E+03
(PID.TID 0000.0001) %MON DXV_mean                     =   8.5934208253080E+03
(PID.TID 0000.0001) %MON DXV_sd                       =   1.6222785520817E+03
(PID.TID 0000.0001) %MON YC_max                       =  -7.0050000000001E+01
(PID.TID 0000.0001) %MON YC_min                       =  -7.9950000000000E+01
(PID.TID 0000.0001) %MON YC_mean                      =  -7.5000000000000E+01
(PID.TID 0000.0001) %MON YC_sd                        =   2.8866070047720E+00
(PID.TID 0000.0001) %MON YG_max                       =  -7.0100000000001E+01
(PID.TID 0000.0001) %MON YG_min                       =  -8.0000000000000E+01
(PID.TID 0000.0001) %MON YG_mean                      =  -7.5050000000000E+01
(PID.TID 0000.0001) %MON YG_sd                        =   2.8866070047720E+00
(PID.TID 0000.0001) %MON DYC_max                      =   1.1117747335204E+04
(PID.TID 0000.0001) %MON DYC_min                      =   1.1117747335204E+04
(PID.TID 0000.0001) %MON DYC_mean                     =   1.1117747335203E+04
(PID.TID 0000.0001) %MON DYC_sd                       =   6.0754246078432E-10
(PID.TID 0000.0001) %MON DYF_max                      =   1.1117747335204E+04
(PID.TID 0000.0001) %MON DYF_min                      =   1.1117747335204E+04
(PID.TID 0000.0001) %MON DYF_mean                     =   1.1117747335203E+04
(PID.TID 0000.0001) %MON DYF_sd                       =   6.0754246078432E-10
(PID.TID 0000.0001) %MON DYG_max                      =   1.1117747335204E+04
(PID.TID 0000.0001) %MON DYG_min                      =   1.1117747335204E+04
(PID.TID 0000.0001) %MON DYG_mean                     =   1.1117747335203E+04
(PID.TID 0000.0001) %MON DYG_sd                       =   6.0754246078432E-10
(PID.TID 0000.0001) %MON DYU_max                      =   1.1117747335204E+04
(PID.TID 0000.0001) %MON DYU_min                      =   1.1117747335204E+04
(PID.TID 0000.0001) %MON DYU_mean                     =   1.1117747335203E+04
(PID.TID 0000.0001) %MON DYU_sd                       =   6.0754246078432E-10
(PID.TID 0000.0001) %MON RA_max                       =   1.2652134272379E+08
(PID.TID 0000.0001) %MON RA_min                       =   6.4709633770803E+07
(PID.TID 0000.0001) %MON RA_mean                      =   9.5851678311588E+07
(PID.TID 0000.0001) %MON RA_sd                        =   1.8031873527991E+07
(PID.TID 0000.0001) %MON RAW_max                      =   1.2652134272379E+08
(PID.TID 0000.0001) %MON RAW_min                      =   6.4709633770803E+07
(PID.TID 0000.0001) %MON RAW_mean                     =   9.5851678311588E+07
(PID.TID 0000.0001) %MON RAW_sd                       =   1.8031873527991E+07
(PID.TID 0000.0001) %MON RAS_max                      =   1.2621711802744E+08
(PID.TID 0000.0001) %MON RAS_min                      =   6.4390979194019E+07
(PID.TID 0000.0001) %MON RAS_mean                     =   9.5539469354603E+07
(PID.TID 0000.0001) %MON RAS_sd                       =   1.8036080760153E+07
(PID.TID 0000.0001) %MON RAZ_max                      =   1.2621711802744E+08
(PID.TID 0000.0001) %MON RAZ_min                      =   6.4390979194019E+07
(PID.TID 0000.0001) %MON RAZ_mean                     =   9.5539469354603E+07
(PID.TID 0000.0001) %MON RAZ_sd                       =   1.8036080760153E+07
(PID.TID 0000.0001) %MON AngleCS_max                  =   1.0000000000000E+00
(PID.TID 0000.0001) %MON AngleCS_min                  =   1.0000000000000E+00
(PID.TID 0000.0001) %MON AngleCS_mean                 =   1.0000000000000E+00
(PID.TID 0000.0001) %MON AngleCS_sd                   =   0.0000000000000E+00
(PID.TID 0000.0001) %MON AngleSN_max                  =   0.0000000000000E+00
(PID.TID 0000.0001) %MON AngleSN_min                  =   0.0000000000000E+00
(PID.TID 0000.0001) %MON AngleSN_mean                 =   0.0000000000000E+00
(PID.TID 0000.0001) %MON AngleSN_sd                   =   0.0000000000000E+00
(PID.TID 0000.0001)  MDS_READ_FIELD: opening global file: bathy.box
(PID.TID 0000.0001)  MDS_READ_FIELD: opening global file: icetopo.exp1
(PID.TID 0000.0001) // =======================================================
(PID.TID 0000.0001) // Field Model R_low (ini_masks_etc)
(PID.TID 0000.0001) // CMIN =         -9.000000000000000E+02
(PID.TID 0000.0001) // CMAX =         -9.000000000000000E+02
(PID.TID 0000.0001) // CINT =          0.000000000000000E+00
(PID.TID 0000.0001) // SYMBOLS (CMIN->CMAX): -abcdefghijklmnopqrstuvwxyz+
(PID.TID 0000.0001) //                  0.0: .
(PID.TID 0000.0001) // RANGE I (Lo:Hi:Step):(    -2:    53:     1)
(PID.TID 0000.0001) // RANGE J (Lo:Hi:Step):(   103:    -2:    -1)
(PID.TID 0000.0001) // RANGE K (Lo:Hi:Step):(   1:   1:   1)
(PID.TID 0000.0001) // =======================================================
(PID.TID 0000.0001) // =======================================================
(PID.TID 0000.0001) // END OF FIELD                                          =
(PID.TID 0000.0001) // =======================================================
(PID.TID 0000.0001) 
(PID.TID 0000.0001) // =======================================================
(PID.TID 0000.0001) // Field Model Ro_surf (ini_masks_etc)
(PID.TID 0000.0001) // CMIN =         -6.812500000000010E+02
(PID.TID 0000.0001) // CMAX =         -2.000000000000000E+02
(PID.TID 0000.0001) // CINT =          1.782407407407411E+01
(PID.TID 0000.0001) // SYMBOLS (CMIN->CMAX): -abcdefghijklmnopqrstuvwxyz+
(PID.TID 0000.0001) //                  0.0: .
(PID.TID 0000.0001) // RANGE I (Lo:Hi:Step):(    -2:    53:     1)
(PID.TID 0000.0001) // RANGE J (Lo:Hi:Step):(   103:    -2:    -1)
(PID.TID 0000.0001) // RANGE K (Lo:Hi:Step):(   1:   1:   1)
(PID.TID 0000.0001) // =======================================================
(PID.TID 0000.0001) K =   1
(PID.TID 0000.0001) //                I=7       I=17      I=27      I=37      I=47
(PID.TID 0000.0001) // |--J--|210123456|890123456|890123456|890123456|890123456|890123
(PID.TID 0000.0001) //    103 aaa.aaaaaaaaaaaaaaaaaaaaaaaaaaaaaaaaaaaaaaaaaaaaaaaaa.aa
(PID.TID 0000.0001) //    102 ---.-------------------------------------------------.--
(PID.TID 0000.0001) //    101 ........................................................
(PID.TID 0000.0001) //    100 ........................................................
(PID.TID 0000.0001) //     99 ........................................................
(PID.TID 0000.0001) //     98 ........................................................
(PID.TID 0000.0001) //     97 ........................................................
(PID.TID 0000.0001) //     96 ........................................................
(PID.TID 0000.0001) //     95 ........................................................
(PID.TID 0000.0001) //     94 ........................................................
(PID.TID 0000.0001) //     93 ........................................................
(PID.TID 0000.0001) //     92 ........................................................
(PID.TID 0000.0001) //     91 ........................................................
(PID.TID 0000.0001) //     90 ........................................................
(PID.TID 0000.0001) //     89 ........................................................
(PID.TID 0000.0001) //     88 ........................................................
(PID.TID 0000.0001) //     87 ........................................................
(PID.TID 0000.0001) //     86 ........................................................
(PID.TID 0000.0001) //     85 ........................................................
(PID.TID 0000.0001) //     84 ........................................................
(PID.TID 0000.0001) //     83 ........................................................
(PID.TID 0000.0001) //     82 ........................................................
(PID.TID 0000.0001) //     81 ........................................................
(PID.TID 0000.0001) //     80 ........................................................
(PID.TID 0000.0001) //     79 ........................................................
(PID.TID 0000.0001) //     78 ........................................................
(PID.TID 0000.0001) //     77 ........................................................
(PID.TID 0000.0001) //     76 ........................................................
(PID.TID 0000.0001) //     75 ........................................................
(PID.TID 0000.0001) //     74 ........................................................
(PID.TID 0000.0001) //     73 ........................................................
(PID.TID 0000.0001) //     72 ........................................................
(PID.TID 0000.0001) //     71 ........................................................
(PID.TID 0000.0001) //     70 ........................................................
(PID.TID 0000.0001) //     69 ........................................................
(PID.TID 0000.0001) //     68 ........................................................
(PID.TID 0000.0001) //     67 ........................................................
(PID.TID 0000.0001) //     66 ........................................................
(PID.TID 0000.0001) //     65 ........................................................
(PID.TID 0000.0001) //     64 ........................................................
(PID.TID 0000.0001) //     63 ........................................................
(PID.TID 0000.0001) //     62 ........................................................
(PID.TID 0000.0001) //     61 ........................................................
(PID.TID 0000.0001) //     60 ........................................................
(PID.TID 0000.0001) //     59 ........................................................
(PID.TID 0000.0001) //     58 ........................................................
(PID.TID 0000.0001) //     57 ........................................................
(PID.TID 0000.0001) //     56 ........................................................
(PID.TID 0000.0001) //     55 ........................................................
(PID.TID 0000.0001) //     54 ........................................................
(PID.TID 0000.0001) //     53 ........................................................
(PID.TID 0000.0001) //     52 ........................................................
(PID.TID 0000.0001) //     51 ........................................................
(PID.TID 0000.0001) //     50 +++.+++++++++++++++++++++++++++++++++++++++++++++++++.++
(PID.TID 0000.0001) //     49 +++.+++++++++++++++++++++++++++++++++++++++++++++++++.++
(PID.TID 0000.0001) //     48 +++.+++++++++++++++++++++++++++++++++++++++++++++++++.++
(PID.TID 0000.0001) //     53 ........................................................
(PID.TID 0000.0001) //     52 ........................................................
(PID.TID 0000.0001) //     51 ........................................................
(PID.TID 0000.0001) //     50 +++.+++++++++++++++++++++++++++++++++++++++++++++++++.++
(PID.TID 0000.0001) //     49 +++.+++++++++++++++++++++++++++++++++++++++++++++++++.++
(PID.TID 0000.0001) //     48 +++.+++++++++++++++++++++++++++++++++++++++++++++++++.++
(PID.TID 0000.0001) //     47 +++.+++++++++++++++++++++++++++++++++++++++++++++++++.++
(PID.TID 0000.0001) //     46 +++.+++++++++++++++++++++++++++++++++++++++++++++++++.++
(PID.TID 0000.0001) //     45 +++.+++++++++++++++++++++++++++++++++++++++++++++++++.++
(PID.TID 0000.0001) //     44 +++.+++++++++++++++++++++++++++++++++++++++++++++++++.++
(PID.TID 0000.0001) //     43 +++.+++++++++++++++++++++++++++++++++++++++++++++++++.++
(PID.TID 0000.0001) //     42 +++.+++++++++++++++++++++++++++++++++++++++++++++++++.++
(PID.TID 0000.0001) //     41 +++.+++++++++++++++++++++++++++++++++++++++++++++++++.++
(PID.TID 0000.0001) //     40 +++.+++++++++++++++++++++++++++++++++++++++++++++++++.++
(PID.TID 0000.0001) //     39 zzz.zzzzzzzzzzzzzzzzzzzzzzzzzzzzzzzzzzzzzzzzzzzzzzzzz.zz
(PID.TID 0000.0001) //     38 yyy.yyyyyyyyyyyyyyyyyyyyyyyyyyyyyyyyyyyyyyyyyyyyyyyyy.yy
(PID.TID 0000.0001) //     37 yyy.yyyyyyyyyyyyyyyyyyyyyyyyyyyyyyyyyyyyyyyyyyyyyyyyy.yy
(PID.TID 0000.0001) //     36 xxx.xxxxxxxxxxxxxxxxxxxxxxxxxxxxxxxxxxxxxxxxxxxxxxxxx.xx
(PID.TID 0000.0001) //     35 www.wwwwwwwwwwwwwwwwwwwwwwwwwwwwwwwwwwwwwwwwwwwwwwwww.ww
(PID.TID 0000.0001) //     34 vvv.vvvvvvvvvvvvvvvvvvvvvvvvvvvvvvvvvvvvvvvvvvvvvvvvv.vv
(PID.TID 0000.0001) //     33 vvv.vvvvvvvvvvvvvvvvvvvvvvvvvvvvvvvvvvvvvvvvvvvvvvvvv.vv
(PID.TID 0000.0001) //     32 uuu.uuuuuuuuuuuuuuuuuuuuuuuuuuuuuuuuuuuuuuuuuuuuuuuuu.uu
(PID.TID 0000.0001) //     31 ttt.ttttttttttttttttttttttttttttttttttttttttttttttttt.tt
(PID.TID 0000.0001) //     30 ttt.ttttttttttttttttttttttttttttttttttttttttttttttttt.tt
(PID.TID 0000.0001) //     29 sss.sssssssssssssssssssssssssssssssssssssssssssssssss.ss
(PID.TID 0000.0001) //     28 rrr.rrrrrrrrrrrrrrrrrrrrrrrrrrrrrrrrrrrrrrrrrrrrrrrrr.rr
(PID.TID 0000.0001) //     27 rrr.rrrrrrrrrrrrrrrrrrrrrrrrrrrrrrrrrrrrrrrrrrrrrrrrr.rr
(PID.TID 0000.0001) //     26 qqq.qqqqqqqqqqqqqqqqqqqqqqqqqqqqqqqqqqqqqqqqqqqqqqqqq.qq
(PID.TID 0000.0001) //     25 ppp.ppppppppppppppppppppppppppppppppppppppppppppppppp.pp
(PID.TID 0000.0001) //     24 ooo.ooooooooooooooooooooooooooooooooooooooooooooooooo.oo
(PID.TID 0000.0001) //     23 ooo.ooooooooooooooooooooooooooooooooooooooooooooooooo.oo
(PID.TID 0000.0001) //     22 nnn.nnnnnnnnnnnnnnnnnnnnnnnnnnnnnnnnnnnnnnnnnnnnnnnnn.nn
(PID.TID 0000.0001) //     21 mmm.mmmmmmmmmmmmmmmmmmmmmmmmmmmmmmmmmmmmmmmmmmmmmmmmm.mm
(PID.TID 0000.0001) //     20 mmm.mmmmmmmmmmmmmmmmmmmmmmmmmmmmmmmmmmmmmmmmmmmmmmmmm.mm
(PID.TID 0000.0001) //     19 lll.lllllllllllllllllllllllllllllllllllllllllllllllll.ll
(PID.TID 0000.0001) //     18 kkk.kkkkkkkkkkkkkkkkkkkkkkkkkkkkkkkkkkkkkkkkkkkkkkkkk.kk
(PID.TID 0000.0001) //     17 kkk.kkkkkkkkkkkkkkkkkkkkkkkkkkkkkkkkkkkkkkkkkkkkkkkkk.kk
(PID.TID 0000.0001) //     16 jjj.jjjjjjjjjjjjjjjjjjjjjjjjjjjjjjjjjjjjjjjjjjjjjjjjj.jj
(PID.TID 0000.0001) //     15 iii.iiiiiiiiiiiiiiiiiiiiiiiiiiiiiiiiiiiiiiiiiiiiiiiii.ii
(PID.TID 0000.0001) //     14 hhh.hhhhhhhhhhhhhhhhhhhhhhhhhhhhhhhhhhhhhhhhhhhhhhhhh.hh
(PID.TID 0000.0001) //     13 hhh.hhhhhhhhhhhhhhhhhhhhhhhhhhhhhhhhhhhhhhhhhhhhhhhhh.hh
(PID.TID 0000.0001) //     12 ggg.ggggggggggggggggggggggggggggggggggggggggggggggggg.gg
(PID.TID 0000.0001) //     11 fff.fffffffffffffffffffffffffffffffffffffffffffffffff.ff
(PID.TID 0000.0001) //     10 fff.fffffffffffffffffffffffffffffffffffffffffffffffff.ff
(PID.TID 0000.0001) //      9 eee.eeeeeeeeeeeeeeeeeeeeeeeeeeeeeeeeeeeeeeeeeeeeeeeee.ee
(PID.TID 0000.0001) //      8 ddd.ddddddddddddddddddddddddddddddddddddddddddddddddd.dd
(PID.TID 0000.0001) //      7 ddd.ddddddddddddddddddddddddddddddddddddddddddddddddd.dd
(PID.TID 0000.0001) //      6 ccc.ccccccccccccccccccccccccccccccccccccccccccccccccc.cc
(PID.TID 0000.0001) //      5 bbb.bbbbbbbbbbbbbbbbbbbbbbbbbbbbbbbbbbbbbbbbbbbbbbbbb.bb
(PID.TID 0000.0001) //      4 aaa.aaaaaaaaaaaaaaaaaaaaaaaaaaaaaaaaaaaaaaaaaaaaaaaaa.aa
(PID.TID 0000.0001) //      3 aaa.aaaaaaaaaaaaaaaaaaaaaaaaaaaaaaaaaaaaaaaaaaaaaaaaa.aa
(PID.TID 0000.0001) //      2 ---.-------------------------------------------------.--
(PID.TID 0000.0001) //      1 ........................................................
(PID.TID 0000.0001) //      0 ........................................................
(PID.TID 0000.0001) //     -1 ........................................................
(PID.TID 0000.0001) //     -2 ........................................................
(PID.TID 0000.0001) // =======================================================
(PID.TID 0000.0001) // END OF FIELD                                          =
(PID.TID 0000.0001) // =======================================================
(PID.TID 0000.0001) 
(PID.TID 0000.0001) // =======================================================
(PID.TID 0000.0001) // Field hFacC at iteration          0
(PID.TID 0000.0001) // CMIN =          1.000000000000000E+00
(PID.TID 0000.0001) // CMAX =          1.000000000000000E+00
(PID.TID 0000.0001) // CINT =          0.000000000000000E+00
(PID.TID 0000.0001) // SYMBOLS (CMIN->CMAX): -abcdefghijklmnopqrstuvwxyz+
(PID.TID 0000.0001) //                  0.0: .
(PID.TID 0000.0001) // RANGE I (Lo:Hi:Step):(    -2:    53:     1)
(PID.TID 0000.0001) // RANGE J (Lo:Hi:Step):(   103:    -2:    -1)
(PID.TID 0000.0001) // RANGE K (Lo:Hi:Step):(   1:   1:   1)
(PID.TID 0000.0001) // =======================================================
(PID.TID 0000.0001) // =======================================================
(PID.TID 0000.0001) // END OF FIELD                                          =
(PID.TID 0000.0001) // =======================================================
(PID.TID 0000.0001) 
(PID.TID 0000.0001) // =======================================================
(PID.TID 0000.0001) // Field hFacW at iteration          0
(PID.TID 0000.0001) // CMIN =          1.000000000000000E+00
(PID.TID 0000.0001) // CMAX =          1.000000000000000E+00
(PID.TID 0000.0001) // CINT =          0.000000000000000E+00
(PID.TID 0000.0001) // SYMBOLS (CMIN->CMAX): -abcdefghijklmnopqrstuvwxyz+
(PID.TID 0000.0001) //                  0.0: .
(PID.TID 0000.0001) // RANGE I (Lo:Hi:Step):(    -2:    53:     1)
(PID.TID 0000.0001) // RANGE J (Lo:Hi:Step):(   103:    -2:    -1)
(PID.TID 0000.0001) // RANGE K (Lo:Hi:Step):(   1:   1:   1)
(PID.TID 0000.0001) // =======================================================
(PID.TID 0000.0001) // =======================================================
(PID.TID 0000.0001) // END OF FIELD                                          =
(PID.TID 0000.0001) // =======================================================
(PID.TID 0000.0001) 
(PID.TID 0000.0001) // =======================================================
(PID.TID 0000.0001) // Field hFacS at iteration          0
(PID.TID 0000.0001) // CMIN =          1.000000000000000E+00
(PID.TID 0000.0001) // CMAX =          1.000000000000000E+00
(PID.TID 0000.0001) // CINT =          0.000000000000000E+00
(PID.TID 0000.0001) // SYMBOLS (CMIN->CMAX): -abcdefghijklmnopqrstuvwxyz+
(PID.TID 0000.0001) //                  0.0: .
(PID.TID 0000.0001) // RANGE I (Lo:Hi:Step):(    -2:    53:     1)
(PID.TID 0000.0001) // RANGE J (Lo:Hi:Step):(   103:    -2:    -1)
(PID.TID 0000.0001) // RANGE K (Lo:Hi:Step):(   1:   1:   1)
(PID.TID 0000.0001) // =======================================================
(PID.TID 0000.0001) // =======================================================
(PID.TID 0000.0001) // END OF FIELD                                          =
(PID.TID 0000.0001) // =======================================================
(PID.TID 0000.0001) 
(PID.TID 0000.0001) GAD_INIT_FIXED: GAD_OlMinSize=  1  0  1
(PID.TID 0000.0001) 
(PID.TID 0000.0001) // ===================================
(PID.TID 0000.0001) // GAD parameters :
(PID.TID 0000.0001) // ===================================
(PID.TID 0000.0001) tempAdvScheme =   /* Temp. Horiz.Advection scheme selector */
(PID.TID 0000.0001)                       2
(PID.TID 0000.0001)     ;
(PID.TID 0000.0001) tempVertAdvScheme =   /* Temp. Vert. Advection scheme selector */
(PID.TID 0000.0001)                       2
(PID.TID 0000.0001)     ;
(PID.TID 0000.0001) tempMultiDimAdvec =   /* use Muti-Dim Advec method for Temp */
(PID.TID 0000.0001)                   F
(PID.TID 0000.0001)     ;
(PID.TID 0000.0001) tempSOM_Advection = /* use 2nd Order Moment Advection for Temp */
(PID.TID 0000.0001)                   F
(PID.TID 0000.0001)     ;
(PID.TID 0000.0001) AdamsBashforthGt = /* apply Adams-Bashforth extrapolation on Gt */
(PID.TID 0000.0001)                   T
(PID.TID 0000.0001)     ;
(PID.TID 0000.0001) AdamsBashforth_T = /* apply Adams-Bashforth extrapolation on Temp */
(PID.TID 0000.0001)                   F
(PID.TID 0000.0001)     ;
(PID.TID 0000.0001) saltAdvScheme =   /* Salt. Horiz.advection scheme selector */
(PID.TID 0000.0001)                       2
(PID.TID 0000.0001)     ;
(PID.TID 0000.0001) saltVertAdvScheme =   /* Salt. Vert. Advection scheme selector */
(PID.TID 0000.0001)                       2
(PID.TID 0000.0001)     ;
(PID.TID 0000.0001) saltMultiDimAdvec =   /* use Muti-Dim Advec method for Salt */
(PID.TID 0000.0001)                   F
(PID.TID 0000.0001)     ;
(PID.TID 0000.0001) saltSOM_Advection = /* use 2nd Order Moment Advection for Salt */
(PID.TID 0000.0001)                   F
(PID.TID 0000.0001)     ;
(PID.TID 0000.0001) AdamsBashforthGs = /* apply Adams-Bashforth extrapolation on Gs */
(PID.TID 0000.0001)                   T
(PID.TID 0000.0001)     ;
(PID.TID 0000.0001) AdamsBashforth_S = /* apply Adams-Bashforth extrapolation on Salt */
(PID.TID 0000.0001)                   F
(PID.TID 0000.0001)     ;
(PID.TID 0000.0001) // ===================================
(PID.TID 0000.0001)  MDS_READ_FIELD: opening global file: frontcircum.xuyun
(PID.TID 0000.0001)  MDS_READ_FIELD: opening global file: frontdepth.xuyun
(PID.TID 0000.0001) ------------------------------------------------------------
(PID.TID 0000.0001) DIAGNOSTICS_SET_LEVELS: done
(PID.TID 0000.0001)  Total Nb of available Diagnostics: ndiagt=   192
(PID.TID 0000.0001)  write list of available Diagnostics to file: available_diagnostics.log
(PID.TID 0000.0001) SETDIAG: Allocate  1 x  1 Levels for Diagnostic #   185 SHIfwFlx
(PID.TID 0000.0001) SETDIAG: Allocate  1 x  1 Levels for Diagnostic #   186 SHIhtFlx
(PID.TID 0000.0001) SETDIAG: Allocate 30 x  1 Levels for Diagnostic #   191 ICFfwFlx
(PID.TID 0000.0001) SETDIAG: Allocate 30 x  1 Levels for Diagnostic #   192 ICFhtFlx
(PID.TID 0000.0001)   space allocated for all diagnostics:      62 levels
(PID.TID 0000.0001) DIAGNOSTICS_SET_POINTERS: Set levels for Outp.Stream: shelficeDiag
(PID.TID 0000.0001)  Levels:       1.
(PID.TID 0000.0001) DIAGNOSTICS_SET_POINTERS: Set levels for Outp.Stream: icefrontDiag
(PID.TID 0000.0001)  Levels:       1.   2.   3.   4.   5.   6.   7.   8.   9.  10.  11.  12.  13.  14.  15.  16.  17.  18.  19.  20.
(PID.TID 0000.0001)  Levels:      21.  22.  23.  24.  25.  26.  27.  28.  29.  30.
(PID.TID 0000.0001) DIAGNOSTICS_SET_POINTERS: done
(PID.TID 0000.0001) ------------------------------------------------------------
(PID.TID 0000.0001) DIAGSTATS_SET_REGIONS: define no region
(PID.TID 0000.0001) ------------------------------------------------------------
(PID.TID 0000.0001)   space allocated for all stats-diags:       0 levels
(PID.TID 0000.0001) DIAGSTATS_SET_POINTERS: done
(PID.TID 0000.0001) ------------------------------------------------------------
(PID.TID 0000.0001) %MON fCori_max                    =  -1.3709057042516E-04
(PID.TID 0000.0001) %MON fCori_min                    =  -1.4360464034757E-04
(PID.TID 0000.0001) %MON fCori_mean                   =  -1.4069429304699E-04
(PID.TID 0000.0001) %MON fCori_sd                     =   1.9069739624987E-06
(PID.TID 0000.0001) %MON fCoriG_max                   =  -1.3713394327439E-04
(PID.TID 0000.0001) %MON fCoriG_min                   =  -1.4362679550910E-04
(PID.TID 0000.0001) %MON fCoriG_mean                  =  -1.4072713798624E-04
(PID.TID 0000.0001) %MON fCoriG_sd                    =   1.9008093726821E-06
(PID.TID 0000.0001) %MON fCoriCos_max                 =   4.9761447480159E-05
(PID.TID 0000.0001) %MON fCoriCos_min                 =   2.5450607565678E-05
(PID.TID 0000.0001) %MON fCoriCos_mean                =   3.7698922201606E-05
(PID.TID 0000.0001) %MON fCoriCos_sd                  =   7.0920218535054E-06
(PID.TID 0000.0001) INI_CG2D: CG2D normalisation factor =  8.6553958581495505E-04
(PID.TID 0000.0001) 
(PID.TID 0000.0001) // =======================================================
(PID.TID 0000.0001) // Model configuration
(PID.TID 0000.0001) // =======================================================
(PID.TID 0000.0001) //
(PID.TID 0000.0001) // "Physical" paramters ( PARM01 in namelist )
(PID.TID 0000.0001) //
(PID.TID 0000.0001) buoyancyRelation = /* Type of relation to get Buoyancy */
(PID.TID 0000.0001)               'OCEANIC'
(PID.TID 0000.0001)     ;
(PID.TID 0000.0001) fluidIsAir   =  /* fluid major constituent is Air */
(PID.TID 0000.0001)                   F
(PID.TID 0000.0001)     ;
(PID.TID 0000.0001) fluidIsWater =  /* fluid major constituent is Water */
(PID.TID 0000.0001)                   T
(PID.TID 0000.0001)     ;
(PID.TID 0000.0001) usingPCoords =  /* use p (or p*) vertical coordinate */
(PID.TID 0000.0001)                   F
(PID.TID 0000.0001)     ;
(PID.TID 0000.0001) usingZCoords =  /* use z (or z*) vertical coordinate */
(PID.TID 0000.0001)                   T
(PID.TID 0000.0001)     ;
(PID.TID 0000.0001) tRef =   /* Reference temperature profile ( oC or K ) */
(PID.TID 0000.0001)    30 @ -1.900000000000000E+00              /* K =  1: 30 */
(PID.TID 0000.0001)     ;
(PID.TID 0000.0001) sRef =   /* Reference salinity profile ( psu ) */
(PID.TID 0000.0001)    30 @  3.440000000000000E+01              /* K =  1: 30 */
(PID.TID 0000.0001)     ;
(PID.TID 0000.0001) viscAh  =   /* Lateral eddy viscosity ( m^2/s ) */
(PID.TID 0000.0001)                 6.000000000000000E+02
(PID.TID 0000.0001)     ;
(PID.TID 0000.0001) viscAhMax = /* Maximum lateral eddy viscosity ( m^2/s ) */
(PID.TID 0000.0001)                 1.000000000000000E+21
(PID.TID 0000.0001)     ;
(PID.TID 0000.0001) viscAhGrid = /* Grid dependent lateral eddy viscosity ( non-dim. ) */
(PID.TID 0000.0001)                 0.000000000000000E+00
(PID.TID 0000.0001)     ;
(PID.TID 0000.0001) useFullLeith = /* Use Full Form of Leith Viscosity on/off flag*/
(PID.TID 0000.0001)                   F
(PID.TID 0000.0001)     ;
(PID.TID 0000.0001) useStrainTensionVisc= /* Use StrainTension Form of Viscous Operator flag*/
(PID.TID 0000.0001)                   F
(PID.TID 0000.0001)     ;
(PID.TID 0000.0001) useAreaViscLength = /* Use area for visc length instead of geom. mean*/
(PID.TID 0000.0001)                   F
(PID.TID 0000.0001)     ;
(PID.TID 0000.0001) viscC2leith = /* Leith harmonic visc. factor (on grad(vort),non-dim.) */
(PID.TID 0000.0001)                 0.000000000000000E+00
(PID.TID 0000.0001)     ;
(PID.TID 0000.0001) viscC2leithD = /* Leith harmonic viscosity factor (on grad(div),non-dim.)*/
(PID.TID 0000.0001)                 0.000000000000000E+00
(PID.TID 0000.0001)     ;
(PID.TID 0000.0001) viscC2smag = /* Smagorinsky harmonic viscosity factor (non-dim.) */
(PID.TID 0000.0001)                 0.000000000000000E+00
(PID.TID 0000.0001)     ;
(PID.TID 0000.0001) viscA4  =   /* Lateral biharmonic viscosity ( m^4/s ) */
(PID.TID 0000.0001)                 0.000000000000000E+00
(PID.TID 0000.0001)     ;
(PID.TID 0000.0001) viscA4Max = /* Maximum biharmonic viscosity ( m^2/s ) */
(PID.TID 0000.0001)                 1.000000000000000E+21
(PID.TID 0000.0001)     ;
(PID.TID 0000.0001) viscA4Grid = /* Grid dependent biharmonic viscosity ( non-dim. ) */
(PID.TID 0000.0001)                 0.000000000000000E+00
(PID.TID 0000.0001)     ;
(PID.TID 0000.0001) viscC4leith = /* Leith biharm viscosity factor (on grad(vort), non-dim.)*/
(PID.TID 0000.0001)                 0.000000000000000E+00
(PID.TID 0000.0001)     ;
(PID.TID 0000.0001) viscC4leithD = /* Leith biharm viscosity factor (on grad(div), non-dim.) */
(PID.TID 0000.0001)                 0.000000000000000E+00
(PID.TID 0000.0001)     ;
(PID.TID 0000.0001) viscC4Smag = /* Smagorinsky biharm viscosity factor (non-dim) */
(PID.TID 0000.0001)                 0.000000000000000E+00
(PID.TID 0000.0001)     ;
(PID.TID 0000.0001) no_slip_sides =  /* Viscous BCs: No-slip sides */
(PID.TID 0000.0001)                   F
(PID.TID 0000.0001)     ;
(PID.TID 0000.0001) sideDragFactor = /* side-drag scaling factor (non-dim) */
(PID.TID 0000.0001)                 2.000000000000000E+00
(PID.TID 0000.0001)     ;
(PID.TID 0000.0001) viscArNr = /* vertical profile of vertical viscosity ( m^2/s )*/
(PID.TID 0000.0001)    30 @  1.000000000000000E-03              /* K =  1: 30 */
(PID.TID 0000.0001)     ;
(PID.TID 0000.0001) no_slip_bottom =  /* Viscous BCs: No-slip bottom */
(PID.TID 0000.0001)                   F
(PID.TID 0000.0001)     ;
(PID.TID 0000.0001) bottomDragLinear = /* linear bottom-drag coefficient ( m/s ) */
(PID.TID 0000.0001)                 0.000000000000000E+00
(PID.TID 0000.0001)     ;
(PID.TID 0000.0001) bottomDragQuadratic = /* quadratic bottom-drag coefficient (-) */
(PID.TID 0000.0001)                 2.500000000000000E-03
(PID.TID 0000.0001)     ;
(PID.TID 0000.0001) diffKhT =   /* Laplacian diffusion of heat laterally ( m^2/s ) */
(PID.TID 0000.0001)                 1.000000000000000E+02
(PID.TID 0000.0001)     ;
(PID.TID 0000.0001) diffK4T =   /* Biharmonic diffusion of heat laterally ( m^4/s ) */
(PID.TID 0000.0001)                 0.000000000000000E+00
(PID.TID 0000.0001)     ;
(PID.TID 0000.0001) diffKhS =   /* Laplacian diffusion of salt laterally ( m^2/s ) */
(PID.TID 0000.0001)                 1.000000000000000E+02
(PID.TID 0000.0001)     ;
(PID.TID 0000.0001) diffK4S =   /* Biharmonic diffusion of salt laterally ( m^4/s ) */
(PID.TID 0000.0001)                 0.000000000000000E+00
(PID.TID 0000.0001)     ;
(PID.TID 0000.0001) diffKrNrT = /* vertical profile of vertical diffusion of Temp ( m^2/s )*/
(PID.TID 0000.0001)    30 @  5.000000000000000E-05              /* K =  1: 30 */
(PID.TID 0000.0001)     ;
(PID.TID 0000.0001) diffKrNrS = /* vertical profile of vertical diffusion of Salt ( m^2/s )*/
(PID.TID 0000.0001)    30 @  5.000000000000000E-05              /* K =  1: 30 */
(PID.TID 0000.0001)     ;
(PID.TID 0000.0001) diffKrBL79surf = /* Surface diffusion for Bryan and Lewis 79 ( m^2/s ) */
(PID.TID 0000.0001)                 0.000000000000000E+00
(PID.TID 0000.0001)     ;
(PID.TID 0000.0001) diffKrBL79deep = /* Deep diffusion for Bryan and Lewis 1979 ( m^2/s ) */
(PID.TID 0000.0001)                 0.000000000000000E+00
(PID.TID 0000.0001)     ;
(PID.TID 0000.0001) diffKrBL79scl = /* Depth scale for Bryan and Lewis 1979 ( m ) */
(PID.TID 0000.0001)                 2.000000000000000E+02
(PID.TID 0000.0001)     ;
(PID.TID 0000.0001) diffKrBL79Ho = /* Turning depth for Bryan and Lewis 1979 ( m ) */
(PID.TID 0000.0001)                -2.000000000000000E+03
(PID.TID 0000.0001)     ;
(PID.TID 0000.0001) ivdc_kappa = /* Implicit Vertical Diffusivity for Convection ( m^2/s) */
(PID.TID 0000.0001)                 0.000000000000000E+00
(PID.TID 0000.0001)     ;
(PID.TID 0000.0001) hMixCriteria=  /* Criteria for mixed-layer diagnostic */
(PID.TID 0000.0001)                -8.000000000000000E-01
(PID.TID 0000.0001)     ;
(PID.TID 0000.0001) dRhoSmall =  /* Parameter for mixed-layer diagnostic */
(PID.TID 0000.0001)                 1.000000000000000E-06
(PID.TID 0000.0001)     ;
(PID.TID 0000.0001) hMixSmooth=  /* Smoothing parameter for mixed-layer diagnostic */
(PID.TID 0000.0001)                 0.000000000000000E+00
(PID.TID 0000.0001)     ;
(PID.TID 0000.0001) eosType =  /* Type of Equation of State */
(PID.TID 0000.0001)               'JMD95Z'
(PID.TID 0000.0001)     ;
(PID.TID 0000.0001) tAlpha =   /* Linear EOS thermal expansion coefficient ( 1/oC ) */
(PID.TID 0000.0001)                 1.234567000000000E+05
(PID.TID 0000.0001)     ;
(PID.TID 0000.0001) sBeta =   /* Linear EOS haline contraction coefficient ( 1/psu ) */
(PID.TID 0000.0001)                 1.234567000000000E+05
(PID.TID 0000.0001)     ;
(PID.TID 0000.0001) rhonil =   /* Reference density ( kg/m^3 ) */
(PID.TID 0000.0001)                 1.030000000000000E+03
(PID.TID 0000.0001)     ;
(PID.TID 0000.0001) rhoConst =   /* Reference density ( kg/m^3 ) */
(PID.TID 0000.0001)                 1.030000000000000E+03
(PID.TID 0000.0001)     ;
(PID.TID 0000.0001) rhoFacC = /* normalized Reference density @ cell-Center (-) */
(PID.TID 0000.0001)    30 @  1.000000000000000E+00              /* K =  1: 30 */
(PID.TID 0000.0001)     ;
(PID.TID 0000.0001) rhoFacF = /* normalized Reference density @ W-Interface (-) */
(PID.TID 0000.0001)    31 @  1.000000000000000E+00              /* K =  1: 31 */
(PID.TID 0000.0001)     ;
(PID.TID 0000.0001) rhoConstFresh =   /* Reference density ( kg/m^3 ) */
(PID.TID 0000.0001)                 1.030000000000000E+03
(PID.TID 0000.0001)     ;
(PID.TID 0000.0001) gravity =   /* Gravitational acceleration ( m/s^2 ) */
(PID.TID 0000.0001)                 9.810000000000000E+00
(PID.TID 0000.0001)     ;
(PID.TID 0000.0001) gBaro =   /* Barotropic gravity ( m/s^2 ) */
(PID.TID 0000.0001)                 9.810000000000000E+00
(PID.TID 0000.0001)     ;
(PID.TID 0000.0001) rotationPeriod =   /* Rotation Period ( s ) */
(PID.TID 0000.0001)                 8.616400000000000E+04
(PID.TID 0000.0001)     ;
(PID.TID 0000.0001) omega =   /* Angular velocity ( rad/s ) */
(PID.TID 0000.0001)                 7.292123516990375E-05
(PID.TID 0000.0001)     ;
(PID.TID 0000.0001) f0 =   /* Reference coriolis parameter ( 1/s ) */
(PID.TID 0000.0001)                 1.000000000000000E-04
(PID.TID 0000.0001)     ;
(PID.TID 0000.0001) beta =   /* Beta ( 1/(m.s) ) */
(PID.TID 0000.0001)                 9.999999999999999E-12
(PID.TID 0000.0001)     ;
(PID.TID 0000.0001) fPrime =   /* Second coriolis parameter ( 1/s ) */
(PID.TID 0000.0001)                 0.000000000000000E+00
(PID.TID 0000.0001)     ;
(PID.TID 0000.0001) rigidLid =   /* Rigid lid on/off flag */
(PID.TID 0000.0001)                   F
(PID.TID 0000.0001)     ;
(PID.TID 0000.0001) implicitFreeSurface =   /* Implicit free surface on/off flag */
(PID.TID 0000.0001)                   T
(PID.TID 0000.0001)     ;
(PID.TID 0000.0001) freeSurfFac =   /* Implicit free surface factor */
(PID.TID 0000.0001)                 1.000000000000000E+00
(PID.TID 0000.0001)     ;
(PID.TID 0000.0001) implicSurfPress =  /* Surface Pressure implicit factor (0-1)*/
(PID.TID 0000.0001)                 1.000000000000000E+00
(PID.TID 0000.0001)     ;
(PID.TID 0000.0001) implicDiv2Dflow =  /* Barot. Flow Div. implicit factor (0-1)*/
(PID.TID 0000.0001)                 1.000000000000000E+00
(PID.TID 0000.0001)     ;
(PID.TID 0000.0001) exactConserv =  /* Exact Volume Conservation on/off flag*/
(PID.TID 0000.0001)                   T
(PID.TID 0000.0001)     ;
(PID.TID 0000.0001) linFSConserveTr = /* Tracer correction for Lin Free Surface on/off flag*/
(PID.TID 0000.0001)                   F
(PID.TID 0000.0001)     ;
(PID.TID 0000.0001) uniformLin_PhiSurf = /* use uniform Bo_surf on/off flag*/
(PID.TID 0000.0001)                   T
(PID.TID 0000.0001)     ;
(PID.TID 0000.0001) hFacMin =   /* minimum partial cell factor (hFac) */
(PID.TID 0000.0001)                 5.000000000000000E-02
(PID.TID 0000.0001)     ;
(PID.TID 0000.0001) hFacMinDr = /* minimum partial cell thickness ( m) */
(PID.TID 0000.0001)                 5.000000000000000E-02
(PID.TID 0000.0001)     ;
(PID.TID 0000.0001) nonlinFreeSurf = /* Non-linear Free Surf. options (-1,0,1,2,3)*/
(PID.TID 0000.0001)                       0
(PID.TID 0000.0001)      -1,0= Off ; 1,2,3= On, 2=+rescale gU,gV, 3=+update cg2d solv.
(PID.TID 0000.0001)     ;
(PID.TID 0000.0001) hFacInf =   /* lower threshold for hFac (nonlinFreeSurf only)*/
(PID.TID 0000.0001)                 2.000000000000000E-01
(PID.TID 0000.0001)     ;
(PID.TID 0000.0001) hFacSup =   /* upper threshold for hFac (nonlinFreeSurf only)*/
(PID.TID 0000.0001)                 2.000000000000000E+00
(PID.TID 0000.0001)     ;
(PID.TID 0000.0001) select_rStar = /* r* Vertical coord. options (=0 r coord.; >0 uses r*)*/
(PID.TID 0000.0001)                       0
(PID.TID 0000.0001)     ;
(PID.TID 0000.0001) selectAddFluid = /* option for mass source/sink of fluid (=0: off) */
(PID.TID 0000.0001)                       0
(PID.TID 0000.0001)     ;
(PID.TID 0000.0001) useRealFreshWaterFlux = /* Real Fresh Water Flux on/off flag*/
(PID.TID 0000.0001)                   F
(PID.TID 0000.0001)     ;
(PID.TID 0000.0001) temp_EvPrRn = /* Temp. of Evap/Prec/R (UNSET=use local T)(oC)*/
(PID.TID 0000.0001)                 1.234567000000000E+05
(PID.TID 0000.0001)     ;
(PID.TID 0000.0001) salt_EvPrRn = /* Salin. of Evap/Prec/R (UNSET=use local S)(psu)*/
(PID.TID 0000.0001)                 0.000000000000000E+00
(PID.TID 0000.0001)     ;
(PID.TID 0000.0001) temp_addMass = /* Temp. of addMass array (UNSET=use local T)(oC)*/
(PID.TID 0000.0001)                 1.234567000000000E+05
(PID.TID 0000.0001)     ;
(PID.TID 0000.0001) salt_addMass = /* Salin. of addMass array (UNSET=use local S)(psu)*/
(PID.TID 0000.0001)                 0.000000000000000E+00
(PID.TID 0000.0001)     ;
(PID.TID 0000.0001) convertFW2Salt = /* convert F.W. Flux to Salt Flux (-1=use local S)(psu)*/
(PID.TID 0000.0001)                 3.340000000000000E+01
(PID.TID 0000.0001)     ;
(PID.TID 0000.0001) use3Dsolver = /* use 3-D pressure solver on/off flag */
(PID.TID 0000.0001)                   F
(PID.TID 0000.0001)     ;
(PID.TID 0000.0001) nonHydrostatic =  /* Non-Hydrostatic on/off flag */
(PID.TID 0000.0001)                   F
(PID.TID 0000.0001)     ;
(PID.TID 0000.0001) nh_Am2 = /* Non-Hydrostatic terms scaling factor */
(PID.TID 0000.0001)                 1.000000000000000E+00
(PID.TID 0000.0001)     ;
(PID.TID 0000.0001) implicitNHPress = /* Non-Hyd Pressure implicit factor (0-1)*/
(PID.TID 0000.0001)                 1.000000000000000E+00
(PID.TID 0000.0001)     ;
(PID.TID 0000.0001) selectNHfreeSurf = /* Non-Hyd (free-)Surface option */
(PID.TID 0000.0001)                       0
(PID.TID 0000.0001)     ;
(PID.TID 0000.0001) quasiHydrostatic = /* Quasi-Hydrostatic on/off flag */
(PID.TID 0000.0001)                   F
(PID.TID 0000.0001)     ;
(PID.TID 0000.0001) momStepping =  /* Momentum equation on/off flag */
(PID.TID 0000.0001)                   T
(PID.TID 0000.0001)     ;
(PID.TID 0000.0001) vectorInvariantMomentum= /* Vector-Invariant Momentum on/off */
(PID.TID 0000.0001)                   F
(PID.TID 0000.0001)     ;
(PID.TID 0000.0001) momAdvection =  /* Momentum advection on/off flag */
(PID.TID 0000.0001)                   T
(PID.TID 0000.0001)     ;
(PID.TID 0000.0001) momViscosity =  /* Momentum viscosity on/off flag */
(PID.TID 0000.0001)                   T
(PID.TID 0000.0001)     ;
(PID.TID 0000.0001) momImplVertAdv= /* Momentum implicit vert. advection on/off*/
(PID.TID 0000.0001)                   F
(PID.TID 0000.0001)     ;
(PID.TID 0000.0001) implicitViscosity = /* Implicit viscosity on/off flag */
(PID.TID 0000.0001)                   F
(PID.TID 0000.0001)     ;
(PID.TID 0000.0001) metricTerms =  /* metric-Terms on/off flag */
(PID.TID 0000.0001)                   T
(PID.TID 0000.0001)     ;
(PID.TID 0000.0001) useNHMTerms = /* Non-Hydrostatic Metric-Terms on/off */
(PID.TID 0000.0001)                   F
(PID.TID 0000.0001)     ;
(PID.TID 0000.0001) selectCoriMap = /* Coriolis Map options (0,1,2,3)*/
(PID.TID 0000.0001)                       2
(PID.TID 0000.0001)     0= f-Plane ; 1= Beta-Plane ; 2= Spherical ; 3= read from file
(PID.TID 0000.0001)     ;
(PID.TID 0000.0001) use3dCoriolis = /* 3-D Coriolis on/off flag */
(PID.TID 0000.0001)                   F
(PID.TID 0000.0001)     ;
(PID.TID 0000.0001) useCoriolis =  /* Coriolis on/off flag */
(PID.TID 0000.0001)                   T
(PID.TID 0000.0001)     ;
(PID.TID 0000.0001) useCDscheme =  /* CD scheme on/off flag */
(PID.TID 0000.0001)                   T
(PID.TID 0000.0001)     ;
(PID.TID 0000.0001) useEnergyConservingCoriolis= /* Flx-Form Coriolis scheme flag */
(PID.TID 0000.0001)                   F
(PID.TID 0000.0001)     ;
(PID.TID 0000.0001) useJamartWetPoints= /* Coriolis WetPoints method flag */
(PID.TID 0000.0001)                   F
(PID.TID 0000.0001)     ;
(PID.TID 0000.0001) useJamartMomAdv= /* V.I Non-linear terms Jamart flag */
(PID.TID 0000.0001)                   F
(PID.TID 0000.0001)     ;
(PID.TID 0000.0001) useAbsVorticity= /* V.I Works with f+zeta in Coriolis */
(PID.TID 0000.0001)                   F
(PID.TID 0000.0001)     ;
(PID.TID 0000.0001) selectVortScheme= /* V.I Scheme selector for Vorticity-Term */
(PID.TID 0000.0001)               123456789
(PID.TID 0000.0001)    = 0 : enstrophy (Shallow-Water Eq.) conserving scheme by Sadourny, JAS 75
(PID.TID 0000.0001)    = 1 : same as 0 with modified hFac
(PID.TID 0000.0001)    = 2 : energy conserving scheme (used by Sadourny in JAS 75 paper)
(PID.TID 0000.0001)    = 3 : energy (general) and enstrophy (2D, nonDiv.) conserving scheme
(PID.TID 0000.0001)          from Sadourny (Burridge & Haseler, ECMWF Rep.4, 1977)
(PID.TID 0000.0001)     ;
(PID.TID 0000.0001) upwindVorticity= /* V.I Upwind bias vorticity flag */
(PID.TID 0000.0001)                   F
(PID.TID 0000.0001)     ;
(PID.TID 0000.0001) highOrderVorticity= /* V.I High order vort. advect. flag */
(PID.TID 0000.0001)                   F
(PID.TID 0000.0001)     ;
(PID.TID 0000.0001) upwindShear= /* V.I Upwind vertical Shear advection flag */
(PID.TID 0000.0001)                   F
(PID.TID 0000.0001)     ;
(PID.TID 0000.0001) selectKEscheme= /* V.I Kinetic Energy scheme selector */
(PID.TID 0000.0001)                       0
(PID.TID 0000.0001)     ;
(PID.TID 0000.0001) momForcing =  /* Momentum forcing on/off flag */
(PID.TID 0000.0001)                   T
(PID.TID 0000.0001)     ;
(PID.TID 0000.0001) momPressureForcing =  /* Momentum pressure term on/off flag */
(PID.TID 0000.0001)                   T
(PID.TID 0000.0001)     ;
(PID.TID 0000.0001) implicitIntGravWave= /* Implicit Internal Gravity Wave flag */
(PID.TID 0000.0001)                   F
(PID.TID 0000.0001)     ;
(PID.TID 0000.0001) staggerTimeStep =   /* Stagger time stepping on/off flag */
(PID.TID 0000.0001)                   F
(PID.TID 0000.0001)     ;
(PID.TID 0000.0001) multiDimAdvection =   /* enable/disable Multi-Dim Advection */
(PID.TID 0000.0001)                   T
(PID.TID 0000.0001)     ;
(PID.TID 0000.0001) useMultiDimAdvec =   /* Multi-Dim Advection is/is-not used */
(PID.TID 0000.0001)                   F
(PID.TID 0000.0001)     ;
(PID.TID 0000.0001) implicitDiffusion = /* Implicit Diffusion on/off flag */
(PID.TID 0000.0001)                   F
(PID.TID 0000.0001)     ;
(PID.TID 0000.0001) tempStepping =  /* Temperature equation on/off flag */
(PID.TID 0000.0001)                   T
(PID.TID 0000.0001)     ;
(PID.TID 0000.0001) tempAdvection=  /* Temperature advection on/off flag */
(PID.TID 0000.0001)                   T
(PID.TID 0000.0001)     ;
(PID.TID 0000.0001) tempImplVertAdv = /* Temp. implicit vert. advection on/off */
(PID.TID 0000.0001)                   F
(PID.TID 0000.0001)     ;
(PID.TID 0000.0001) tempForcing  =  /* Temperature forcing on/off flag */
(PID.TID 0000.0001)                   T
(PID.TID 0000.0001)     ;
(PID.TID 0000.0001) tempIsActiveTr = /* Temp. is a dynamically Active Tracer */
(PID.TID 0000.0001)                   T
(PID.TID 0000.0001)     ;
(PID.TID 0000.0001) saltStepping =  /* Salinity equation on/off flag */
(PID.TID 0000.0001)                   T
(PID.TID 0000.0001)     ;
(PID.TID 0000.0001) saltAdvection=  /* Salinity advection on/off flag */
(PID.TID 0000.0001)                   T
(PID.TID 0000.0001)     ;
(PID.TID 0000.0001) saltImplVertAdv = /* Sali. implicit vert. advection on/off */
(PID.TID 0000.0001)                   F
(PID.TID 0000.0001)     ;
(PID.TID 0000.0001) saltForcing  =  /* Salinity forcing on/off flag */
(PID.TID 0000.0001)                   T
(PID.TID 0000.0001)     ;
(PID.TID 0000.0001) saltIsActiveTr = /* Salt  is a dynamically Active Tracer */
(PID.TID 0000.0001)                   T
(PID.TID 0000.0001)     ;
(PID.TID 0000.0001)  readBinaryPrec = /* Precision used for reading binary files */
(PID.TID 0000.0001)                      64
(PID.TID 0000.0001)     ;
(PID.TID 0000.0001) writeBinaryPrec = /* Precision used for writing binary files */
(PID.TID 0000.0001)                      32
(PID.TID 0000.0001)     ;
(PID.TID 0000.0001)  globalFiles = /* write "global" (=not per tile) files */
(PID.TID 0000.0001)                   F
(PID.TID 0000.0001)     ;
(PID.TID 0000.0001)  useSingleCpuIO = /* only master MPI process does I/O */
(PID.TID 0000.0001)                   F
(PID.TID 0000.0001)     ;
(PID.TID 0000.0001) /* debLev[*]  : level of debug & auxiliary message printing */
(PID.TID 0000.0001) debLevZero =  0 ; /* level of disabled aux. msg printing */
(PID.TID 0000.0001)    debLevA =  1 ; /* level of minimum  aux. msg printing */
(PID.TID 0000.0001)    debLevB =  2 ; /* level of low aux. print (report read-file opening)*/
(PID.TID 0000.0001)    debLevC =  3 ; /* level of moderate debug prt (most pkgs debug msg) */
(PID.TID 0000.0001)    debLevD =  4 ; /* level of enhanced debug prt (add DEBUG_STATS prt) */
(PID.TID 0000.0001)    debLevE =  5 ; /* level of extensive debug printing */
(PID.TID 0000.0001) debugLevel =  /* select debug printing level */
(PID.TID 0000.0001)                       2
(PID.TID 0000.0001)     ;
(PID.TID 0000.0001) //
(PID.TID 0000.0001) // Elliptic solver(s) paramters ( PARM02 in namelist )
(PID.TID 0000.0001) //
(PID.TID 0000.0001) cg2dMaxIters =   /* Upper limit on 2d con. grad iterations  */
(PID.TID 0000.0001)                    1000
(PID.TID 0000.0001)     ;
(PID.TID 0000.0001) cg2dChkResFreq =   /* 2d con. grad convergence test frequency */
(PID.TID 0000.0001)                       1
(PID.TID 0000.0001)     ;
(PID.TID 0000.0001) cg2dTargetResidual =   /* 2d con. grad target residual  */
(PID.TID 0000.0001)                 1.000000000000000E-13
(PID.TID 0000.0001)     ;
(PID.TID 0000.0001) cg2dTargetResWunit =   /* CG2d target residual [W units] */
(PID.TID 0000.0001)                -1.000000000000000E+00
(PID.TID 0000.0001)     ;
(PID.TID 0000.0001) cg2dPreCondFreq =   /* Freq. for updating cg2d preconditioner */
(PID.TID 0000.0001)                       1
(PID.TID 0000.0001)     ;
(PID.TID 0000.0001) useSRCGSolver =  /* use single reduction CG solver(s) */
(PID.TID 0000.0001)                   F
(PID.TID 0000.0001)     ;
(PID.TID 0000.0001) printResidualFreq = /* Freq. for printing CG residual */
(PID.TID 0000.0001)                       0
(PID.TID 0000.0001)     ;
(PID.TID 0000.0001) //
(PID.TID 0000.0001) // Time stepping paramters ( PARM03 in namelist )
(PID.TID 0000.0001) //
(PID.TID 0000.0001) deltaTmom =   /* Momentum equation timestep ( s ) */
(PID.TID 0000.0001)                 1.800000000000000E+03
(PID.TID 0000.0001)     ;
(PID.TID 0000.0001) deltaTfreesurf = /* FreeSurface equation timestep ( s ) */
(PID.TID 0000.0001)                 1.800000000000000E+03
(PID.TID 0000.0001)     ;
(PID.TID 0000.0001) dTtracerLev =  /* Tracer equation timestep ( s ) */
(PID.TID 0000.0001)    30 @  1.800000000000000E+03              /* K =  1: 30 */
(PID.TID 0000.0001)     ;
(PID.TID 0000.0001) deltaTClock  =   /* Model clock timestep ( s ) */
(PID.TID 0000.0001)                 1.800000000000000E+03
(PID.TID 0000.0001)     ;
(PID.TID 0000.0001) cAdjFreq =   /* Convective adjustment interval ( s ) */
(PID.TID 0000.0001)                 1.800000000000000E+03
(PID.TID 0000.0001)     ;
(PID.TID 0000.0001) momForcingOutAB = /* =1: take Momentum Forcing out of Adams-Bash. stepping */
(PID.TID 0000.0001)                       0
(PID.TID 0000.0001)     ;
(PID.TID 0000.0001) tracForcingOutAB = /* =1: take T,S,pTr Forcing out of Adams-Bash. stepping */
(PID.TID 0000.0001)                       0
(PID.TID 0000.0001)     ;
(PID.TID 0000.0001) momDissip_In_AB = /* put Dissipation Tendency in Adams-Bash. stepping */
(PID.TID 0000.0001)                   T
(PID.TID 0000.0001)     ;
(PID.TID 0000.0001) doAB_onGtGs = /* apply AB on Tendencies (rather than on T,S)*/
(PID.TID 0000.0001)                   T
(PID.TID 0000.0001)     ;
(PID.TID 0000.0001) abEps =   /* Adams-Bashforth-2 stabilizing weight */
(PID.TID 0000.0001)                 1.000000000000000E-01
(PID.TID 0000.0001)     ;
(PID.TID 0000.0001) tauCD =   /* CD coupling time-scale ( s ) */
(PID.TID 0000.0001)                 4.000000000000000E+05
(PID.TID 0000.0001)     ;
(PID.TID 0000.0001) rCD =   /* Normalised CD coupling parameter */
(PID.TID 0000.0001)                 9.955000000000001E-01
(PID.TID 0000.0001)     ;
(PID.TID 0000.0001) epsAB_CD = /* AB-2 stabilizing weight for CD-scheme*/
(PID.TID 0000.0001)                 1.000000000000000E-01
(PID.TID 0000.0001)     ;
(PID.TID 0000.0001) pickupStrictlyMatch= /* stop if pickup do not strictly match */
(PID.TID 0000.0001)                   T
(PID.TID 0000.0001)     ;
(PID.TID 0000.0001) nIter0   =   /* Run starting timestep number */
(PID.TID 0000.0001)                       0
(PID.TID 0000.0001)     ;
(PID.TID 0000.0001) nTimeSteps = /* Number of timesteps */
(PID.TID 0000.0001)                      20
(PID.TID 0000.0001)     ;
(PID.TID 0000.0001) nEndIter =   /* Run ending timestep number */
(PID.TID 0000.0001)                      20
(PID.TID 0000.0001)     ;
(PID.TID 0000.0001) baseTime =   /* Model base time ( s ) */
(PID.TID 0000.0001)                 0.000000000000000E+00
(PID.TID 0000.0001)     ;
(PID.TID 0000.0001) startTime =  /* Run start time ( s ) */
(PID.TID 0000.0001)                 0.000000000000000E+00
(PID.TID 0000.0001)     ;
(PID.TID 0000.0001) endTime  =   /* Integration ending time ( s ) */
(PID.TID 0000.0001)                 3.600000000000000E+04
(PID.TID 0000.0001)     ;
(PID.TID 0000.0001) pChkPtFreq = /* Permanent restart/pickup file interval ( s ) */
(PID.TID 0000.0001)                 0.000000000000000E+00
(PID.TID 0000.0001)     ;
(PID.TID 0000.0001) chkPtFreq  = /* Rolling restart/pickup file interval ( s ) */
(PID.TID 0000.0001)                 0.000000000000000E+00
(PID.TID 0000.0001)     ;
(PID.TID 0000.0001) pickup_write_mdsio =   /* Model IO flag. */
(PID.TID 0000.0001)                   T
(PID.TID 0000.0001)     ;
(PID.TID 0000.0001) pickup_read_mdsio =   /* Model IO flag. */
(PID.TID 0000.0001)                   T
(PID.TID 0000.0001)     ;
(PID.TID 0000.0001) pickup_write_mnc =   /* Model IO flag. */
(PID.TID 0000.0001)                   F
(PID.TID 0000.0001)     ;
(PID.TID 0000.0001) pickup_read_mnc =   /* Model IO flag. */
(PID.TID 0000.0001)                   F
(PID.TID 0000.0001)     ;
(PID.TID 0000.0001) pickup_write_immed =   /* Model IO flag. */
(PID.TID 0000.0001)                   F
(PID.TID 0000.0001)     ;
(PID.TID 0000.0001) writePickupAtEnd =   /* Model IO flag. */
(PID.TID 0000.0001)                   T
(PID.TID 0000.0001)     ;
(PID.TID 0000.0001) dumpFreq =   /* Model state write out interval ( s ). */
(PID.TID 0000.0001)                 0.000000000000000E+00
(PID.TID 0000.0001)     ;
(PID.TID 0000.0001) dumpInitAndLast= /* write out Initial & Last iter. model state */
(PID.TID 0000.0001)                   T
(PID.TID 0000.0001)     ;
(PID.TID 0000.0001) snapshot_mdsio =   /* Model IO flag. */
(PID.TID 0000.0001)                   T
(PID.TID 0000.0001)     ;
(PID.TID 0000.0001) snapshot_mnc =   /* Model IO flag. */
(PID.TID 0000.0001)                   F
(PID.TID 0000.0001)     ;
(PID.TID 0000.0001) monitorFreq =   /* Monitor output interval ( s ). */
(PID.TID 0000.0001)                 1.000000000000000E+00
(PID.TID 0000.0001)     ;
(PID.TID 0000.0001) monitorSelect = /* select group of variables to monitor */
(PID.TID 0000.0001)                       2
(PID.TID 0000.0001)     ;
(PID.TID 0000.0001) monitor_stdio =   /* Model IO flag. */
(PID.TID 0000.0001)                   T
(PID.TID 0000.0001)     ;
(PID.TID 0000.0001) monitor_mnc =   /* Model IO flag. */
(PID.TID 0000.0001)                   F
(PID.TID 0000.0001)     ;
(PID.TID 0000.0001) externForcingPeriod =   /* forcing period (s) */
(PID.TID 0000.0001)                 0.000000000000000E+00
(PID.TID 0000.0001)     ;
(PID.TID 0000.0001) externForcingCycle =   /* period of the cyle (s). */
(PID.TID 0000.0001)                 0.000000000000000E+00
(PID.TID 0000.0001)     ;
(PID.TID 0000.0001) tauThetaClimRelax =   /* relaxation time scale (s) */
(PID.TID 0000.0001)                 0.000000000000000E+00
(PID.TID 0000.0001)     ;
(PID.TID 0000.0001) tauSaltClimRelax =   /* relaxation time scale (s) */
(PID.TID 0000.0001)                 0.000000000000000E+00
(PID.TID 0000.0001)     ;
(PID.TID 0000.0001) latBandClimRelax =   /* max. Lat. where relaxation */
(PID.TID 0000.0001)                 1.800000000000000E+02
(PID.TID 0000.0001)     ;
(PID.TID 0000.0001) //
(PID.TID 0000.0001) // Gridding paramters ( PARM04 in namelist )
(PID.TID 0000.0001) //
(PID.TID 0000.0001) usingCartesianGrid = /* Cartesian coordinates flag ( True/False ) */
(PID.TID 0000.0001)                   F
(PID.TID 0000.0001)     ;
(PID.TID 0000.0001) usingCylindricalGrid = /* Cylindrical coordinates flag ( True/False ) */
(PID.TID 0000.0001)                   F
(PID.TID 0000.0001)     ;
(PID.TID 0000.0001) usingSphericalPolarGrid = /* Spherical coordinates flag ( True/False ) */
(PID.TID 0000.0001)                   T
(PID.TID 0000.0001)     ;
(PID.TID 0000.0001) usingCurvilinearGrid = /* Curvilinear coordinates flag ( True/False ) */
(PID.TID 0000.0001)                   F
(PID.TID 0000.0001)     ;
(PID.TID 0000.0001) selectSigmaCoord = /* Hybrid-Sigma Vert. Coordinate option */
(PID.TID 0000.0001)                       0
(PID.TID 0000.0001)     ;
(PID.TID 0000.0001) Ro_SeaLevel = /* r(1) ( units of r ==  m ) */
(PID.TID 0000.0001)                 0.000000000000000E+00
(PID.TID 0000.0001)     ;
(PID.TID 0000.0001) rSigmaBnd = /* r/sigma transition ( units of r ==  m ) */
(PID.TID 0000.0001)                 1.234567000000000E+05
(PID.TID 0000.0001)     ;
(PID.TID 0000.0001) rkSign =   /* index orientation relative to vertical coordinate */
(PID.TID 0000.0001)                -1.000000000000000E+00
(PID.TID 0000.0001)     ;
(PID.TID 0000.0001) gravitySign = /* gravity orientation relative to vertical coordinate */
(PID.TID 0000.0001)                -1.000000000000000E+00
(PID.TID 0000.0001)     ;
(PID.TID 0000.0001) mass2rUnit = /* convert mass per unit area [kg/m2] to r-units [m] */
(PID.TID 0000.0001)                 9.708737864077669E-04
(PID.TID 0000.0001)     ;
(PID.TID 0000.0001) rUnit2mass = /* convert r-units [m] to mass per unit area [kg/m2] */
(PID.TID 0000.0001)                 1.030000000000000E+03
(PID.TID 0000.0001)     ;
(PID.TID 0000.0001) drC =   /* C spacing ( units of r ) */
(PID.TID 0000.0001)                 1.500000000000000E+01,      /* K =  1 */
(PID.TID 0000.0001)    29 @  3.000000000000000E+01              /* K =  2: 30 */
(PID.TID 0000.0001)     ;
(PID.TID 0000.0001) drF =   /* W spacing ( units of r ) */
(PID.TID 0000.0001)    30 @  3.000000000000000E+01              /* K =  1: 30 */
(PID.TID 0000.0001)     ;
(PID.TID 0000.0001) delX = /* U spacing ( m - cartesian, degrees - spherical ) */
(PID.TID 0000.0001)    50 @  3.000000000000000E-01              /* I =  1: 50 */
(PID.TID 0000.0001)     ;
(PID.TID 0000.0001) delY = /* V spacing ( m - cartesian, degrees - spherical ) */
(PID.TID 0000.0001)   100 @  1.000000000000000E-01              /* J =  1:100 */
(PID.TID 0000.0001)     ;
(PID.TID 0000.0001) xgOrigin = /* X-axis origin of West  edge (cartesian: m, lat-lon: deg.) */
(PID.TID 0000.0001)                 0.000000000000000E+00
(PID.TID 0000.0001)     ;
(PID.TID 0000.0001) ygOrigin = /* Y-axis origin of South edge (cartesian: m, lat-lon: deg.) */
(PID.TID 0000.0001)                -8.000000000000000E+01
(PID.TID 0000.0001)     ;
(PID.TID 0000.0001) rSphere =  /* Radius ( ignored - cartesian, m - spherical ) */
(PID.TID 0000.0001)                 6.370000000000000E+06
(PID.TID 0000.0001)     ;
(PID.TID 0000.0001) deepAtmosphere = /* Deep/Shallow Atmosphere flag (True/False) */
(PID.TID 0000.0001)                   F
(PID.TID 0000.0001)     ;
(PID.TID 0000.0001) xC =  /* xC(:,1,:,1) : P-point X coord ( deg. or m if cartesian) */
(PID.TID 0000.0001)                 1.500000000000001E-01,      /* I =  1 */
(PID.TID 0000.0001)                 4.500000000000001E-01,      /* I =  2 */
(PID.TID 0000.0001)                 7.500000000000002E-01,      /* I =  3 */
(PID.TID 0000.0001)                 1.050000000000000E+00,      /* I =  4 */
(PID.TID 0000.0001)                 1.350000000000000E+00,      /* I =  5 */
(PID.TID 0000.0001)                 1.650000000000000E+00,      /* I =  6 */
(PID.TID 0000.0001)                 1.950000000000000E+00,      /* I =  7 */
(PID.TID 0000.0001)                 2.250000000000000E+00,      /* I =  8 */
(PID.TID 0000.0001)                 2.550000000000000E+00,      /* I =  9 */
(PID.TID 0000.0001)                 2.850000000000000E+00,      /* I = 10 */
(PID.TID 0000.0001)                 3.149999999999999E+00,      /* I = 11 */
(PID.TID 0000.0001)                 3.449999999999999E+00,      /* I = 12 */
(PID.TID 0000.0001)                 3.749999999999999E+00,      /* I = 13 */
(PID.TID 0000.0001)                 4.049999999999999E+00,      /* I = 14 */
(PID.TID 0000.0001)                 4.350000000000000E+00,      /* I = 15 */
(PID.TID 0000.0001)                 4.649999999999999E+00,      /* I = 16 */
(PID.TID 0000.0001)                 4.949999999999999E+00,      /* I = 17 */
(PID.TID 0000.0001)                 5.249999999999998E+00,      /* I = 18 */
(PID.TID 0000.0001)                 5.549999999999999E+00,      /* I = 19 */
(PID.TID 0000.0001)                 5.849999999999998E+00,      /* I = 20 */
(PID.TID 0000.0001)                 6.149999999999999E+00,      /* I = 21 */
(PID.TID 0000.0001)                 6.449999999999998E+00,      /* I = 22 */
(PID.TID 0000.0001)                 6.749999999999998E+00,      /* I = 23 */
(PID.TID 0000.0001)                 7.049999999999997E+00,      /* I = 24 */
(PID.TID 0000.0001)                 7.349999999999997E+00,      /* I = 25 */
(PID.TID 0000.0001)                 7.649999999999997E+00,      /* I = 26 */
(PID.TID 0000.0001)                 7.949999999999998E+00,      /* I = 27 */
(PID.TID 0000.0001)                 8.249999999999998E+00,      /* I = 28 */
(PID.TID 0000.0001)                 8.549999999999999E+00,      /* I = 29 */
(PID.TID 0000.0001)                 8.850000000000000E+00,      /* I = 30 */
(PID.TID 0000.0001)                 9.150000000000000E+00,      /* I = 31 */
(PID.TID 0000.0001)                 9.450000000000001E+00,      /* I = 32 */
(PID.TID 0000.0001)                 9.750000000000002E+00,      /* I = 33 */
(PID.TID 0000.0001)                 1.005000000000000E+01,      /* I = 34 */
(PID.TID 0000.0001)                 1.035000000000000E+01,      /* I = 35 */
(PID.TID 0000.0001)                 1.065000000000000E+01,      /* I = 36 */
(PID.TID 0000.0001)                 1.095000000000001E+01,      /* I = 37 */
(PID.TID 0000.0001)                 1.125000000000001E+01,      /* I = 38 */
(PID.TID 0000.0001)                 1.155000000000000E+01,      /* I = 39 */
(PID.TID 0000.0001)                 1.185000000000001E+01,      /* I = 40 */
(PID.TID 0000.0001)                 1.215000000000001E+01,      /* I = 41 */
(PID.TID 0000.0001)                 1.245000000000001E+01,      /* I = 42 */
(PID.TID 0000.0001)                 1.275000000000001E+01,      /* I = 43 */
(PID.TID 0000.0001)                 1.305000000000001E+01,      /* I = 44 */
(PID.TID 0000.0001)                 1.335000000000001E+01,      /* I = 45 */
(PID.TID 0000.0001)                 1.365000000000001E+01,      /* I = 46 */
(PID.TID 0000.0001)                 1.395000000000001E+01,      /* I = 47 */
(PID.TID 0000.0001)                 1.425000000000001E+01,      /* I = 48 */
(PID.TID 0000.0001)                 1.455000000000001E+01,      /* I = 49 */
(PID.TID 0000.0001)                 1.485000000000001E+01       /* I = 50 */
(PID.TID 0000.0001)     ;
(PID.TID 0000.0001) yC =  /* yC(1,:,1,:) : P-point Y coord ( deg. or m if cartesian) */
(PID.TID 0000.0001)                -7.995000000000000E+01,      /* J =  1 */
(PID.TID 0000.0001)                -7.985000000000001E+01,      /* J =  2 */
(PID.TID 0000.0001)                -7.975000000000001E+01,      /* J =  3 */
(PID.TID 0000.0001)      . . .
(PID.TID 0000.0001)                -7.775000000000013E+01,      /* J = 23 */
(PID.TID 0000.0001)                -7.765000000000013E+01,      /* J = 24 */
(PID.TID 0000.0001)                -7.755000000000014E+01,      /* J = 25 */
(PID.TID 0000.0001)                -7.745000000000014E+01,      /* J = 26 */
(PID.TID 0000.0001)                -7.735000000000015E+01,      /* J = 27 */
(PID.TID 0000.0001)                -7.725000000000016E+01,      /* J = 28 */
(PID.TID 0000.0001)      . . .
(PID.TID 0000.0001)                -7.525000000000027E+01,      /* J = 48 */
(PID.TID 0000.0001)                -7.515000000000028E+01,      /* J = 49 */
(PID.TID 0000.0001)                -7.505000000000028E+01,      /* J = 50 */
(PID.TID 0000.0001)                -7.495000000000029E+01,      /* J = 51 */
(PID.TID 0000.0001)                -7.485000000000029E+01,      /* J = 52 */
(PID.TID 0000.0001)                -7.475000000000030E+01,      /* J = 53 */
(PID.TID 0000.0001)      . . .
(PID.TID 0000.0001)                -7.275000000000041E+01,      /* J = 73 */
(PID.TID 0000.0001)                -7.265000000000042E+01,      /* J = 74 */
(PID.TID 0000.0001)                -7.255000000000042E+01,      /* J = 75 */
(PID.TID 0000.0001)                -7.245000000000043E+01,      /* J = 76 */
(PID.TID 0000.0001)                -7.235000000000043E+01,      /* J = 77 */
(PID.TID 0000.0001)                -7.225000000000044E+01,      /* J = 78 */
(PID.TID 0000.0001)      . . .
(PID.TID 0000.0001)                -7.025000000000055E+01,      /* J = 98 */
(PID.TID 0000.0001)                -7.015000000000056E+01,      /* J = 99 */
(PID.TID 0000.0001)                -7.005000000000057E+01       /* J =100 */
(PID.TID 0000.0001)     ;
(PID.TID 0000.0001) rcoord = /* P-point R coordinate (  units of r ) */
(PID.TID 0000.0001)                -1.500000000000000E+01,      /* K =  1 */
(PID.TID 0000.0001)                -4.500000000000000E+01,      /* K =  2 */
(PID.TID 0000.0001)                -7.500000000000000E+01,      /* K =  3 */
(PID.TID 0000.0001)                -1.050000000000000E+02,      /* K =  4 */
(PID.TID 0000.0001)                -1.350000000000000E+02,      /* K =  5 */
(PID.TID 0000.0001)                -1.650000000000000E+02,      /* K =  6 */
(PID.TID 0000.0001)                -1.950000000000000E+02,      /* K =  7 */
(PID.TID 0000.0001)                -2.250000000000000E+02,      /* K =  8 */
(PID.TID 0000.0001)                -2.550000000000000E+02,      /* K =  9 */
(PID.TID 0000.0001)                -2.850000000000000E+02,      /* K = 10 */
(PID.TID 0000.0001)                -3.150000000000000E+02,      /* K = 11 */
(PID.TID 0000.0001)                -3.450000000000000E+02,      /* K = 12 */
(PID.TID 0000.0001)                -3.750000000000000E+02,      /* K = 13 */
(PID.TID 0000.0001)                -4.050000000000000E+02,      /* K = 14 */
(PID.TID 0000.0001)                -4.350000000000000E+02,      /* K = 15 */
(PID.TID 0000.0001)                -4.650000000000000E+02,      /* K = 16 */
(PID.TID 0000.0001)                -4.950000000000000E+02,      /* K = 17 */
(PID.TID 0000.0001)                -5.250000000000000E+02,      /* K = 18 */
(PID.TID 0000.0001)                -5.550000000000000E+02,      /* K = 19 */
(PID.TID 0000.0001)                -5.850000000000000E+02,      /* K = 20 */
(PID.TID 0000.0001)                -6.150000000000000E+02,      /* K = 21 */
(PID.TID 0000.0001)                -6.450000000000000E+02,      /* K = 22 */
(PID.TID 0000.0001)                -6.750000000000000E+02,      /* K = 23 */
(PID.TID 0000.0001)                -7.050000000000000E+02,      /* K = 24 */
(PID.TID 0000.0001)                -7.350000000000000E+02,      /* K = 25 */
(PID.TID 0000.0001)                -7.650000000000000E+02,      /* K = 26 */
(PID.TID 0000.0001)                -7.950000000000000E+02,      /* K = 27 */
(PID.TID 0000.0001)                -8.250000000000000E+02,      /* K = 28 */
(PID.TID 0000.0001)                -8.550000000000000E+02,      /* K = 29 */
(PID.TID 0000.0001)                -8.850000000000000E+02       /* K = 30 */
(PID.TID 0000.0001)     ;
(PID.TID 0000.0001) rF =   /* W-Interf. R coordinate (  units of r ) */
(PID.TID 0000.0001)                 0.000000000000000E+00,      /* K =  1 */
(PID.TID 0000.0001)                -3.000000000000000E+01,      /* K =  2 */
(PID.TID 0000.0001)                -6.000000000000000E+01,      /* K =  3 */
(PID.TID 0000.0001)                -9.000000000000000E+01,      /* K =  4 */
(PID.TID 0000.0001)                -1.200000000000000E+02,      /* K =  5 */
(PID.TID 0000.0001)                -1.500000000000000E+02,      /* K =  6 */
(PID.TID 0000.0001)                -1.800000000000000E+02,      /* K =  7 */
(PID.TID 0000.0001)                -2.100000000000000E+02,      /* K =  8 */
(PID.TID 0000.0001)                -2.400000000000000E+02,      /* K =  9 */
(PID.TID 0000.0001)                -2.700000000000000E+02,      /* K = 10 */
(PID.TID 0000.0001)                -3.000000000000000E+02,      /* K = 11 */
(PID.TID 0000.0001)                -3.300000000000000E+02,      /* K = 12 */
(PID.TID 0000.0001)                -3.600000000000000E+02,      /* K = 13 */
(PID.TID 0000.0001)                -3.900000000000000E+02,      /* K = 14 */
(PID.TID 0000.0001)                -4.200000000000000E+02,      /* K = 15 */
(PID.TID 0000.0001)                -4.500000000000000E+02,      /* K = 16 */
(PID.TID 0000.0001)                -4.800000000000000E+02,      /* K = 17 */
(PID.TID 0000.0001)                -5.100000000000000E+02,      /* K = 18 */
(PID.TID 0000.0001)                -5.400000000000000E+02,      /* K = 19 */
(PID.TID 0000.0001)                -5.700000000000000E+02,      /* K = 20 */
(PID.TID 0000.0001)                -6.000000000000000E+02,      /* K = 21 */
(PID.TID 0000.0001)                -6.300000000000000E+02,      /* K = 22 */
(PID.TID 0000.0001)                -6.600000000000000E+02,      /* K = 23 */
(PID.TID 0000.0001)                -6.900000000000000E+02,      /* K = 24 */
(PID.TID 0000.0001)                -7.200000000000000E+02,      /* K = 25 */
(PID.TID 0000.0001)                -7.500000000000000E+02,      /* K = 26 */
(PID.TID 0000.0001)                -7.800000000000000E+02,      /* K = 27 */
(PID.TID 0000.0001)                -8.100000000000000E+02,      /* K = 28 */
(PID.TID 0000.0001)                -8.400000000000000E+02,      /* K = 29 */
(PID.TID 0000.0001)                -8.700000000000000E+02,      /* K = 30 */
(PID.TID 0000.0001)                -9.000000000000000E+02       /* K = 31 */
(PID.TID 0000.0001)     ;
(PID.TID 0000.0001) deepFacC = /* deep-model grid factor @ cell-Center (-) */
(PID.TID 0000.0001)    30 @  1.000000000000000E+00              /* K =  1: 30 */
(PID.TID 0000.0001)     ;
(PID.TID 0000.0001) deepFacF = /* deep-model grid factor @ W-Interface (-) */
(PID.TID 0000.0001)    31 @  1.000000000000000E+00              /* K =  1: 31 */
(PID.TID 0000.0001)     ;
(PID.TID 0000.0001) rVel2wUnit = /* convert units: rVel -> wSpeed (=1 if z-coord)*/
(PID.TID 0000.0001)    31 @  1.000000000000000E+00              /* K =  1: 31 */
(PID.TID 0000.0001)     ;
(PID.TID 0000.0001) wUnit2rVel = /* convert units: wSpeed -> rVel (=1 if z-coord)*/
(PID.TID 0000.0001)    31 @  1.000000000000000E+00              /* K =  1: 31 */
(PID.TID 0000.0001)     ;
(PID.TID 0000.0001) dBdrRef = /* Vertical grad. of reference buoyancy [(m/s/r)^2] */
(PID.TID 0000.0001)    30 @  0.000000000000000E+00              /* K =  1: 30 */
(PID.TID 0000.0001)     ;
(PID.TID 0000.0001) rotateGrid = /* use rotated grid ( True/False ) */
(PID.TID 0000.0001)                   F
(PID.TID 0000.0001)     ;
(PID.TID 0000.0001) phiEuler = /* Euler angle, rotation about original z-coordinate [rad] */
(PID.TID 0000.0001)                 0.000000000000000E+00
(PID.TID 0000.0001)     ;
(PID.TID 0000.0001) thetaEuler = /* Euler angle, rotation about new x-coordinate [rad] */
(PID.TID 0000.0001)                 0.000000000000000E+00
(PID.TID 0000.0001)     ;
(PID.TID 0000.0001) psiEuler = /* Euler angle, rotation about new z-coordinate [rad] */
(PID.TID 0000.0001)                 0.000000000000000E+00
(PID.TID 0000.0001)     ;
(PID.TID 0000.0001) dxF =  /* dxF(:,1,:,1) ( units: m ) */
(PID.TID 0000.0001)    50 @  5.820391490558872E+03              /* I =  1: 50 */
(PID.TID 0000.0001)     ;
(PID.TID 0000.0001) dxF =  /* dxF(1,:,1,:) ( units: m ) */
(PID.TID 0000.0001)                 5.820391490558872E+03,      /* J =  1 */
(PID.TID 0000.0001)                 5.877701765291692E+03,      /* J =  2 */
(PID.TID 0000.0001)                 5.934994135525598E+03,      /* J =  3 */
(PID.TID 0000.0001)      . . .
(PID.TID 0000.0001)                 7.076813247621209E+03,      /* J = 23 */
(PID.TID 0000.0001)                 7.133689397375063E+03,      /* J = 24 */
(PID.TID 0000.0001)                 7.190543816673855E+03,      /* J = 25 */
(PID.TID 0000.0001)                 7.247376332329164E+03,      /* J = 26 */
(PID.TID 0000.0001)                 7.304186771219292E+03,      /* J = 27 */
(PID.TID 0000.0001)                 7.360974960289787E+03,      /* J = 28 */
(PID.TID 0000.0001)      . . .
(PID.TID 0000.0001)                 8.491800393599013E+03,      /* J = 48 */
(PID.TID 0000.0001)                 8.548081485571185E+03,      /* J = 49 */
(PID.TID 0000.0001)                 8.604336538604706E+03,      /* J = 50 */
(PID.TID 0000.0001)                 8.660565381336924E+03,      /* J = 51 */
(PID.TID 0000.0001)                 8.716767842485036E+03,      /* J = 52 */
(PID.TID 0000.0001)                 8.772943750846600E+03,      /* J = 53 */
(PID.TID 0000.0001)      . . .
(PID.TID 0000.0001)                 9.890622914885218E+03,      /* J = 73 */
(PID.TID 0000.0001)                 9.946201814818334E+03,      /* J = 74 */
(PID.TID 0000.0001)                 1.000175041689580E+04,      /* J = 75 */
(PID.TID 0000.0001)                 1.005726855190695E+04,      /* J = 76 */
(PID.TID 0000.0001)                 1.011275605073392E+04,      /* J = 77 */
(PID.TID 0000.0001)                 1.016821274435215E+04,      /* J = 78 */
(PID.TID 0000.0001)      . . .
(PID.TID 0000.0001)                 1.127061807330668E+04,      /* J = 98 */
(PID.TID 0000.0001)                 1.132538898360582E+04,      /* J = 99 */
(PID.TID 0000.0001)                 1.138012539480601E+04       /* J =100 */
(PID.TID 0000.0001)     ;
(PID.TID 0000.0001) dyF =  /* dyF(:,1,:,1) ( units: m ) */
(PID.TID 0000.0001)    50 @  1.111774733520388E+04              /* I =  1: 50 */
(PID.TID 0000.0001)     ;
(PID.TID 0000.0001) dyF =  /* dyF(1,:,1,:) ( units: m ) */
(PID.TID 0000.0001)   100 @  1.111774733520388E+04              /* J =  1:100 */
(PID.TID 0000.0001)     ;
(PID.TID 0000.0001) dxG =  /* dxG(:,1,:,1) ( units: m ) */
(PID.TID 0000.0001)    50 @  5.791729693558576E+03              /* I =  1: 50 */
(PID.TID 0000.0001)     ;
(PID.TID 0000.0001) dxG =  /* dxG(1,:,1,:) ( units: m ) */
(PID.TID 0000.0001)                 5.791729693558576E+03,      /* J =  1 */
(PID.TID 0000.0001)                 5.849048855077854E+03,      /* J =  2 */
(PID.TID 0000.0001)                 5.906350199379949E+03,      /* J =  3 */
(PID.TID 0000.0001)      . . .
(PID.TID 0000.0001)                 7.048367077963129E+03,      /* J = 23 */
(PID.TID 0000.0001)                 7.105254027978149E+03,      /* J = 24 */
(PID.TID 0000.0001)                 7.162119334157175E+03,      /* J = 25 */
(PID.TID 0000.0001)                 7.218962823278620E+03,      /* J = 26 */
(PID.TID 0000.0001)                 7.275784322187360E+03,      /* J = 27 */
(PID.TID 0000.0001)                 7.332583657795253E+03,      /* J = 28 */
(PID.TID 0000.0001)      . . .
(PID.TID 0000.0001)                 8.463650136583461E+03,      /* J = 48 */
(PID.TID 0000.0001)                 8.519944183739159E+03,      /* J = 49 */
(PID.TID 0000.0001)                 8.576212277667308E+03,      /* J = 50 */
(PID.TID 0000.0001)                 8.632454246965530E+03,      /* J = 51 */
(PID.TID 0000.0001)                 8.688669920311038E+03,      /* J = 52 */
(PID.TID 0000.0001)                 8.744859126461139E+03,      /* J = 53 */
(PID.TID 0000.0001)      . . .
(PID.TID 0000.0001)                 9.862822156126382E+03,      /* J = 73 */
(PID.TID 0000.0001)                 9.918416141504455E+03,      /* J = 74 */
(PID.TID 0000.0001)                 9.973979913666863E+03,      /* J = 75 */
(PID.TID 0000.0001)                 1.002951330335672E+04,      /* J = 76 */
(PID.TID 0000.0001)                 1.008501614140969E+04,      /* J = 77 */
(PID.TID 0000.0001)                 1.014048825875450E+04,      /* J = 78 */
(PID.TID 0000.0001)      . . .
(PID.TID 0000.0001)                 1.124321973312895E+04,      /* J = 98 */
(PID.TID 0000.0001)                 1.129800783041847E+04,      /* J = 99 */
(PID.TID 0000.0001)                 1.135276151201679E+04       /* J =100 */
(PID.TID 0000.0001)     ;
(PID.TID 0000.0001) dyG =  /* dyG(:,1,:,1) ( units: m ) */
(PID.TID 0000.0001)    50 @  1.111774733520388E+04              /* I =  1: 50 */
(PID.TID 0000.0001)     ;
(PID.TID 0000.0001) dyG =  /* dyG(1,:,1,:) ( units: m ) */
(PID.TID 0000.0001)   100 @  1.111774733520388E+04              /* J =  1:100 */
(PID.TID 0000.0001)     ;
(PID.TID 0000.0001) dxC =  /* dxC(:,1,:,1) ( units: m ) */
(PID.TID 0000.0001)    50 @  5.820391490558872E+03              /* I =  1: 50 */
(PID.TID 0000.0001)     ;
(PID.TID 0000.0001) dxC =  /* dxC(1,:,1,:) ( units: m ) */
(PID.TID 0000.0001)                 5.820391490558872E+03,      /* J =  1 */
(PID.TID 0000.0001)                 5.877701765291692E+03,      /* J =  2 */
(PID.TID 0000.0001)                 5.934994135525598E+03,      /* J =  3 */
(PID.TID 0000.0001)      . . .
(PID.TID 0000.0001)                 7.076813247621209E+03,      /* J = 23 */
(PID.TID 0000.0001)                 7.133689397375063E+03,      /* J = 24 */
(PID.TID 0000.0001)                 7.190543816673855E+03,      /* J = 25 */
(PID.TID 0000.0001)                 7.247376332329164E+03,      /* J = 26 */
(PID.TID 0000.0001)                 7.304186771219292E+03,      /* J = 27 */
(PID.TID 0000.0001)                 7.360974960289787E+03,      /* J = 28 */
(PID.TID 0000.0001)      . . .
(PID.TID 0000.0001)                 8.491800393599013E+03,      /* J = 48 */
(PID.TID 0000.0001)                 8.548081485571185E+03,      /* J = 49 */
(PID.TID 0000.0001)                 8.604336538604706E+03,      /* J = 50 */
(PID.TID 0000.0001)                 8.660565381336924E+03,      /* J = 51 */
(PID.TID 0000.0001)                 8.716767842485036E+03,      /* J = 52 */
(PID.TID 0000.0001)                 8.772943750846600E+03,      /* J = 53 */
(PID.TID 0000.0001)      . . .
(PID.TID 0000.0001)                 9.890622914885218E+03,      /* J = 73 */
(PID.TID 0000.0001)                 9.946201814818334E+03,      /* J = 74 */
(PID.TID 0000.0001)                 1.000175041689580E+04,      /* J = 75 */
(PID.TID 0000.0001)                 1.005726855190695E+04,      /* J = 76 */
(PID.TID 0000.0001)                 1.011275605073392E+04,      /* J = 77 */
(PID.TID 0000.0001)                 1.016821274435215E+04,      /* J = 78 */
(PID.TID 0000.0001)      . . .
(PID.TID 0000.0001)                 1.127061807330668E+04,      /* J = 98 */
(PID.TID 0000.0001)                 1.132538898360582E+04,      /* J = 99 */
(PID.TID 0000.0001)                 1.138012539480601E+04       /* J =100 */
(PID.TID 0000.0001)     ;
(PID.TID 0000.0001) dyC =  /* dyC(:,1,:,1) ( units: m ) */
(PID.TID 0000.0001)    50 @  1.111774733520388E+04              /* I =  1: 50 */
(PID.TID 0000.0001)     ;
(PID.TID 0000.0001) dyC =  /* dyC(1,:,1,:) ( units: m ) */
(PID.TID 0000.0001)   100 @  1.111774733520388E+04              /* J =  1:100 */
(PID.TID 0000.0001)     ;
(PID.TID 0000.0001) dxV =  /* dxV(:,1,:,1) ( units: m ) */
(PID.TID 0000.0001)    50 @  5.791729693558576E+03              /* I =  1: 50 */
(PID.TID 0000.0001)     ;
(PID.TID 0000.0001) dxV =  /* dxV(1,:,1,:) ( units: m ) */
(PID.TID 0000.0001)                 5.791729693558576E+03,      /* J =  1 */
(PID.TID 0000.0001)                 5.849048855077854E+03,      /* J =  2 */
(PID.TID 0000.0001)                 5.906350199379949E+03,      /* J =  3 */
(PID.TID 0000.0001)      . . .
(PID.TID 0000.0001)                 7.048367077963129E+03,      /* J = 23 */
(PID.TID 0000.0001)                 7.105254027978149E+03,      /* J = 24 */
(PID.TID 0000.0001)                 7.162119334157175E+03,      /* J = 25 */
(PID.TID 0000.0001)                 7.218962823278620E+03,      /* J = 26 */
(PID.TID 0000.0001)                 7.275784322187360E+03,      /* J = 27 */
(PID.TID 0000.0001)                 7.332583657795253E+03,      /* J = 28 */
(PID.TID 0000.0001)      . . .
(PID.TID 0000.0001)                 8.463650136583461E+03,      /* J = 48 */
(PID.TID 0000.0001)                 8.519944183739159E+03,      /* J = 49 */
(PID.TID 0000.0001)                 8.576212277667308E+03,      /* J = 50 */
(PID.TID 0000.0001)                 8.632454246965530E+03,      /* J = 51 */
(PID.TID 0000.0001)                 8.688669920311038E+03,      /* J = 52 */
(PID.TID 0000.0001)                 8.744859126461139E+03,      /* J = 53 */
(PID.TID 0000.0001)      . . .
(PID.TID 0000.0001)                 9.862822156126382E+03,      /* J = 73 */
(PID.TID 0000.0001)                 9.918416141504455E+03,      /* J = 74 */
(PID.TID 0000.0001)                 9.973979913666863E+03,      /* J = 75 */
(PID.TID 0000.0001)                 1.002951330335672E+04,      /* J = 76 */
(PID.TID 0000.0001)                 1.008501614140969E+04,      /* J = 77 */
(PID.TID 0000.0001)                 1.014048825875450E+04,      /* J = 78 */
(PID.TID 0000.0001)      . . .
(PID.TID 0000.0001)                 1.124321973312895E+04,      /* J = 98 */
(PID.TID 0000.0001)                 1.129800783041847E+04,      /* J = 99 */
(PID.TID 0000.0001)                 1.135276151201679E+04       /* J =100 */
(PID.TID 0000.0001)     ;
(PID.TID 0000.0001) dyU =  /* dyU(:,1,:,1) ( units: m ) */
(PID.TID 0000.0001)    50 @  1.111774733520388E+04              /* I =  1: 50 */
(PID.TID 0000.0001)     ;
(PID.TID 0000.0001) dyU =  /* dyU(1,:,1,:) ( units: m ) */
(PID.TID 0000.0001)   100 @  1.111774733520388E+04              /* J =  1:100 */
(PID.TID 0000.0001)     ;
(PID.TID 0000.0001) rA  =  /* rA (:,1,:,1) ( units: m^2 ) */
(PID.TID 0000.0001)    50 @  6.470963377080289E+07              /* I =  1: 50 */
(PID.TID 0000.0001)     ;
(PID.TID 0000.0001) rA  =  /* rA (1,:,1,:) ( units: m^2 ) */
(PID.TID 0000.0001)                 6.470963377080289E+07,      /* J =  1 */
(PID.TID 0000.0001)                 6.534679484410104E+07,      /* J =  2 */
(PID.TID 0000.0001)                 6.598375685977945E+07,      /* J =  3 */
(PID.TID 0000.0001)      . . .
(PID.TID 0000.0001)                 7.867821163932665E+07,      /* J = 23 */
(PID.TID 0000.0001)                 7.931054622142966E+07,      /* J = 24 */
(PID.TID 0000.0001)                 7.994263920984067E+07,      /* J = 25 */
(PID.TID 0000.0001)                 8.057448867913349E+07,      /* J = 26 */
(PID.TID 0000.0001)                 8.120609270456599E+07,      /* J = 27 */
(PID.TID 0000.0001)                 8.183744936212724E+07,      /* J = 28 */
(PID.TID 0000.0001)      . . .
(PID.TID 0000.0001)                 9.440967921416211E+07,      /* J = 48 */
(PID.TID 0000.0001)                 9.503539809503193E+07,      /* J = 49 */
(PID.TID 0000.0001)                 9.566082748163140E+07,      /* J = 50 */
(PID.TID 0000.0001)                 9.628596546870193E+07,      /* J = 51 */
(PID.TID 0000.0001)                 9.691081015209354E+07,      /* J = 52 */
(PID.TID 0000.0001)                 9.753535962826957E+07,      /* J = 53 */
(PID.TID 0000.0001)      . . .
(PID.TID 0000.0001)                 1.099614325987181E+08,      /* J = 73 */
(PID.TID 0000.0001)                 1.105793446869293E+08,      /* J = 74 */
(PID.TID 0000.0001)                 1.111969199312560E+08,      /* J = 75 */
(PID.TID 0000.0001)                 1.118141564504991E+08,      /* J = 76 */
(PID.TID 0000.0001)                 1.124310523644033E+08,      /* J = 77 */
(PID.TID 0000.0001)                 1.130476057938687E+08,      /* J = 78 */
(PID.TID 0000.0001)      . . .
(PID.TID 0000.0001)                 1.253038681465364E+08,      /* J = 98 */
(PID.TID 0000.0001)                 1.259127972112936E+08,      /* J = 99 */
(PID.TID 0000.0001)                 1.265213427237870E+08       /* J =100 */
(PID.TID 0000.0001)     ;
(PID.TID 0000.0001) rAw =  /* rAw(:,1,:,1) ( units: m^2 ) */
(PID.TID 0000.0001)    50 @  6.470963377080289E+07              /* I =  1: 50 */
(PID.TID 0000.0001)     ;
(PID.TID 0000.0001) rAw =  /* rAw(1,:,1,:) ( units: m^2 ) */
(PID.TID 0000.0001)                 6.470963377080289E+07,      /* J =  1 */
(PID.TID 0000.0001)                 6.534679484410104E+07,      /* J =  2 */
(PID.TID 0000.0001)                 6.598375685977945E+07,      /* J =  3 */
(PID.TID 0000.0001)      . . .
(PID.TID 0000.0001)                 7.867821163932665E+07,      /* J = 23 */
(PID.TID 0000.0001)                 7.931054622142966E+07,      /* J = 24 */
(PID.TID 0000.0001)                 7.994263920984067E+07,      /* J = 25 */
(PID.TID 0000.0001)                 8.057448867913349E+07,      /* J = 26 */
(PID.TID 0000.0001)                 8.120609270456599E+07,      /* J = 27 */
(PID.TID 0000.0001)                 8.183744936212724E+07,      /* J = 28 */
(PID.TID 0000.0001)      . . .
(PID.TID 0000.0001)                 9.440967921416211E+07,      /* J = 48 */
(PID.TID 0000.0001)                 9.503539809503193E+07,      /* J = 49 */
(PID.TID 0000.0001)                 9.566082748163140E+07,      /* J = 50 */
(PID.TID 0000.0001)                 9.628596546870193E+07,      /* J = 51 */
(PID.TID 0000.0001)                 9.691081015209354E+07,      /* J = 52 */
(PID.TID 0000.0001)                 9.753535962826957E+07,      /* J = 53 */
(PID.TID 0000.0001)      . . .
(PID.TID 0000.0001)                 1.099614325987181E+08,      /* J = 73 */
(PID.TID 0000.0001)                 1.105793446869293E+08,      /* J = 74 */
(PID.TID 0000.0001)                 1.111969199312560E+08,      /* J = 75 */
(PID.TID 0000.0001)                 1.118141564504991E+08,      /* J = 76 */
(PID.TID 0000.0001)                 1.124310523644033E+08,      /* J = 77 */
(PID.TID 0000.0001)                 1.130476057938687E+08,      /* J = 78 */
(PID.TID 0000.0001)      . . .
(PID.TID 0000.0001)                 1.253038681465364E+08,      /* J = 98 */
(PID.TID 0000.0001)                 1.259127972112936E+08,      /* J = 99 */
(PID.TID 0000.0001)                 1.265213427237870E+08       /* J =100 */
(PID.TID 0000.0001)     ;
(PID.TID 0000.0001) rAs =  /* rAs(:,1,:,1) ( units: m^2 ) */
(PID.TID 0000.0001)    50 @  6.439097919401864E+07              /* I =  1: 50 */
(PID.TID 0000.0001)     ;
(PID.TID 0000.0001) rAs =  /* rAs(1,:,1,:) ( units: m^2 ) */
(PID.TID 0000.0001)                 6.439097919401864E+07,      /* J =  1 */
(PID.TID 0000.0001)                 6.502823906837179E+07,      /* J =  2 */
(PID.TID 0000.0001)                 6.566530085543716E+07,      /* J =  3 */
(PID.TID 0000.0001)      . . .
(PID.TID 0000.0001)                 7.836195435256335E+07,      /* J = 23 */
(PID.TID 0000.0001)                 7.899440900921808E+07,      /* J = 24 */
(PID.TID 0000.0001)                 7.962662303520055E+07,      /* J = 25 */
(PID.TID 0000.0001)                 8.025859450470714E+07,      /* J = 26 */
(PID.TID 0000.0001)                 8.089032149259475E+07,      /* J = 27 */
(PID.TID 0000.0001)                 8.152180207452223E+07,      /* J = 28 */
(PID.TID 0000.0001)      . . .
(PID.TID 0000.0001)                 9.409671180895932E+07,      /* J = 48 */
(PID.TID 0000.0001)                 9.472257472228888E+07,      /* J = 49 */
(PID.TID 0000.0001)                 9.534814909420149E+07,      /* J = 50 */
(PID.TID 0000.0001)                 9.597343301913190E+07,      /* J = 51 */
(PID.TID 0000.0001)                 9.659842459236403E+07,      /* J = 52 */
(PID.TID 0000.0001)                 9.722312190998378E+07,      /* J = 53 */
(PID.TID 0000.0001)      . . .
(PID.TID 0000.0001)                 1.096523508263446E+08,      /* J = 73 */
(PID.TID 0000.0001)                 1.102704306306916E+08,      /* J = 74 */
(PID.TID 0000.0001)                 1.108881745321664E+08,      /* J = 75 */
(PID.TID 0000.0001)                 1.115055806490511E+08,      /* J = 76 */
(PID.TID 0000.0001)                 1.121226471005947E+08,      /* J = 77 */
(PID.TID 0000.0001)                 1.127393720071080E+08,      /* J = 78 */
(PID.TID 0000.0001)      . . .
(PID.TID 0000.0001)                 1.249992603617116E+08,      /* J = 98 */
(PID.TID 0000.0001)                 1.256083805070198E+08,      /* J = 99 */
(PID.TID 0000.0001)                 1.262171180274426E+08       /* J =100 */
(PID.TID 0000.0001)     ;
(PID.TID 0000.0001) globalArea = /* Integrated horizontal Area (m^2) */
(PID.TID 0000.0001)                 4.665024516720103E+11
(PID.TID 0000.0001)     ;
(PID.TID 0000.0001) // =======================================================
(PID.TID 0000.0001) // End of Model config. summary
(PID.TID 0000.0001) // =======================================================
(PID.TID 0000.0001) 
(PID.TID 0000.0001) == Packages configuration : Check & print summary ==
(PID.TID 0000.0001) 
(PID.TID 0000.0001) SHELFICE_CHECK: #define ALLOW_SHELFICE
(PID.TID 0000.0001) ICEFRONT_CHECK: #define ALLOW_ICEFRONT
(PID.TID 0000.0001) GAD_CHECK: #define ALLOW_GENERIC_ADVDIFF
(PID.TID 0000.0001) // =======================================================
(PID.TID 0000.0001) // CONFIG_CHECK : Normal End
(PID.TID 0000.0001) // =======================================================
(PID.TID 0000.0001) 
(PID.TID 0000.0001) Start initial hydrostatic pressure computation
(PID.TID 0000.0001) Pressure is predetermined for buoyancyRelation OCEANIC
(PID.TID 0000.0001) 
(PID.TID 0000.0001)  write diagnostics summary to file ioUnit:      6
Iter.Nb:         0 ; Time(s):  0.0000000000000E+00
------------------------------------------------------------------------
2D/3D diagnostics: Number of lists:     2
------------------------------------------------------------------------
listId=    1 ; file name: shelficeDiag
 nFlds, nActive,       freq     &     phase        , nLev               
    2  |    2  |     18000.000000         0.000000 |   1
 levels:   1
 diag# | name   |   ipt  |  iMate | kLev|   count |   mate.C|           
   185 |SHIfwFlx|      1 |      0 |   1 |       0 |
   186 |SHIhtFlx|      2 |      0 |   1 |       0 |
------------------------------------------------------------------------
listId=    2 ; file name: icefrontDiag
 nFlds, nActive,       freq     &     phase        , nLev               
    2  |    2  |     18000.000000         0.000000 |  30
 levels:   1   2   3   4   5   6   7   8   9  10  11  12  13  14  15  16  17  18  19  20  21  22  23  24  25
 levels:  26  27  28  29  30
 diag# | name   |   ipt  |  iMate | kLev|   count |   mate.C|           
   191 |ICFfwFlx|      3 |      0 |  30 |       0 |
   192 |ICFhtFlx|     33 |      0 |  30 |       0 |
------------------------------------------------------------------------
Global & Regional Statistics diagnostics: Number of lists:     0
------------------------------------------------------------------------
(PID.TID 0000.0001)  MDS_READ_FIELD: opening global file: phi0surf.exp1.jmd95z
(PID.TID 0000.0001) // =======================================================
(PID.TID 0000.0001) // Model current state
(PID.TID 0000.0001) // =======================================================
(PID.TID 0000.0001) 
(PID.TID 0000.0001) // =======================================================
(PID.TID 0000.0001) // Begin MONITOR dynamic field statistics
(PID.TID 0000.0001) // =======================================================
(PID.TID 0000.0001) %MON time_tsnumber                =                     0
(PID.TID 0000.0001) %MON time_secondsf                =   0.0000000000000E+00
(PID.TID 0000.0001) %MON dynstat_eta_max              =   0.0000000000000E+00
(PID.TID 0000.0001) %MON dynstat_eta_min              =   0.0000000000000E+00
(PID.TID 0000.0001) %MON dynstat_eta_mean             =   0.0000000000000E+00
(PID.TID 0000.0001) %MON dynstat_eta_sd               =   0.0000000000000E+00
(PID.TID 0000.0001) %MON dynstat_eta_del2             =   0.0000000000000E+00
(PID.TID 0000.0001) %MON dynstat_uvel_max             =   0.0000000000000E+00
(PID.TID 0000.0001) %MON dynstat_uvel_min             =   0.0000000000000E+00
(PID.TID 0000.0001) %MON dynstat_uvel_mean            =   0.0000000000000E+00
(PID.TID 0000.0001) %MON dynstat_uvel_sd              =   0.0000000000000E+00
(PID.TID 0000.0001) %MON dynstat_uvel_del2            =   0.0000000000000E+00
(PID.TID 0000.0001) %MON dynstat_vvel_max             =   0.0000000000000E+00
(PID.TID 0000.0001) %MON dynstat_vvel_min             =   0.0000000000000E+00
(PID.TID 0000.0001) %MON dynstat_vvel_mean            =   0.0000000000000E+00
(PID.TID 0000.0001) %MON dynstat_vvel_sd              =   0.0000000000000E+00
(PID.TID 0000.0001) %MON dynstat_vvel_del2            =   0.0000000000000E+00
(PID.TID 0000.0001) %MON dynstat_wvel_max             =  -0.0000000000000E+00
(PID.TID 0000.0001) %MON dynstat_wvel_min             =  -0.0000000000000E+00
(PID.TID 0000.0001) %MON dynstat_wvel_mean            =   0.0000000000000E+00
(PID.TID 0000.0001) %MON dynstat_wvel_sd              =   0.0000000000000E+00
(PID.TID 0000.0001) %MON dynstat_wvel_del2            =   0.0000000000000E+00
(PID.TID 0000.0001) %MON dynstat_theta_max            =  -1.9000000000000E+00
(PID.TID 0000.0001) %MON dynstat_theta_min            =  -1.9000000000000E+00
(PID.TID 0000.0001) %MON dynstat_theta_mean           =  -1.9000000000001E+00
(PID.TID 0000.0001) %MON dynstat_theta_sd             =   5.0626169922908E-14
(PID.TID 0000.0001) %MON dynstat_theta_del2           =   0.0000000000000E+00
(PID.TID 0000.0001) %MON dynstat_salt_max             =   3.4400000000000E+01
(PID.TID 0000.0001) %MON dynstat_salt_min             =   3.4400000000000E+01
(PID.TID 0000.0001) %MON dynstat_salt_mean            =   3.4400000000003E+01
(PID.TID 0000.0001) %MON dynstat_salt_sd              =   3.3608671401455E-12
(PID.TID 0000.0001) %MON dynstat_salt_del2            =   0.0000000000000E+00
(PID.TID 0000.0001) %MON advcfl_uvel_max              =   0.0000000000000E+00
(PID.TID 0000.0001) %MON advcfl_vvel_max              =   0.0000000000000E+00
(PID.TID 0000.0001) %MON advcfl_wvel_max              =   0.0000000000000E+00
(PID.TID 0000.0001) %MON advcfl_W_hf_max              =   0.0000000000000E+00
(PID.TID 0000.0001) %MON pe_b_mean                    =   0.0000000000000E+00
(PID.TID 0000.0001) %MON ke_max                       =   0.0000000000000E+00
(PID.TID 0000.0001) %MON ke_mean                      =   0.0000000000000E+00
(PID.TID 0000.0001) %MON ke_vol                       =   3.4703745874271E+14
(PID.TID 0000.0001) %MON vort_r_min                   =   0.0000000000000E+00
(PID.TID 0000.0001) %MON vort_r_max                   =   0.0000000000000E+00
(PID.TID 0000.0001) %MON vort_a_mean                  =  -1.3992981969633E-04
(PID.TID 0000.0001) %MON vort_a_sd                    =   1.7365065466767E-06
(PID.TID 0000.0001) %MON vort_p_mean                  =  -1.4746660593271E-04
(PID.TID 0000.0001) %MON vort_p_sd                    =   7.7973631850191E-05
(PID.TID 0000.0001) %MON surfExpan_theta_mean         =   0.0000000000000E+00
(PID.TID 0000.0001) %MON surfExpan_salt_mean          =   0.0000000000000E+00
(PID.TID 0000.0001) // =======================================================
(PID.TID 0000.0001) // End MONITOR dynamic field statistics
(PID.TID 0000.0001) // =======================================================
(PID.TID 0000.0001) SOLVE_FOR_PRESSURE: putPmEinXvector =    F
(PID.TID 0000.0001) SOLVE_FOR_PRESSURE: zeroPsNH=    F , zeroMeanPnh=    F
(PID.TID 0000.0001) SOLVE_FOR_PRESSURE: oldFreeSurfTerm =    F
 cg2d: Sum(rhs),rhsMax =   0.00000000000000E+00  2.15432155478782E-13
(PID.TID 0000.0001)                    cg2d_init_res =    9.10070967505638E+00
(PID.TID 0000.0001)                       cg2d_iters =   215
(PID.TID 0000.0001)                         cg2d_res =    9.94540281738969E-14
(PID.TID 0000.0001) // =======================================================
(PID.TID 0000.0001) // Begin MONITOR dynamic field statistics
(PID.TID 0000.0001) // =======================================================
(PID.TID 0000.0001) %MON time_tsnumber                =                     1
(PID.TID 0000.0001) %MON time_secondsf                =   1.8000000000000E+03
(PID.TID 0000.0001) %MON dynstat_eta_max              =   2.9919160986101E-14
(PID.TID 0000.0001) %MON dynstat_eta_min              =  -3.2192807089659E-14
(PID.TID 0000.0001) %MON dynstat_eta_mean             =  -7.4371462347489E-30
(PID.TID 0000.0001) %MON dynstat_eta_sd               =   9.9873982290878E-15
(PID.TID 0000.0001) %MON dynstat_eta_del2             =   9.7259516538471E-17
(PID.TID 0000.0001) %MON dynstat_uvel_max             =   7.7512654011331E-15
(PID.TID 0000.0001) %MON dynstat_uvel_min             =  -3.7991856522288E-15
(PID.TID 0000.0001) %MON dynstat_uvel_mean            =   1.3724571743162E-16
(PID.TID 0000.0001) %MON dynstat_uvel_sd              =   1.0635067796656E-15
(PID.TID 0000.0001) %MON dynstat_uvel_del2            =   5.1315995161486E-18
(PID.TID 0000.0001) %MON dynstat_vvel_max             =   1.5066539208032E-15
(PID.TID 0000.0001) %MON dynstat_vvel_min             =  -7.0734950420019E-15
(PID.TID 0000.0001) %MON dynstat_vvel_mean            =  -1.4081605676650E-15
(PID.TID 0000.0001) %MON dynstat_vvel_sd              =   1.3443508502261E-15
(PID.TID 0000.0001) %MON dynstat_vvel_del2            =   7.4683880075937E-19
(PID.TID 0000.0001) %MON dynstat_wvel_max             =   9.6145284048154E-17
(PID.TID 0000.0001) %MON dynstat_wvel_min             =  -1.9887219473980E-16
(PID.TID 0000.0001) %MON dynstat_wvel_mean            =  -1.2251668500951E-18
(PID.TID 0000.0001) %MON dynstat_wvel_sd              =   4.9328966115773E-18
(PID.TID 0000.0001) %MON dynstat_wvel_del2            =   3.0053791339135E-20
(PID.TID 0000.0001) %MON dynstat_theta_max            =  -1.9000000000000E+00
(PID.TID 0000.0001) %MON dynstat_theta_min            =  -1.9006851721692E+00
(PID.TID 0000.0001) %MON dynstat_theta_mean           =  -1.9000057693499E+00
(PID.TID 0000.0001) %MON dynstat_theta_sd             =   4.4667286239157E-05
(PID.TID 0000.0001) %MON dynstat_theta_del2           =   5.2806570677999E-08
(PID.TID 0000.0001) %MON dynstat_salt_max             =   3.4400000000000E+01
(PID.TID 0000.0001) %MON dynstat_salt_min             =   3.4399720387688E+01
(PID.TID 0000.0001) %MON dynstat_salt_mean            =   3.4399997656847E+01
(PID.TID 0000.0001) %MON dynstat_salt_sd              =   1.8183098456483E-05
(PID.TID 0000.0001) %MON dynstat_salt_del2            =   2.1474097321698E-08
(PID.TID 0000.0001) %MON advcfl_uvel_max              =   1.6197403405450E-15
(PID.TID 0000.0001) %MON advcfl_vvel_max              =   1.1452222011996E-15
(PID.TID 0000.0001) %MON advcfl_wvel_max              =   1.1932331684388E-14
(PID.TID 0000.0001) %MON advcfl_W_hf_max              =   1.1932331684388E-14
(PID.TID 0000.0001) %MON pe_b_mean                    =  -2.3110625695951E-17
(PID.TID 0000.0001) %MON ke_max                       =   3.5786188666853E-29
(PID.TID 0000.0001) %MON ke_mean                      =   2.4335693995151E-30
(PID.TID 0000.0001) %MON ke_vol                       =   3.4703745874271E+14
(PID.TID 0000.0001) %MON vort_r_min                   =  -7.2737262356444E-19
(PID.TID 0000.0001) %MON vort_r_max                   =   8.2478088353974E-19
(PID.TID 0000.0001) %MON vort_a_mean                  =  -1.3992981969633E-04
(PID.TID 0000.0001) %MON vort_a_sd                    =   1.7365065466786E-06
(PID.TID 0000.0001) %MON vort_p_mean                  =  -1.4746660593271E-04
(PID.TID 0000.0001) %MON vort_p_sd                    =   7.7973631850191E-05
(PID.TID 0000.0001) %MON surfExpan_theta_mean         =  -9.1878317217798E-22
(PID.TID 0000.0001) %MON surfExpan_salt_mean          =  -3.7404318411544E-22
(PID.TID 0000.0001) // =======================================================
(PID.TID 0000.0001) // End MONITOR dynamic field statistics
(PID.TID 0000.0001) // =======================================================
 cg2d: Sum(rhs),rhsMax =  -6.39488462184090E-14  1.95795145366300E-05
(PID.TID 0000.0001)                    cg2d_init_res =    2.54955285512240E+01
(PID.TID 0000.0001)                       cg2d_iters =   216
(PID.TID 0000.0001)                         cg2d_res =    8.86435338593266E-14
(PID.TID 0000.0001) // =======================================================
(PID.TID 0000.0001) // Begin MONITOR dynamic field statistics
(PID.TID 0000.0001) // =======================================================
(PID.TID 0000.0001) %MON time_tsnumber                =                     2
(PID.TID 0000.0001) %MON time_secondsf                =   3.6000000000000E+03
(PID.TID 0000.0001) %MON dynstat_eta_max              =   4.2790502012373E-06
(PID.TID 0000.0001) %MON dynstat_eta_min              =  -3.2395676390119E-06
(PID.TID 0000.0001) %MON dynstat_eta_mean             =   6.6546458028784E-22
(PID.TID 0000.0001) %MON dynstat_eta_sd               =   1.1774572097769E-06
(PID.TID 0000.0001) %MON dynstat_eta_del2             =   4.7553080966305E-08
(PID.TID 0000.0001) %MON dynstat_uvel_max             =   1.5307342284531E-06
(PID.TID 0000.0001) %MON dynstat_uvel_min             =  -1.6963636737532E-06
(PID.TID 0000.0001) %MON dynstat_uvel_mean            =   8.6291373419389E-09
(PID.TID 0000.0001) %MON dynstat_uvel_sd              =   2.0836513760215E-07
(PID.TID 0000.0001) %MON dynstat_uvel_del2            =   1.6206268741628E-09
(PID.TID 0000.0001) %MON dynstat_vvel_max             =   6.0403838832697E-06
(PID.TID 0000.0001) %MON dynstat_vvel_min             =  -1.5839227448247E-06
(PID.TID 0000.0001) %MON dynstat_vvel_mean            =  -9.3815927868042E-08
(PID.TID 0000.0001) %MON dynstat_vvel_sd              =   3.2435900895950E-07
(PID.TID 0000.0001) %MON dynstat_vvel_del2            =   8.8870743021655E-10
(PID.TID 0000.0001) %MON dynstat_wvel_max             =   1.4568031712044E-08
(PID.TID 0000.0001) %MON dynstat_wvel_min             =  -2.4818639921351E-08
(PID.TID 0000.0001) %MON dynstat_wvel_mean            =  -7.5043891150791E-11
(PID.TID 0000.0001) %MON dynstat_wvel_sd              =   1.1828275821156E-09
(PID.TID 0000.0001) %MON dynstat_wvel_del2            =   1.1014565313902E-11
(PID.TID 0000.0001) %MON dynstat_theta_max            =  -1.9000000000000E+00
(PID.TID 0000.0001) %MON dynstat_theta_min            =  -1.9013688224855E+00
(PID.TID 0000.0001) %MON dynstat_theta_mean           =  -1.9000115281051E+00
(PID.TID 0000.0001) %MON dynstat_theta_sd             =   8.9223690134448E-05
(PID.TID 0000.0001) %MON dynstat_theta_del2           =   1.0526240489742E-07
(PID.TID 0000.0001) %MON dynstat_salt_max             =   3.4400000000000E+01
(PID.TID 0000.0001) %MON dynstat_salt_min             =   3.4399441399459E+01
(PID.TID 0000.0001) %MON dynstat_salt_mean            =   3.4399995318035E+01
(PID.TID 0000.0001) %MON dynstat_salt_sd              =   3.6320778904377E-05
(PID.TID 0000.0001) %MON dynstat_salt_del2            =   4.2805259160864E-08
(PID.TID 0000.0001) %MON advcfl_uvel_max              =   5.1448317269236E-07
(PID.TID 0000.0001) %MON advcfl_vvel_max              =   9.7795809367402E-07
(PID.TID 0000.0001) %MON advcfl_wvel_max              =   1.4891183952811E-06
(PID.TID 0000.0001) %MON advcfl_W_hf_max              =   3.5835727693170E-06
(PID.TID 0000.0001) %MON pe_b_mean                    =  -1.7609454792133E-09
(PID.TID 0000.0001) %MON ke_max                       =   9.7380686360605E-12
(PID.TID 0000.0001) %MON ke_mean                      =   7.7562487864389E-14
(PID.TID 0000.0001) %MON ke_vol                       =   3.4703745874271E+14
(PID.TID 0000.0001) %MON vort_r_min                   =  -1.0226932785958E-09
(PID.TID 0000.0001) %MON vort_r_max                   =   9.9652002172618E-10
(PID.TID 0000.0001) %MON vort_a_mean                  =  -1.3992981969605E-04
(PID.TID 0000.0001) %MON vort_a_sd                    =   1.7365065707437E-06
(PID.TID 0000.0001) %MON vort_p_mean                  =  -1.4746660593242E-04
(PID.TID 0000.0001) %MON vort_p_sd                    =   7.7973630990815E-05
(PID.TID 0000.0001) %MON surfExpan_theta_mean         =  -1.1588388252115E-13
(PID.TID 0000.0001) %MON surfExpan_salt_mean          =  -4.7055328691761E-14
(PID.TID 0000.0001) // =======================================================
(PID.TID 0000.0001) // End MONITOR dynamic field statistics
(PID.TID 0000.0001) // =======================================================
 cg2d: Sum(rhs),rhsMax =   1.42108547152020E-14  3.07801366055706E-05
(PID.TID 0000.0001)                    cg2d_init_res =    1.01793727631930E+01
(PID.TID 0000.0001)                       cg2d_iters =   215
(PID.TID 0000.0001)                         cg2d_res =    9.51235583402808E-14
(PID.TID 0000.0001) // =======================================================
(PID.TID 0000.0001) // Begin MONITOR dynamic field statistics
(PID.TID 0000.0001) // =======================================================
(PID.TID 0000.0001) %MON time_tsnumber                =                     3
(PID.TID 0000.0001) %MON time_secondsf                =   5.4000000000000E+03
(PID.TID 0000.0001) %MON dynstat_eta_max              =   8.6547397666649E-06
(PID.TID 0000.0001) %MON dynstat_eta_min              =  -4.9228335369450E-06
(PID.TID 0000.0001) %MON dynstat_eta_mean             =   5.0575308101876E-21
(PID.TID 0000.0001) %MON dynstat_eta_sd               =   2.4215499793978E-06
(PID.TID 0000.0001) %MON dynstat_eta_del2             =   7.7482297160183E-08
(PID.TID 0000.0001) %MON dynstat_uvel_max             =   3.1215028142414E-06
(PID.TID 0000.0001) %MON dynstat_uvel_min             =  -5.2466738483154E-06
(PID.TID 0000.0001) %MON dynstat_uvel_mean            =   1.9407972740982E-08
(PID.TID 0000.0001) %MON dynstat_uvel_sd              =   4.6564171855853E-07
(PID.TID 0000.0001) %MON dynstat_uvel_del2            =   3.0812284585613E-09
(PID.TID 0000.0001) %MON dynstat_vvel_max             =   1.4776834918620E-05
(PID.TID 0000.0001) %MON dynstat_vvel_min             =  -3.3507067427070E-06
(PID.TID 0000.0001) %MON dynstat_vvel_mean            =  -2.2054481162059E-07
(PID.TID 0000.0001) %MON dynstat_vvel_sd              =   8.0251655692028E-07
(PID.TID 0000.0001) %MON dynstat_vvel_del2            =   2.1532695497129E-09
(PID.TID 0000.0001) %MON dynstat_wvel_max             =   3.7103075253099E-08
(PID.TID 0000.0001) %MON dynstat_wvel_min             =  -5.2375168648512E-08
(PID.TID 0000.0001) %MON dynstat_wvel_mean            =  -1.5923687939708E-10
(PID.TID 0000.0001) %MON dynstat_wvel_sd              =   2.6964812500525E-09
(PID.TID 0000.0001) %MON dynstat_wvel_del2            =   2.5507876257299E-11
(PID.TID 0000.0001) %MON dynstat_theta_max            =  -1.9000000000000E+00
(PID.TID 0000.0001) %MON dynstat_theta_min            =  -1.9020515256924E+00
(PID.TID 0000.0001) %MON dynstat_theta_mean           =  -1.9000172802663E+00
(PID.TID 0000.0001) %MON dynstat_theta_sd             =   1.3371114716692E-04
(PID.TID 0000.0001) %MON dynstat_theta_del2           =   1.5750272489346E-07
(PID.TID 0000.0001) %MON dynstat_salt_max             =   3.4400000000000E+01
(PID.TID 0000.0001) %MON dynstat_salt_min             =   3.4399162799614E+01
(PID.TID 0000.0001) %MON dynstat_salt_mean            =   3.4399992981926E+01
(PID.TID 0000.0001) %MON dynstat_salt_sd              =   5.4430218632749E-05
(PID.TID 0000.0001) %MON dynstat_salt_del2            =   6.4048490602325E-08
(PID.TID 0000.0001) %MON advcfl_uvel_max              =   1.5912421665993E-06
(PID.TID 0000.0001) %MON advcfl_vvel_max              =   2.3924183606235E-06
(PID.TID 0000.0001) %MON advcfl_wvel_max              =   3.1425101189107E-06
(PID.TID 0000.0001) %MON advcfl_W_hf_max              =   4.8887899190113E-06
(PID.TID 0000.0001) %MON pe_b_mean                    =  -5.1153727087034E-09
(PID.TID 0000.0001) %MON ke_max                       =   6.3271932621767E-11
(PID.TID 0000.0001) %MON ke_mean                      =   4.4819888523480E-13
(PID.TID 0000.0001) %MON ke_vol                       =   3.4703745874271E+14
(PID.TID 0000.0001) %MON vort_r_min                   =  -2.5018558492697E-09
(PID.TID 0000.0001) %MON vort_r_max                   =   2.4267913462350E-09
(PID.TID 0000.0001) %MON vort_a_mean                  =  -1.3992981969341E-04
(PID.TID 0000.0001) %MON vort_a_sd                    =   1.7365066006840E-06
(PID.TID 0000.0001) %MON vort_p_mean                  =  -1.4746660592964E-04
(PID.TID 0000.0001) %MON vort_p_sd                    =   7.7973609301410E-05
(PID.TID 0000.0001) %MON surfExpan_theta_mean         =  -3.5924176571580E-13
(PID.TID 0000.0001) %MON surfExpan_salt_mean          =  -1.4613829914523E-13
(PID.TID 0000.0001) // =======================================================
(PID.TID 0000.0001) // End MONITOR dynamic field statistics
(PID.TID 0000.0001) // =======================================================
 cg2d: Sum(rhs),rhsMax =  -2.13162820728030E-13  4.19688242029582E-05
(PID.TID 0000.0001)                    cg2d_init_res =    7.40760566541692E+00
(PID.TID 0000.0001)                       cg2d_iters =   213
(PID.TID 0000.0001)                         cg2d_res =    8.71416139689498E-14
(PID.TID 0000.0001) // =======================================================
(PID.TID 0000.0001) // Begin MONITOR dynamic field statistics
(PID.TID 0000.0001) // =======================================================
(PID.TID 0000.0001) %MON time_tsnumber                =                     4
(PID.TID 0000.0001) %MON time_secondsf                =   7.2000000000000E+03
(PID.TID 0000.0001) %MON dynstat_eta_max              =   1.4213473355224E-05
(PID.TID 0000.0001) %MON dynstat_eta_min              =  -7.3255220611963E-06
(PID.TID 0000.0001) %MON dynstat_eta_mean             =   4.7913449780724E-21
(PID.TID 0000.0001) %MON dynstat_eta_sd               =   4.1430895928839E-06
(PID.TID 0000.0001) %MON dynstat_eta_del2             =   1.0713311023048E-07
(PID.TID 0000.0001) %MON dynstat_uvel_max             =   5.0665700820159E-06
(PID.TID 0000.0001) %MON dynstat_uvel_min             =  -1.1172254097807E-05
(PID.TID 0000.0001) %MON dynstat_uvel_mean            =   2.6313338805343E-08
(PID.TID 0000.0001) %MON dynstat_uvel_sd              =   8.5722113729919E-07
(PID.TID 0000.0001) %MON dynstat_uvel_del2            =   4.7357835171109E-09
(PID.TID 0000.0001) %MON dynstat_vvel_max             =   2.5582040034362E-05
(PID.TID 0000.0001) %MON dynstat_vvel_min             =  -5.3611512520070E-06
(PID.TID 0000.0001) %MON dynstat_vvel_mean            =  -3.5623382707115E-07
(PID.TID 0000.0001) %MON dynstat_vvel_sd              =   1.3985946254346E-06
(PID.TID 0000.0001) %MON dynstat_vvel_del2            =   3.7118312222489E-09
(PID.TID 0000.0001) %MON dynstat_wvel_max             =   6.8819629682676E-08
(PID.TID 0000.0001) %MON dynstat_wvel_min             =  -8.6404975443711E-08
(PID.TID 0000.0001) %MON dynstat_wvel_mean            =  -2.4409603142878E-10
(PID.TID 0000.0001) %MON dynstat_wvel_sd              =   4.6694122490001E-09
(PID.TID 0000.0001) %MON dynstat_wvel_del2            =   4.3665740201376E-11
(PID.TID 0000.0001) %MON dynstat_theta_max            =  -1.9000000000000E+00
(PID.TID 0000.0001) %MON dynstat_theta_min            =  -1.9027332828664E+00
(PID.TID 0000.0001) %MON dynstat_theta_mean           =  -1.9000230258413E+00
(PID.TID 0000.0001) %MON dynstat_theta_sd             =   1.7812975832722E-04
(PID.TID 0000.0001) %MON dynstat_theta_del2           =   2.0952816605525E-07
(PID.TID 0000.0001) %MON dynstat_salt_max             =   3.4400000000000E+01
(PID.TID 0000.0001) %MON dynstat_salt_min             =   3.4398884587709E+01
(PID.TID 0000.0001) %MON dynstat_salt_mean            =   3.4399990648518E+01
(PID.TID 0000.0001) %MON dynstat_salt_sd              =   7.2511459155546E-05
(PID.TID 0000.0001) %MON dynstat_salt_del2            =   8.5204077694505E-08
(PID.TID 0000.0001) %MON advcfl_uvel_max              =   3.3883870677612E-06
(PID.TID 0000.0001) %MON advcfl_vvel_max              =   4.1418167434012E-06
(PID.TID 0000.0001) %MON advcfl_wvel_max              =   5.1842985266226E-06
(PID.TID 0000.0001) %MON advcfl_W_hf_max              =   7.5686311395316E-06
(PID.TID 0000.0001) %MON pe_b_mean                    =  -1.0054807520934E-08
(PID.TID 0000.0001) %MON ke_max                       =   2.1353592066949E-10
(PID.TID 0000.0001) %MON ke_mean                      =   1.3881453749568E-12
(PID.TID 0000.0001) %MON ke_vol                       =   3.4703745874271E+14
(PID.TID 0000.0001) %MON vort_r_min                   =  -4.3312777633845E-09
(PID.TID 0000.0001) %MON vort_r_max                   =   4.1976340715950E-09
(PID.TID 0000.0001) %MON vort_a_mean                  =  -1.3992981968449E-04
(PID.TID 0000.0001) %MON vort_a_sd                    =   1.7365066332995E-06
(PID.TID 0000.0001) %MON vort_p_mean                  =  -1.4746660592024E-04
(PID.TID 0000.0001) %MON vort_p_sd                    =   7.7973564008926E-05
(PID.TID 0000.0001) %MON surfExpan_theta_mean         =  -7.3212281259268E-13
(PID.TID 0000.0001) %MON surfExpan_salt_mean          =  -2.9799507142475E-13
(PID.TID 0000.0001) // =======================================================
(PID.TID 0000.0001) // End MONITOR dynamic field statistics
(PID.TID 0000.0001) // =======================================================
 cg2d: Sum(rhs),rhsMax =  -2.91322521661641E-13  5.31101662731036E-05
(PID.TID 0000.0001)                    cg2d_init_res =    5.85290107310721E+00
(PID.TID 0000.0001)                       cg2d_iters =   213
(PID.TID 0000.0001)                         cg2d_res =    7.98312360110163E-14
(PID.TID 0000.0001) // =======================================================
(PID.TID 0000.0001) // Begin MONITOR dynamic field statistics
(PID.TID 0000.0001) // =======================================================
(PID.TID 0000.0001) %MON time_tsnumber                =                     5
(PID.TID 0000.0001) %MON time_secondsf                =   9.0000000000000E+03
(PID.TID 0000.0001) %MON dynstat_eta_max              =   2.0803502503147E-05
(PID.TID 0000.0001) %MON dynstat_eta_min              =  -9.6721305851695E-06
(PID.TID 0000.0001) %MON dynstat_eta_mean             =  -5.3237166423027E-21
(PID.TID 0000.0001) %MON dynstat_eta_sd               =   6.3343472791941E-06
(PID.TID 0000.0001) %MON dynstat_eta_del2             =   1.3679661035826E-07
(PID.TID 0000.0001) %MON dynstat_uvel_max             =   7.3444169415091E-06
(PID.TID 0000.0001) %MON dynstat_uvel_min             =  -1.9724742836470E-05
(PID.TID 0000.0001) %MON dynstat_uvel_mean            =   2.6281299785507E-08
(PID.TID 0000.0001) %MON dynstat_uvel_sd              =   1.4130712033037E-06
(PID.TID 0000.0001) %MON dynstat_uvel_del2            =   6.5437055125604E-09
(PID.TID 0000.0001) %MON dynstat_vvel_max             =   3.7665463777832E-05
(PID.TID 0000.0001) %MON dynstat_vvel_min             =  -7.4380155965020E-06
(PID.TID 0000.0001) %MON dynstat_vvel_mean            =  -4.7869816854370E-07
(PID.TID 0000.0001) %MON dynstat_vvel_sd              =   2.0686112183260E-06
(PID.TID 0000.0001) %MON dynstat_vvel_del2            =   5.4424082409740E-09
(PID.TID 0000.0001) %MON dynstat_wvel_max             =   1.1656915028464E-07
(PID.TID 0000.0001) %MON dynstat_wvel_min             =  -1.2474719194202E-07
(PID.TID 0000.0001) %MON dynstat_wvel_mean            =  -3.1831166604247E-10
(PID.TID 0000.0001) %MON dynstat_wvel_sd              =   6.9635465893110E-09
(PID.TID 0000.0001) %MON dynstat_wvel_del2            =   6.3850023068393E-11
(PID.TID 0000.0001) %MON dynstat_theta_max            =  -1.9000000000000E+00
(PID.TID 0000.0001) %MON dynstat_theta_min            =  -1.9034140956644E+00
(PID.TID 0000.0001) %MON dynstat_theta_mean           =  -1.9000287648412E+00
(PID.TID 0000.0001) %MON dynstat_theta_sd             =   2.2247966934347E-04
(PID.TID 0000.0001) %MON dynstat_theta_del2           =   2.6133882257173E-07
(PID.TID 0000.0001) %MON dynstat_salt_max             =   3.4400000000000E+01
(PID.TID 0000.0001) %MON dynstat_salt_min             =   3.4398606763059E+01
(PID.TID 0000.0001) %MON dynstat_salt_mean            =   3.4399988317806E+01
(PID.TID 0000.0001) %MON dynstat_salt_sd              =   9.0564560323902E-05
(PID.TID 0000.0001) %MON dynstat_salt_del2            =   1.0627210854366E-07
(PID.TID 0000.0001) %MON advcfl_uvel_max              =   5.9822362575093E-06
(PID.TID 0000.0001) %MON advcfl_vvel_max              =   6.0981629421834E-06
(PID.TID 0000.0001) %MON advcfl_wvel_max              =   7.4848315165212E-06
(PID.TID 0000.0001) %MON advcfl_W_hf_max              =   1.0688801971406E-05
(PID.TID 0000.0001) %MON pe_b_mean                    =  -1.6382220131625E-08
(PID.TID 0000.0001) %MON ke_max                       =   5.2582078942920E-10
(PID.TID 0000.0001) %MON ke_mean                      =   3.2030774156326E-12
(PID.TID 0000.0001) %MON ke_vol                       =   3.4703745874271E+14
(PID.TID 0000.0001) %MON vort_r_min                   =  -6.3771140022203E-09
(PID.TID 0000.0001) %MON vort_r_max                   =   6.1790350934940E-09
(PID.TID 0000.0001) %MON vort_a_mean                  =  -1.3992981966599E-04
(PID.TID 0000.0001) %MON vort_a_sd                    =   1.7365066756716E-06
(PID.TID 0000.0001) %MON vort_p_mean                  =  -1.4746660590074E-04
(PID.TID 0000.0001) %MON vort_p_sd                    =   7.7973491461507E-05
(PID.TID 0000.0001) %MON surfExpan_theta_mean         =  -1.1918873237436E-12
(PID.TID 0000.0001) %MON surfExpan_salt_mean          =  -4.8522514433800E-13
(PID.TID 0000.0001) // =======================================================
(PID.TID 0000.0001) // End MONITOR dynamic field statistics
(PID.TID 0000.0001) // =======================================================
 cg2d: Sum(rhs),rhsMax =   1.13686837721616E-13  6.41408482193192E-05
(PID.TID 0000.0001)                    cg2d_init_res =    4.83954366278432E+00
(PID.TID 0000.0001)                       cg2d_iters =   212
(PID.TID 0000.0001)                         cg2d_res =    9.24106468665283E-14
(PID.TID 0000.0001) // =======================================================
(PID.TID 0000.0001) // Begin MONITOR dynamic field statistics
(PID.TID 0000.0001) // =======================================================
(PID.TID 0000.0001) %MON time_tsnumber                =                     6
(PID.TID 0000.0001) %MON time_secondsf                =   1.0800000000000E+04
(PID.TID 0000.0001) %MON dynstat_eta_max              =   2.7999035640451E-05
(PID.TID 0000.0001) %MON dynstat_eta_min              =  -1.1809529669569E-05
(PID.TID 0000.0001) %MON dynstat_eta_mean             =  -6.9208316349935E-21
(PID.TID 0000.0001) %MON dynstat_eta_sd               =   8.8945716748727E-06
(PID.TID 0000.0001) %MON dynstat_eta_del2             =   1.6642594721065E-07
(PID.TID 0000.0001) %MON dynstat_uvel_max             =   9.8871365867098E-06
(PID.TID 0000.0001) %MON dynstat_uvel_min             =  -3.0965277909680E-05
(PID.TID 0000.0001) %MON dynstat_uvel_mean            =   1.9525374766090E-08
(PID.TID 0000.0001) %MON dynstat_uvel_sd              =   2.1461170119758E-06
(PID.TID 0000.0001) %MON dynstat_uvel_del2            =   8.4776490003899E-09
(PID.TID 0000.0001) %MON dynstat_vvel_max             =   5.0200245615509E-05
(PID.TID 0000.0001) %MON dynstat_vvel_min             =  -9.4227304951594E-06
(PID.TID 0000.0001) %MON dynstat_vvel_mean            =  -5.7146325832655E-07
(PID.TID 0000.0001) %MON dynstat_vvel_sd              =   2.7657379196146E-06
(PID.TID 0000.0001) %MON dynstat_vvel_del2            =   7.2238937702682E-09
(PID.TID 0000.0001) %MON dynstat_wvel_max             =   1.7813539456291E-07
(PID.TID 0000.0001) %MON dynstat_wvel_min             =  -1.8029035437383E-07
(PID.TID 0000.0001) %MON dynstat_wvel_mean            =  -3.7334370754890E-10
(PID.TID 0000.0001) %MON dynstat_wvel_sd              =   9.4770309421030E-09
(PID.TID 0000.0001) %MON dynstat_wvel_del2            =   8.4683720771621E-11
(PID.TID 0000.0001) %MON dynstat_theta_max            =  -1.9000000000000E+00
(PID.TID 0000.0001) %MON dynstat_theta_min            =  -1.9040939658950E+00
(PID.TID 0000.0001) %MON dynstat_theta_mean           =  -1.9000344972774E+00
(PID.TID 0000.0001) %MON dynstat_theta_sd             =   2.6676102628007E-04
(PID.TID 0000.0001) %MON dynstat_theta_del2           =   3.1293611793660E-07
(PID.TID 0000.0001) %MON dynstat_salt_max             =   3.4400000000000E+01
(PID.TID 0000.0001) %MON dynstat_salt_min             =   3.4398329324919E+01
(PID.TID 0000.0001) %MON dynstat_salt_mean            =   3.4399985989785E+01
(PID.TID 0000.0001) %MON dynstat_salt_sd              =   1.0858958213233E-04
(PID.TID 0000.0001) %MON dynstat_salt_del2            =   1.2725305241696E-07
(PID.TID 0000.0001) %MON advcfl_uvel_max              =   9.3913319819125E-06
(PID.TID 0000.0001) %MON advcfl_vvel_max              =   8.1275855066245E-06
(PID.TID 0000.0001) %MON advcfl_wvel_max              =   1.0817421262430E-05
(PID.TID 0000.0001) %MON advcfl_W_hf_max              =   1.4010393163046E-05
(PID.TID 0000.0001) %MON pe_b_mean                    =  -2.3758746537040E-08
(PID.TID 0000.0001) %MON ke_max                       =   1.0722910888476E-09
(PID.TID 0000.0001) %MON ke_mean                      =   6.1919823357390E-12
(PID.TID 0000.0001) %MON ke_vol                       =   3.4703745874271E+14
(PID.TID 0000.0001) %MON vort_r_min                   =  -8.4993693723736E-09
(PID.TID 0000.0001) %MON vort_r_max                   =   8.2345174465806E-09
(PID.TID 0000.0001) %MON vort_a_mean                  =  -1.3992981963796E-04
(PID.TID 0000.0001) %MON vort_a_sd                    =   1.7365067274810E-06
(PID.TID 0000.0001) %MON vort_p_mean                  =  -1.4746660587120E-04
(PID.TID 0000.0001) %MON vort_p_sd                    =   7.7973390161945E-05
(PID.TID 0000.0001) %MON surfExpan_theta_mean         =  -1.6756341083101E-12
(PID.TID 0000.0001) %MON surfExpan_salt_mean          =  -6.8219162742960E-13
(PID.TID 0000.0001) // =======================================================
(PID.TID 0000.0001) // End MONITOR dynamic field statistics
(PID.TID 0000.0001) // =======================================================
 cg2d: Sum(rhs),rhsMax =  -1.49213974509621E-13  7.49529508492384E-05
(PID.TID 0000.0001)                    cg2d_init_res =    4.13518265364283E+00
(PID.TID 0000.0001)                       cg2d_iters =   211
(PID.TID 0000.0001)                         cg2d_res =    9.90992117582199E-14
(PID.TID 0000.0001) // =======================================================
(PID.TID 0000.0001) // Begin MONITOR dynamic field statistics
(PID.TID 0000.0001) // =======================================================
(PID.TID 0000.0001) %MON time_tsnumber                =                     7
(PID.TID 0000.0001) %MON time_secondsf                =   1.2600000000000E+04
(PID.TID 0000.0001) %MON dynstat_eta_max              =   3.5358326230589E-05
(PID.TID 0000.0001) %MON dynstat_eta_min              =  -1.3665697830649E-05
(PID.TID 0000.0001) %MON dynstat_eta_mean             =   1.5971149926908E-20
(PID.TID 0000.0001) %MON dynstat_eta_sd               =   1.1675854981701E-05
(PID.TID 0000.0001) %MON dynstat_eta_del2             =   1.9601749294212E-07
(PID.TID 0000.0001) %MON dynstat_uvel_max             =   1.2619922667084E-05
(PID.TID 0000.0001) %MON dynstat_uvel_min             =  -4.4807443462916E-05
(PID.TID 0000.0001) %MON dynstat_uvel_mean            =   8.3776507786596E-09
(PID.TID 0000.0001) %MON dynstat_uvel_sd              =   3.0545361085904E-06
(PID.TID 0000.0001) %MON dynstat_uvel_del2            =   1.0522373878803E-08
(PID.TID 0000.0001) %MON dynstat_vvel_max             =   6.2382874671070E-05
(PID.TID 0000.0001) %MON dynstat_vvel_min             =  -1.1186324291721E-05
(PID.TID 0000.0001) %MON dynstat_vvel_mean            =  -6.2525128154924E-07
(PID.TID 0000.0001) %MON dynstat_vvel_sd              =   3.4436322113363E-06
(PID.TID 0000.0001) %MON dynstat_vvel_del2            =   8.9423335136797E-09
(PID.TID 0000.0001) %MON dynstat_wvel_max             =   2.5149101819815E-07
(PID.TID 0000.0001) %MON dynstat_wvel_min             =  -2.5123110020085E-07
(PID.TID 0000.0001) %MON dynstat_wvel_mean            =  -4.0435105867565E-10
(PID.TID 0000.0001) %MON dynstat_wvel_sd              =   1.2118802459105E-08
(PID.TID 0000.0001) %MON dynstat_wvel_del2            =   1.0489876071438E-10
(PID.TID 0000.0001) %MON dynstat_theta_max            =  -1.9000000000000E+00
(PID.TID 0000.0001) %MON dynstat_theta_min            =  -1.9047728955573E+00
(PID.TID 0000.0001) %MON dynstat_theta_mean           =  -1.9000402231615E+00
(PID.TID 0000.0001) %MON dynstat_theta_sd             =   3.1097397571428E-04
(PID.TID 0000.0001) %MON dynstat_theta_del2           =   3.6432376113328E-07
(PID.TID 0000.0001) %MON dynstat_salt_max             =   3.4400000000000E+01
(PID.TID 0000.0001) %MON dynstat_salt_min             =   3.4398052272468E+01
(PID.TID 0000.0001) %MON dynstat_salt_mean            =   3.4399983664451E+01
(PID.TID 0000.0001) %MON dynstat_salt_sd              =   1.2658658477819E-04
(PID.TID 0000.0001) %MON dynstat_salt_del2            =   1.4814847328115E-07
(PID.TID 0000.0001) %MON advcfl_uvel_max              =   1.3589465531309E-05
(PID.TID 0000.0001) %MON advcfl_vvel_max              =   1.0099993372971E-05
(PID.TID 0000.0001) %MON advcfl_wvel_max              =   1.5089461091889E-05
(PID.TID 0000.0001) %MON advcfl_W_hf_max              =   1.9293702585135E-05
(PID.TID 0000.0001) %MON pe_b_mean                    =  -3.1750452393658E-08
(PID.TID 0000.0001) %MON ke_max                       =   1.9208138631514E-09
(PID.TID 0000.0001) %MON ke_mean                      =   1.0614749711121E-11
(PID.TID 0000.0001) %MON ke_vol                       =   3.4703745874271E+14
(PID.TID 0000.0001) %MON vort_r_min                   =  -1.0562001994989E-08
(PID.TID 0000.0001) %MON vort_r_max                   =   1.0230879605127E-08
(PID.TID 0000.0001) %MON vort_a_mean                  =  -1.3992981960403E-04
(PID.TID 0000.0001) %MON vort_a_sd                    =   1.7365067763657E-06
(PID.TID 0000.0001) %MON vort_p_mean                  =  -1.4746660583544E-04
(PID.TID 0000.0001) %MON vort_p_sd                    =   7.7973260686225E-05
(PID.TID 0000.0001) %MON surfExpan_theta_mean         =  -2.1148388317195E-12
(PID.TID 0000.0001) %MON surfExpan_salt_mean          =  -8.6098502018147E-13
(PID.TID 0000.0001) // =======================================================
(PID.TID 0000.0001) // End MONITOR dynamic field statistics
(PID.TID 0000.0001) // =======================================================
 cg2d: Sum(rhs),rhsMax =   9.23705556488130E-14  8.55252042346489E-05
(PID.TID 0000.0001)                    cg2d_init_res =    3.61839387140184E+00
(PID.TID 0000.0001)                       cg2d_iters =   210
(PID.TID 0000.0001)                         cg2d_res =    8.98102446401730E-14
(PID.TID 0000.0001) // =======================================================
(PID.TID 0000.0001) // Begin MONITOR dynamic field statistics
(PID.TID 0000.0001) // =======================================================
(PID.TID 0000.0001) %MON time_tsnumber                =                     8
(PID.TID 0000.0001) %MON time_secondsf                =   1.4400000000000E+04
(PID.TID 0000.0001) %MON dynstat_eta_max              =   4.2523020889104E-05
(PID.TID 0000.0001) %MON dynstat_eta_min              =  -1.5216103380471E-05
(PID.TID 0000.0001) %MON dynstat_eta_mean             =   6.3884599707632E-21
(PID.TID 0000.0001) %MON dynstat_eta_sd               =   1.4514502164659E-05
(PID.TID 0000.0001) %MON dynstat_eta_del2             =   2.2556986497918E-07
(PID.TID 0000.0001) %MON dynstat_uvel_max             =   1.5460161934360E-05
(PID.TID 0000.0001) %MON dynstat_uvel_min             =  -6.0952934261384E-05
(PID.TID 0000.0001) %MON dynstat_uvel_mean            =  -4.2296797116536E-09
(PID.TID 0000.0001) %MON dynstat_uvel_sd              =   4.1236878790116E-06
(PID.TID 0000.0001) %MON dynstat_uvel_del2            =   1.2669068687796E-08
(PID.TID 0000.0001) %MON dynstat_vvel_max             =   7.3482354550090E-05
(PID.TID 0000.0001) %MON dynstat_vvel_min             =  -1.2632194339049E-05
(PID.TID 0000.0001) %MON dynstat_vvel_mean            =  -6.3779541622604E-07
(PID.TID 0000.0001) %MON dynstat_vvel_sd              =   4.0595639645910E-06
(PID.TID 0000.0001) %MON dynstat_vvel_del2            =   1.0497007602029E-08
(PID.TID 0000.0001) %MON dynstat_wvel_max             =   3.3480882564387E-07
(PID.TID 0000.0001) %MON dynstat_wvel_min             =  -3.3106219693282E-07
(PID.TID 0000.0001) %MON dynstat_wvel_mean            =  -4.1020912407740E-10
(PID.TID 0000.0001) %MON dynstat_wvel_sd              =   1.4810045819646E-08
(PID.TID 0000.0001) %MON dynstat_wvel_del2            =   1.2340565113147E-10
(PID.TID 0000.0001) %MON dynstat_theta_max            =  -1.9000000000000E+00
(PID.TID 0000.0001) %MON dynstat_theta_min            =  -1.9054508868567E+00
(PID.TID 0000.0001) %MON dynstat_theta_mean           =  -1.9000459425051E+00
(PID.TID 0000.0001) %MON dynstat_theta_sd             =   3.5511866482579E-04
(PID.TID 0000.0001) %MON dynstat_theta_del2           =   4.1550247378726E-07
(PID.TID 0000.0001) %MON dynstat_salt_max             =   3.4400000000000E+01
(PID.TID 0000.0001) %MON dynstat_salt_min             =   3.4397775604797E+01
(PID.TID 0000.0001) %MON dynstat_salt_mean            =   3.4399981341798E+01
(PID.TID 0000.0001) %MON dynstat_salt_sd              =   1.4455562870348E-04
(PID.TID 0000.0001) %MON dynstat_salt_del2            =   1.6895865987040E-07
(PID.TID 0000.0001) %MON advcfl_uvel_max              =   1.8486165135996E-05
(PID.TID 0000.0001) %MON advcfl_vvel_max              =   1.1897035811503E-05
(PID.TID 0000.0001) %MON advcfl_wvel_max              =   2.0088529538632E-05
(PID.TID 0000.0001) %MON advcfl_W_hf_max              =   2.5126358700719E-05
(PID.TID 0000.0001) %MON pe_b_mean                    =  -3.9887908774360E-08
(PID.TID 0000.0001) %MON ke_max                       =   3.1313660481013E-09
(PID.TID 0000.0001) %MON ke_mean                      =   1.6662103004129E-11
(PID.TID 0000.0001) %MON ke_vol                       =   3.4703745874271E+14
(PID.TID 0000.0001) %MON vort_r_min                   =  -1.2441247368718E-08
(PID.TID 0000.0001) %MON vort_r_max                   =   1.2046982738581E-08
(PID.TID 0000.0001) %MON vort_a_mean                  =  -1.3992981956966E-04
(PID.TID 0000.0001) %MON vort_a_sd                    =   1.7365068065862E-06
(PID.TID 0000.0001) %MON vort_p_mean                  =  -1.4746660579923E-04
(PID.TID 0000.0001) %MON vort_p_sd                    =   7.7973105438100E-05
(PID.TID 0000.0001) %MON surfExpan_theta_mean         =  -2.4493089261477E-12
(PID.TID 0000.0001) %MON surfExpan_salt_mean          =  -9.9710126243754E-13
(PID.TID 0000.0001) // =======================================================
(PID.TID 0000.0001) // End MONITOR dynamic field statistics
(PID.TID 0000.0001) // =======================================================
 cg2d: Sum(rhs),rhsMax =  -1.42108547152020E-14  9.58520805392238E-05
(PID.TID 0000.0001)                    cg2d_init_res =    3.22339042253191E+00
(PID.TID 0000.0001)                       cg2d_iters =   208
(PID.TID 0000.0001)                         cg2d_res =    9.09177301557260E-14
(PID.TID 0000.0001) // =======================================================
(PID.TID 0000.0001) // Begin MONITOR dynamic field statistics
(PID.TID 0000.0001) // =======================================================
(PID.TID 0000.0001) %MON time_tsnumber                =                     9
(PID.TID 0000.0001) %MON time_secondsf                =   1.6200000000000E+04
(PID.TID 0000.0001) %MON dynstat_eta_max              =   4.9241857915583E-05
(PID.TID 0000.0001) %MON dynstat_eta_min              =  -1.6526872854553E-05
(PID.TID 0000.0001) %MON dynstat_eta_mean             =   5.3237166423027E-21
(PID.TID 0000.0001) %MON dynstat_eta_sd               =   1.7258280719623E-05
(PID.TID 0000.0001) %MON dynstat_eta_del2             =   2.5508125089987E-07
(PID.TID 0000.0001) %MON dynstat_uvel_max             =   1.8334337990999E-05
(PID.TID 0000.0001) %MON dynstat_uvel_min             =  -7.8931070812382E-05
(PID.TID 0000.0001) %MON dynstat_uvel_mean            =  -1.5844776658838E-08
(PID.TID 0000.0001) %MON dynstat_uvel_sd              =   5.3283655951620E-06
(PID.TID 0000.0001) %MON dynstat_uvel_del2            =   1.4909654373030E-08
(PID.TID 0000.0001) %MON dynstat_vvel_max             =   8.2883617791702E-05
(PID.TID 0000.0001) %MON dynstat_vvel_min             =  -1.3962710966938E-05
(PID.TID 0000.0001) %MON dynstat_vvel_mean            =  -6.1277525187560E-07
(PID.TID 0000.0001) %MON dynstat_vvel_sd              =   4.5770199029989E-06
(PID.TID 0000.0001) %MON dynstat_vvel_del2            =   1.1805806177303E-08
(PID.TID 0000.0001) %MON dynstat_wvel_max             =   4.2575059415515E-07
(PID.TID 0000.0001) %MON dynstat_wvel_min             =  -4.1743231396608E-07
(PID.TID 0000.0001) %MON dynstat_wvel_mean            =  -3.9320789432479E-10
(PID.TID 0000.0001) %MON dynstat_wvel_sd              =   1.7486064199457E-08
(PID.TID 0000.0001) %MON dynstat_wvel_del2            =   1.3935591229804E-10
(PID.TID 0000.0001) %MON dynstat_theta_max            =  -1.9000000000000E+00
(PID.TID 0000.0001) %MON dynstat_theta_min            =  -1.9061279421991E+00
(PID.TID 0000.0001) %MON dynstat_theta_mean           =  -1.9000516553200E+00
(PID.TID 0000.0001) %MON dynstat_theta_sd             =   3.9919524107032E-04
(PID.TID 0000.0001) %MON dynstat_theta_del2           =   4.6647326133141E-07
(PID.TID 0000.0001) %MON dynstat_salt_max             =   3.4400000000000E+01
(PID.TID 0000.0001) %MON dynstat_salt_min             =   3.4397499320918E+01
(PID.TID 0000.0001) %MON dynstat_salt_mean            =   3.4399979021822E+01
(PID.TID 0000.0001) %MON dynstat_salt_sd              =   1.6249677446195E-04
(PID.TID 0000.0001) %MON dynstat_salt_del2            =   1.8968402000082E-07
(PID.TID 0000.0001) %MON advcfl_uvel_max              =   2.3938680345420E-05
(PID.TID 0000.0001) %MON advcfl_vvel_max              =   1.3419131369595E-05
(PID.TID 0000.0001) %MON advcfl_wvel_max              =   2.5545035649309E-05
(PID.TID 0000.0001) %MON advcfl_W_hf_max              =   3.1327697118542E-05
(PID.TID 0000.0001) %MON pe_b_mean                    =  -4.7732552064120E-08
(PID.TID 0000.0001) %MON ke_max                       =   4.7338551300248E-09
(PID.TID 0000.0001) %MON ke_mean                      =   2.4429284794390E-11
(PID.TID 0000.0001) %MON ke_vol                       =   3.4703745874271E+14
(PID.TID 0000.0001) %MON vort_r_min                   =  -1.4032968840947E-08
(PID.TID 0000.0001) %MON vort_r_max                   =   1.3581123940040E-08
(PID.TID 0000.0001) %MON vort_a_mean                  =  -1.3992981954013E-04
(PID.TID 0000.0001) %MON vort_a_sd                    =   1.7365067996505E-06
(PID.TID 0000.0001) %MON vort_p_mean                  =  -1.4746660576810E-04
(PID.TID 0000.0001) %MON vort_p_sd                    =   7.7972928340711E-05
(PID.TID 0000.0001) %MON surfExpan_theta_mean         =  -2.6387588469560E-12
(PID.TID 0000.0001) %MON surfExpan_salt_mean          =  -1.0741473351812E-12
(PID.TID 0000.0001) // =======================================================
(PID.TID 0000.0001) // End MONITOR dynamic field statistics
(PID.TID 0000.0001) // =======================================================
 cg2d: Sum(rhs),rhsMax =   2.13162820728030E-14  1.05943001564784E-04
(PID.TID 0000.0001)                    cg2d_init_res =    2.91154741427257E+00
(PID.TID 0000.0001)                       cg2d_iters =   208
(PID.TID 0000.0001)                         cg2d_res =    9.79903498952420E-14
(PID.TID 0000.0001) // =======================================================
(PID.TID 0000.0001) // Begin MONITOR dynamic field statistics
(PID.TID 0000.0001) // =======================================================
(PID.TID 0000.0001) %MON time_tsnumber                =                    10
(PID.TID 0000.0001) %MON time_secondsf                =   1.8000000000000E+04
(PID.TID 0000.0001) %MON dynstat_eta_max              =   5.5360459264690E-05
(PID.TID 0000.0001) %MON dynstat_eta_min              =  -1.7602407612983E-05
(PID.TID 0000.0001) %MON dynstat_eta_mean             =  -4.2589733138421E-21
(PID.TID 0000.0001) %MON dynstat_eta_sd               =   1.9786614535335E-05
(PID.TID 0000.0001) %MON dynstat_eta_del2             =   2.8454970717262E-07
(PID.TID 0000.0001) %MON dynstat_uvel_max             =   2.1167271720699E-05
(PID.TID 0000.0001) %MON dynstat_uvel_min             =  -9.8209011789205E-05
(PID.TID 0000.0001) %MON dynstat_uvel_mean            =  -2.4913778920216E-08
(PID.TID 0000.0001) %MON dynstat_uvel_sd              =   6.6352965552697E-06
(PID.TID 0000.0001) %MON dynstat_uvel_del2            =   1.7231702533951E-08
(PID.TID 0000.0001) %MON dynstat_vvel_max             =   9.0120942598091E-05
(PID.TID 0000.0001) %MON dynstat_vvel_min             =  -1.5199017287062E-05
(PID.TID 0000.0001) %MON dynstat_vvel_mean            =  -5.5827761015495E-07
(PID.TID 0000.0001) %MON dynstat_vvel_sd              =   4.9677130180918E-06
(PID.TID 0000.0001) %MON dynstat_vvel_del2            =   1.2808939472455E-08
(PID.TID 0000.0001) %MON dynstat_wvel_max             =   5.2163928144868E-07
(PID.TID 0000.0001) %MON dynstat_wvel_min             =  -5.0771758970364E-07
(PID.TID 0000.0001) %MON dynstat_wvel_mean            =  -3.5830059468214E-10
(PID.TID 0000.0001) %MON dynstat_wvel_sd              =   2.0096217083688E-08
(PID.TID 0000.0001) %MON dynstat_wvel_del2            =   1.5217903646981E-10
(PID.TID 0000.0001) %MON dynstat_theta_max            =  -1.9000000000000E+00
(PID.TID 0000.0001) %MON dynstat_theta_min            =  -1.9068040641623E+00
(PID.TID 0000.0001) %MON dynstat_theta_mean           =  -1.9000573616181E+00
(PID.TID 0000.0001) %MON dynstat_theta_sd             =   4.4320385178195E-04
(PID.TID 0000.0001) %MON dynstat_theta_del2           =   5.1723717830847E-07
(PID.TID 0000.0001) %MON dynstat_salt_max             =   3.4400000000000E+01
(PID.TID 0000.0001) %MON dynstat_salt_min             =   3.4397223419772E+01
(PID.TID 0000.0001) %MON dynstat_salt_mean            =   3.4399976704519E+01
(PID.TID 0000.0001) %MON dynstat_salt_sd              =   1.8041008255605E-04
(PID.TID 0000.0001) %MON dynstat_salt_del2            =   2.1032498246170E-07
(PID.TID 0000.0001) %MON advcfl_uvel_max              =   2.9785407901657E-05
(PID.TID 0000.0001) %MON advcfl_vvel_max              =   1.4590878150550E-05
(PID.TID 0000.0001) %MON advcfl_wvel_max              =   3.1298356886921E-05
(PID.TID 0000.0001) %MON advcfl_W_hf_max              =   3.7705115314221E-05
(PID.TID 0000.0001) %MON pe_b_mean                    =  -5.4933958555600E-08
(PID.TID 0000.0001) %MON ke_max                       =   6.7274800564557E-09
(PID.TID 0000.0001) %MON ke_mean                      =   3.3896459296717E-11
(PID.TID 0000.0001) %MON ke_vol                       =   3.4703745874271E+14
(PID.TID 0000.0001) %MON vort_r_min                   =  -1.5258315371489E-08
(PID.TID 0000.0001) %MON vort_r_max                   =   1.4756620333531E-08
(PID.TID 0000.0001) %MON vort_a_mean                  =  -1.3992981951915E-04
(PID.TID 0000.0001) %MON vort_a_sd                    =   1.7365067462834E-06
(PID.TID 0000.0001) %MON vort_p_mean                  =  -1.4746660574599E-04
(PID.TID 0000.0001) %MON vort_p_sd                    =   7.7972734482290E-05
(PID.TID 0000.0001) %MON surfExpan_theta_mean         =  -2.6696069049077E-12
(PID.TID 0000.0001) %MON surfExpan_salt_mean          =  -1.0866026279495E-12
(PID.TID 0000.0001) // =======================================================
(PID.TID 0000.0001) // End MONITOR dynamic field statistics
(PID.TID 0000.0001) // =======================================================
 Computing Diagnostic #    185  SHIfwFlx     Counter:      10   Parms: SM      L1      
 Computing Diagnostic #    186  SHIhtFlx     Counter:      10   Parms: SM      L1      
 Computing Diagnostic #    191  ICFfwFlx     Counter:      10   Parms: SM      MR      
 Computing Diagnostic #    192  ICFhtFlx     Counter:      10   Parms: SM      MR      
 cg2d: Sum(rhs),rhsMax =  -3.55271367880050E-14  1.15820388932955E-04
(PID.TID 0000.0001)                    cg2d_init_res =    2.65870657972204E+00
(PID.TID 0000.0001)                       cg2d_iters =   209
(PID.TID 0000.0001)                         cg2d_res =    7.83125491087697E-14
(PID.TID 0000.0001) // =======================================================
(PID.TID 0000.0001) // Begin MONITOR dynamic field statistics
(PID.TID 0000.0001) // =======================================================
(PID.TID 0000.0001) %MON time_tsnumber                =                    11
(PID.TID 0000.0001) %MON time_secondsf                =   1.9800000000000E+04
(PID.TID 0000.0001) %MON dynstat_eta_max              =   6.1919462196093E-05
(PID.TID 0000.0001) %MON dynstat_eta_min              =  -1.8945576237700E-05
(PID.TID 0000.0001) %MON dynstat_eta_mean             =   1.9165379912290E-20
(PID.TID 0000.0001) %MON dynstat_eta_sd               =   2.2022509244339E-05
(PID.TID 0000.0001) %MON dynstat_eta_del2             =   3.1397335698078E-07
(PID.TID 0000.0001) %MON dynstat_uvel_max             =   2.3865942640725E-05
(PID.TID 0000.0001) %MON dynstat_uvel_min             =  -1.1820157174101E-04
(PID.TID 0000.0001) %MON dynstat_uvel_mean            =  -3.0716944301990E-08
(PID.TID 0000.0001) %MON dynstat_uvel_sd              =   8.0058639834953E-06
(PID.TID 0000.0001) %MON dynstat_uvel_del2            =   1.9615053259739E-08
(PID.TID 0000.0001) %MON dynstat_vvel_max             =   9.4899279647424E-05
(PID.TID 0000.0001) %MON dynstat_vvel_min             =  -1.6082569343833E-05
(PID.TID 0000.0001) %MON dynstat_vvel_mean            =  -4.8499386235490E-07
(PID.TID 0000.0001) %MON dynstat_vvel_sd              =   5.2129775461377E-06
(PID.TID 0000.0001) %MON dynstat_vvel_del2            =   1.3470926973823E-08
(PID.TID 0000.0001) %MON dynstat_wvel_max             =   6.1965594764922E-07
(PID.TID 0000.0001) %MON dynstat_wvel_min             =  -5.9921125987785E-07
(PID.TID 0000.0001) %MON dynstat_wvel_mean            =  -3.1204539560786E-10
(PID.TID 0000.0001) %MON dynstat_wvel_sd              =   2.2602561071623E-08
(PID.TID 0000.0001) %MON dynstat_wvel_del2            =   1.6159717362985E-10
(PID.TID 0000.0001) %MON dynstat_theta_max            =  -1.9000000000000E+00
(PID.TID 0000.0001) %MON dynstat_theta_min            =  -1.9074792554501E+00
(PID.TID 0000.0001) %MON dynstat_theta_mean           =  -1.9000630614112E+00
(PID.TID 0000.0001) %MON dynstat_theta_sd             =   4.8714464379010E-04
(PID.TID 0000.0001) %MON dynstat_theta_del2           =   5.6779527555024E-07
(PID.TID 0000.0001) %MON dynstat_salt_max             =   3.4400000000000E+01
(PID.TID 0000.0001) %MON dynstat_salt_min             =   3.4396947900248E+01
(PID.TID 0000.0001) %MON dynstat_salt_mean            =   3.4399974389882E+01
(PID.TID 0000.0001) %MON dynstat_salt_sd              =   1.9829561328079E-04
(PID.TID 0000.0001) %MON dynstat_salt_del2            =   2.3088197499250E-07
(PID.TID 0000.0001) %MON advcfl_uvel_max              =   3.5848869312317E-05
(PID.TID 0000.0001) %MON advcfl_vvel_max              =   1.5364506695027E-05
(PID.TID 0000.0001) %MON advcfl_wvel_max              =   3.7179356858953E-05
(PID.TID 0000.0001) %MON advcfl_W_hf_max              =   4.4067660596427E-05
(PID.TID 0000.0001) %MON pe_b_mean                    =  -6.1266225845702E-08
(PID.TID 0000.0001) %MON ke_max                       =   9.0798762580472E-09
(PID.TID 0000.0001) %MON ke_mean                      =   4.4919661788313E-11
(PID.TID 0000.0001) %MON ke_vol                       =   3.4703745874271E+14
(PID.TID 0000.0001) %MON vort_r_min                   =  -1.6067332360749E-08
(PID.TID 0000.0001) %MON vort_r_max                   =   1.5525323273973E-08
(PID.TID 0000.0001) %MON vort_a_mean                  =  -1.3992981950866E-04
(PID.TID 0000.0001) %MON vort_a_sd                    =   1.7365066416842E-06
(PID.TID 0000.0001) %MON vort_p_mean                  =  -1.4746660573494E-04
(PID.TID 0000.0001) %MON vort_p_sd                    =   7.7972529726313E-05
(PID.TID 0000.0001) %MON surfExpan_theta_mean         =  -2.5560124741044E-12
(PID.TID 0000.0001) %MON surfExpan_salt_mean          =  -1.0402390645683E-12
(PID.TID 0000.0001) // =======================================================
(PID.TID 0000.0001) // End MONITOR dynamic field statistics
(PID.TID 0000.0001) // =======================================================
 cg2d: Sum(rhs),rhsMax =   1.27897692436818E-13  1.25516208673600E-04
(PID.TID 0000.0001)                    cg2d_init_res =    2.44902816271056E+00
(PID.TID 0000.0001)                       cg2d_iters =   209
(PID.TID 0000.0001)                         cg2d_res =    7.64782887469331E-14
(PID.TID 0000.0001) // =======================================================
(PID.TID 0000.0001) // Begin MONITOR dynamic field statistics
(PID.TID 0000.0001) // =======================================================
(PID.TID 0000.0001) %MON time_tsnumber                =                    12
(PID.TID 0000.0001) %MON time_secondsf                =   2.1600000000000E+04
(PID.TID 0000.0001) %MON dynstat_eta_max              =   6.7942557828743E-05
(PID.TID 0000.0001) %MON dynstat_eta_min              =  -2.0250594477440E-05
(PID.TID 0000.0001) %MON dynstat_eta_mean             =   5.1107679766106E-20
(PID.TID 0000.0001) %MON dynstat_eta_sd               =   2.3936138686374E-05
(PID.TID 0000.0001) %MON dynstat_eta_del2             =   3.4335053197725E-07
(PID.TID 0000.0001) %MON dynstat_uvel_max             =   2.6361087635914E-05
(PID.TID 0000.0001) %MON dynstat_uvel_min             =  -1.3830902624823E-04
(PID.TID 0000.0001) %MON dynstat_uvel_mean            =  -3.3122129570405E-08
(PID.TID 0000.0001) %MON dynstat_uvel_sd              =   9.3989637653176E-06
(PID.TID 0000.0001) %MON dynstat_uvel_del2            =   2.2030717486258E-08
(PID.TID 0000.0001) %MON dynstat_vvel_max             =   9.7102652619636E-05
(PID.TID 0000.0001) %MON dynstat_vvel_min             =  -1.6597351028364E-05
(PID.TID 0000.0001) %MON dynstat_vvel_mean            =  -4.0437134510158E-07
(PID.TID 0000.0001) %MON dynstat_vvel_sd              =   5.3045211945846E-06
(PID.TID 0000.0001) %MON dynstat_vvel_del2            =   1.3780921745796E-08
(PID.TID 0000.0001) %MON dynstat_wvel_max             =   7.1703862737575E-07
(PID.TID 0000.0001) %MON dynstat_wvel_min             =  -6.8930700395173E-07
(PID.TID 0000.0001) %MON dynstat_wvel_mean            =  -2.6147502393004E-10
(PID.TID 0000.0001) %MON dynstat_wvel_sd              =   2.4977807169874E-08
(PID.TID 0000.0001) %MON dynstat_wvel_del2            =   1.6761987024060E-10
(PID.TID 0000.0001) %MON dynstat_theta_max            =  -1.9000000000000E+00
(PID.TID 0000.0001) %MON dynstat_theta_min            =  -1.9081535188334E+00
(PID.TID 0000.0001) %MON dynstat_theta_mean           =  -1.9000687547110E+00
(PID.TID 0000.0001) %MON dynstat_theta_sd             =   5.3101776307122E-04
(PID.TID 0000.0001) %MON dynstat_theta_del2           =   6.1814858700184E-07
(PID.TID 0000.0001) %MON dynstat_salt_max             =   3.4400000000000E+01
(PID.TID 0000.0001) %MON dynstat_salt_min             =   3.4396672761209E+01
(PID.TID 0000.0001) %MON dynstat_salt_mean            =   3.4399972077908E+01
(PID.TID 0000.0001) %MON dynstat_salt_sd              =   2.1615342658170E-04
(PID.TID 0000.0001) %MON dynstat_salt_del2            =   2.5135541876160E-07
(PID.TID 0000.0001) %MON advcfl_uvel_max              =   4.1947176620885E-05
(PID.TID 0000.0001) %MON advcfl_vvel_max              =   1.5721240053900E-05
(PID.TID 0000.0001) %MON advcfl_wvel_max              =   4.3022317642545E-05
(PID.TID 0000.0001) %MON advcfl_W_hf_max              =   5.0239360266241E-05
(PID.TID 0000.0001) %MON pe_b_mean                    =  -6.6639816489756E-08
(PID.TID 0000.0001) %MON ke_max                       =   1.1727930960346E-08
(PID.TID 0000.0001) %MON ke_mean                      =   5.7235392389747E-11
(PID.TID 0000.0001) %MON ke_vol                       =   3.4703745874271E+14
(PID.TID 0000.0001) %MON vort_r_min                   =  -1.6440383937018E-08
(PID.TID 0000.0001) %MON vort_r_max                   =   1.5868973313035E-08
(PID.TID 0000.0001) %MON vort_a_mean                  =  -1.3992981950892E-04
(PID.TID 0000.0001) %MON vort_a_sd                    =   1.7365064903486E-06
(PID.TID 0000.0001) %MON vort_p_mean                  =  -1.4746660573521E-04
(PID.TID 0000.0001) %MON vort_p_sd                    =   7.7972320301001E-05
(PID.TID 0000.0001) %MON surfExpan_theta_mean         =  -2.3356787564222E-12
(PID.TID 0000.0001) %MON surfExpan_salt_mean          =  -9.5041304238101E-13
(PID.TID 0000.0001) // =======================================================
(PID.TID 0000.0001) // End MONITOR dynamic field statistics
(PID.TID 0000.0001) // =======================================================
 cg2d: Sum(rhs),rhsMax =   1.98951966012828E-13  1.35088748139551E-04
(PID.TID 0000.0001)                    cg2d_init_res =    2.27140037848428E+00
(PID.TID 0000.0001)                       cg2d_iters =   209
(PID.TID 0000.0001)                         cg2d_res =    7.11334905766774E-14
(PID.TID 0000.0001) // =======================================================
(PID.TID 0000.0001) // Begin MONITOR dynamic field statistics
(PID.TID 0000.0001) // =======================================================
(PID.TID 0000.0001) %MON time_tsnumber                =                    13
(PID.TID 0000.0001) %MON time_secondsf                =   2.3400000000000E+04
(PID.TID 0000.0001) %MON dynstat_eta_max              =   7.3241854545273E-05
(PID.TID 0000.0001) %MON dynstat_eta_min              =  -2.1302871489925E-05
(PID.TID 0000.0001) %MON dynstat_eta_mean             =  -1.0647433284605E-20
(PID.TID 0000.0001) %MON dynstat_eta_sd               =   2.5541109829001E-05
(PID.TID 0000.0001) %MON dynstat_eta_del2             =   3.7267986463718E-07
(PID.TID 0000.0001) %MON dynstat_uvel_max             =   2.8613821890376E-05
(PID.TID 0000.0001) %MON dynstat_uvel_min             =  -1.5795908228185E-04
(PID.TID 0000.0001) %MON dynstat_uvel_mean            =  -3.2365808007026E-08
(PID.TID 0000.0001) %MON dynstat_uvel_sd              =   1.0773854730136E-05
(PID.TID 0000.0001) %MON dynstat_uvel_del2            =   2.4442029860589E-08
(PID.TID 0000.0001) %MON dynstat_vvel_max             =   9.6790155176415E-05
(PID.TID 0000.0001) %MON dynstat_vvel_min             =  -1.6749446062619E-05
(PID.TID 0000.0001) %MON dynstat_vvel_mean            =  -3.2696718201321E-07
(PID.TID 0000.0001) %MON dynstat_vvel_sd              =   5.2445125053701E-06
(PID.TID 0000.0001) %MON dynstat_vvel_del2            =   1.3751470118272E-08
(PID.TID 0000.0001) %MON dynstat_wvel_max             =   8.1126149811277E-07
(PID.TID 0000.0001) %MON dynstat_wvel_min             =  -7.7566268108950E-07
(PID.TID 0000.0001) %MON dynstat_wvel_mean            =  -2.1309170441848E-10
(PID.TID 0000.0001) %MON dynstat_wvel_sd              =   2.7203116109608E-08
(PID.TID 0000.0001) %MON dynstat_wvel_del2            =   1.7052089059977E-10
(PID.TID 0000.0001) %MON dynstat_theta_max            =  -1.9000000000000E+00
(PID.TID 0000.0001) %MON dynstat_theta_min            =  -1.9088268570869E+00
(PID.TID 0000.0001) %MON dynstat_theta_mean           =  -1.9000744415289E+00
(PID.TID 0000.0001) %MON dynstat_theta_sd             =   5.7482335448695E-04
(PID.TID 0000.0001) %MON dynstat_theta_del2           =   6.6829812666050E-07
(PID.TID 0000.0001) %MON dynstat_salt_max             =   3.4400000000000E+01
(PID.TID 0000.0001) %MON dynstat_salt_min             =   3.4396398001516E+01
(PID.TID 0000.0001) %MON dynstat_salt_mean            =   3.4399969768592E+01
(PID.TID 0000.0001) %MON dynstat_salt_sd              =   2.3398358194783E-04
(PID.TID 0000.0001) %MON dynstat_salt_del2            =   2.7174572704526E-07
(PID.TID 0000.0001) %MON advcfl_uvel_max              =   4.7906761424651E-05
(PID.TID 0000.0001) %MON advcfl_vvel_max              =   1.5670645686099E-05
(PID.TID 0000.0001) %MON advcfl_wvel_max              =   4.8675689886766E-05
(PID.TID 0000.0001) %MON advcfl_W_hf_max              =   5.6070329521184E-05
(PID.TID 0000.0001) %MON pe_b_mean                    =  -7.1091644895611E-08
(PID.TID 0000.0001) %MON ke_max                       =   1.4613982884613E-08
(PID.TID 0000.0001) %MON ke_mean                      =   7.0479747974595E-11
(PID.TID 0000.0001) %MON ke_vol                       =   3.4703745874271E+14
(PID.TID 0000.0001) %MON vort_r_min                   =  -1.6387475207882E-08
(PID.TID 0000.0001) %MON vort_r_max                   =   1.5798459599841E-08
(PID.TID 0000.0001) %MON vort_a_mean                  =  -1.3992981951888E-04
(PID.TID 0000.0001) %MON vort_a_sd                    =   1.7365063005898E-06
(PID.TID 0000.0001) %MON vort_p_mean                  =  -1.4746660574570E-04
(PID.TID 0000.0001) %MON vort_p_sd                    =   7.7972112388239E-05
(PID.TID 0000.0001) %MON surfExpan_theta_mean         =  -2.0619042709487E-12
(PID.TID 0000.0001) %MON surfExpan_salt_mean          =  -8.3883097581818E-13
(PID.TID 0000.0001) // =======================================================
(PID.TID 0000.0001) // End MONITOR dynamic field statistics
(PID.TID 0000.0001) // =======================================================
 cg2d: Sum(rhs),rhsMax =  -7.81597009336110E-14  1.44704833193700E-04
(PID.TID 0000.0001)                    cg2d_init_res =    2.11657472223086E+00
(PID.TID 0000.0001)                       cg2d_iters =   208
(PID.TID 0000.0001)                         cg2d_res =    9.45810668480643E-14
(PID.TID 0000.0001) // =======================================================
(PID.TID 0000.0001) // Begin MONITOR dynamic field statistics
(PID.TID 0000.0001) // =======================================================
(PID.TID 0000.0001) %MON time_tsnumber                =                    14
(PID.TID 0000.0001) %MON time_secondsf                =   2.5200000000000E+04
(PID.TID 0000.0001) %MON dynstat_eta_max              =   7.7866088534689E-05
(PID.TID 0000.0001) %MON dynstat_eta_min              =  -2.2103565056031E-05
(PID.TID 0000.0001) %MON dynstat_eta_mean             =   2.1294866569211E-20
(PID.TID 0000.0001) %MON dynstat_eta_sd               =   2.6885373457848E-05
(PID.TID 0000.0001) %MON dynstat_eta_del2             =   4.0196034213451E-07
(PID.TID 0000.0001) %MON dynstat_uvel_max             =   3.0583328187445E-05
(PID.TID 0000.0001) %MON dynstat_uvel_min             =  -1.7880772660027E-04
(PID.TID 0000.0001) %MON dynstat_uvel_mean            =  -2.8926559510654E-08
(PID.TID 0000.0001) %MON dynstat_uvel_sd              =   1.2092836582019E-05
(PID.TID 0000.0001) %MON dynstat_uvel_del2            =   2.6807560683119E-08
(PID.TID 0000.0001) %MON dynstat_vvel_max             =   9.4180924921645E-05
(PID.TID 0000.0001) %MON dynstat_vvel_min             =  -1.6565862844585E-05
(PID.TID 0000.0001) %MON dynstat_vvel_mean            =  -2.6121626628381E-07
(PID.TID 0000.0001) %MON dynstat_vvel_sd              =   5.0450138487577E-06
(PID.TID 0000.0001) %MON dynstat_vvel_del2            =   1.3415900378087E-08
(PID.TID 0000.0001) %MON dynstat_wvel_max             =   9.0018172802093E-07
(PID.TID 0000.0001) %MON dynstat_wvel_min             =  -8.5633434306783E-07
(PID.TID 0000.0001) %MON dynstat_wvel_mean            =  -1.7211454933426E-10
(PID.TID 0000.0001) %MON dynstat_wvel_sd              =   2.9266119605823E-08
(PID.TID 0000.0001) %MON dynstat_wvel_del2            =   1.7079826946628E-10
(PID.TID 0000.0001) %MON dynstat_theta_max            =  -1.9000000000000E+00
(PID.TID 0000.0001) %MON dynstat_theta_min            =  -1.9094992729258E+00
(PID.TID 0000.0001) %MON dynstat_theta_mean           =  -1.9000801218763E+00
(PID.TID 0000.0001) %MON dynstat_theta_sd             =   6.1856156164349E-04
(PID.TID 0000.0001) %MON dynstat_theta_del2           =   7.1824488967589E-07
(PID.TID 0000.0001) %MON dynstat_salt_max             =   3.4400000000000E+01
(PID.TID 0000.0001) %MON dynstat_salt_min             =   3.4396123620055E+01
(PID.TID 0000.0001) %MON dynstat_salt_mean            =   3.4399967461928E+01
(PID.TID 0000.0001) %MON dynstat_salt_sd              =   2.5178613835454E-04
(PID.TID 0000.0001) %MON dynstat_salt_del2            =   2.9205330562914E-07
(PID.TID 0000.0001) %MON advcfl_uvel_max              =   5.3572070415572E-05
(PID.TID 0000.0001) %MON advcfl_vvel_max              =   1.5248202693199E-05
(PID.TID 0000.0001) %MON advcfl_wvel_max              =   5.4010903681256E-05
(PID.TID 0000.0001) %MON advcfl_W_hf_max              =   6.1444771849487E-05
(PID.TID 0000.0001) %MON pe_b_mean                    =  -7.4759562648927E-08
(PID.TID 0000.0001) %MON ke_max                       =   1.7998470900280E-08
(PID.TID 0000.0001) %MON ke_mean                      =   8.4220198602389E-11
(PID.TID 0000.0001) %MON ke_vol                       =   3.4703745874271E+14
(PID.TID 0000.0001) %MON vort_r_min                   =  -1.5945708211705E-08
(PID.TID 0000.0001) %MON vort_r_max                   =   1.5351190933926E-08
(PID.TID 0000.0001) %MON vort_a_mean                  =  -1.3992981953644E-04
(PID.TID 0000.0001) %MON vort_a_sd                    =   1.7365060869603E-06
(PID.TID 0000.0001) %MON vort_p_mean                  =  -1.4746660576421E-04
(PID.TID 0000.0001) %MON vort_p_sd                    =   7.7971911736712E-05
(PID.TID 0000.0001) %MON surfExpan_theta_mean         =  -1.7938086145618E-12
(PID.TID 0000.0001) %MON surfExpan_salt_mean          =  -7.2957074867991E-13
(PID.TID 0000.0001) // =======================================================
(PID.TID 0000.0001) // End MONITOR dynamic field statistics
(PID.TID 0000.0001) // =======================================================
 cg2d: Sum(rhs),rhsMax =   1.35003119794419E-13  1.54279191879505E-04
(PID.TID 0000.0001)                    cg2d_init_res =    1.98153626865449E+00
(PID.TID 0000.0001)                       cg2d_iters =   207
(PID.TID 0000.0001)                         cg2d_res =    9.59337984799994E-14
(PID.TID 0000.0001) // =======================================================
(PID.TID 0000.0001) // Begin MONITOR dynamic field statistics
(PID.TID 0000.0001) // =======================================================
(PID.TID 0000.0001) %MON time_tsnumber                =                    15
(PID.TID 0000.0001) %MON time_secondsf                =   2.7000000000000E+04
(PID.TID 0000.0001) %MON dynstat_eta_max              =   8.1924007036127E-05
(PID.TID 0000.0001) %MON dynstat_eta_min              =  -2.2701751987597E-05
(PID.TID 0000.0001) %MON dynstat_eta_mean             =  -2.3424353226132E-20
(PID.TID 0000.0001) %MON dynstat_eta_sd               =   2.8039224237719E-05
(PID.TID 0000.0001) %MON dynstat_eta_del2             =   4.3119133454510E-07
(PID.TID 0000.0001) %MON dynstat_uvel_max             =   3.2250282367318E-05
(PID.TID 0000.0001) %MON dynstat_uvel_min             =  -1.9864919287479E-04
(PID.TID 0000.0001) %MON dynstat_uvel_mean            =  -2.3459050791519E-08
(PID.TID 0000.0001) %MON dynstat_uvel_sd              =   1.3323594756622E-05
(PID.TID 0000.0001) %MON dynstat_uvel_del2            =   2.9085078773348E-08
(PID.TID 0000.0001) %MON dynstat_vvel_max             =   8.9629895637555E-05
(PID.TID 0000.0001) %MON dynstat_vvel_min             =  -1.6090058896161E-05
(PID.TID 0000.0001) %MON dynstat_vvel_mean            =  -2.1272797118843E-07
(PID.TID 0000.0001) %MON dynstat_vvel_sd              =   4.7268156489974E-06
(PID.TID 0000.0001) %MON dynstat_vvel_del2            =   1.2824600226029E-08
(PID.TID 0000.0001) %MON dynstat_wvel_max             =   9.8214886653166E-07
(PID.TID 0000.0001) %MON dynstat_wvel_min             =  -9.2987437820597E-07
(PID.TID 0000.0001) %MON dynstat_wvel_mean            =  -1.4203934286527E-10
(PID.TID 0000.0001) %MON dynstat_wvel_sd              =   3.1159444959273E-08
(PID.TID 0000.0001) %MON dynstat_wvel_del2            =   1.6911810296622E-10
(PID.TID 0000.0001) %MON dynstat_theta_max            =  -1.9000000000000E+00
(PID.TID 0000.0001) %MON dynstat_theta_min            =  -1.9101707689484E+00
(PID.TID 0000.0001) %MON dynstat_theta_mean           =  -1.9000857957646E+00
(PID.TID 0000.0001) %MON dynstat_theta_sd             =   6.6223252688810E-04
(PID.TID 0000.0001) %MON dynstat_theta_del2           =   7.6798985550814E-07
(PID.TID 0000.0001) %MON dynstat_salt_max             =   3.4400000000000E+01
(PID.TID 0000.0001) %MON dynstat_salt_min             =   3.4395849615757E+01
(PID.TID 0000.0001) %MON dynstat_salt_mean            =   3.4399965157913E+01
(PID.TID 0000.0001) %MON dynstat_salt_sd              =   2.6956115426180E-04
(PID.TID 0000.0001) %MON dynstat_salt_del2            =   3.1227855406160E-07
(PID.TID 0000.0001) %MON advcfl_uvel_max              =   5.9106885057690E-05
(PID.TID 0000.0001) %MON advcfl_vvel_max              =   1.4511376026395E-05
(PID.TID 0000.0001) %MON advcfl_wvel_max              =   5.8928931991899E-05
(PID.TID 0000.0001) %MON advcfl_W_hf_max              =   6.6285824385500E-05
(PID.TID 0000.0001) %MON pe_b_mean                    =  -7.7848374094781E-08
(PID.TID 0000.0001) %MON ke_max                       =   2.1494890267396E-08
(PID.TID 0000.0001) %MON ke_mean                      =   9.7995865230293E-11
(PID.TID 0000.0001) %MON ke_vol                       =   3.4703745874271E+14
(PID.TID 0000.0001) %MON vort_r_min                   =  -1.5175176545262E-08
(PID.TID 0000.0001) %MON vort_r_max                   =   1.4586897836211E-08
(PID.TID 0000.0001) %MON vort_a_mean                  =  -1.3992981955884E-04
(PID.TID 0000.0001) %MON vort_a_sd                    =   1.7365058638333E-06
(PID.TID 0000.0001) %MON vort_p_mean                  =  -1.4746660578782E-04
(PID.TID 0000.0001) %MON vort_p_sd                    =   7.7971723323145E-05
(PID.TID 0000.0001) %MON surfExpan_theta_mean         =  -1.5866911178946E-12
(PID.TID 0000.0001) %MON surfExpan_salt_mean          =  -6.4515586658217E-13
(PID.TID 0000.0001) // =======================================================
(PID.TID 0000.0001) // End MONITOR dynamic field statistics
(PID.TID 0000.0001) // =======================================================
 cg2d: Sum(rhs),rhsMax =   1.77635683940025E-13  1.64024733082286E-04
(PID.TID 0000.0001)                    cg2d_init_res =    1.86031703197787E+00
(PID.TID 0000.0001)                       cg2d_iters =   204
(PID.TID 0000.0001)                         cg2d_res =    9.49879261316776E-14
(PID.TID 0000.0001) // =======================================================
(PID.TID 0000.0001) // Begin MONITOR dynamic field statistics
(PID.TID 0000.0001) // =======================================================
(PID.TID 0000.0001) %MON time_tsnumber                =                    16
(PID.TID 0000.0001) %MON time_secondsf                =   2.8800000000000E+04
(PID.TID 0000.0001) %MON dynstat_eta_max              =   8.5563003000302E-05
(PID.TID 0000.0001) %MON dynstat_eta_min              =  -2.3198152377352E-05
(PID.TID 0000.0001) %MON dynstat_eta_mean             =   3.4071786510737E-20
(PID.TID 0000.0001) %MON dynstat_eta_sd               =   2.9082778293251E-05
(PID.TID 0000.0001) %MON dynstat_eta_del2             =   4.6037260097026E-07
(PID.TID 0000.0001) %MON dynstat_uvel_max             =   3.3649705559356E-05
(PID.TID 0000.0001) %MON dynstat_uvel_min             =  -2.1682265319868E-04
(PID.TID 0000.0001) %MON dynstat_uvel_mean            =  -1.6734954549898E-08
(PID.TID 0000.0001) %MON dynstat_uvel_sd              =   1.4441077229458E-05
(PID.TID 0000.0001) %MON dynstat_uvel_del2            =   3.1235845683726E-08
(PID.TID 0000.0001) %MON dynstat_vvel_max             =   8.3596412662374E-05
(PID.TID 0000.0001) %MON dynstat_vvel_min             =  -1.5463946258043E-05
(PID.TID 0000.0001) %MON dynstat_vvel_mean            =  -1.8411326197768E-07
(PID.TID 0000.0001) %MON dynstat_vvel_sd              =   4.3177689828546E-06
(PID.TID 0000.0001) %MON dynstat_vvel_del2            =   1.2040483487976E-08
(PID.TID 0000.0001) %MON dynstat_wvel_max             =   1.0560749953810E-06
(PID.TID 0000.0001) %MON dynstat_wvel_min             =  -9.9539082842811E-07
(PID.TID 0000.0001) %MON dynstat_wvel_mean            =  -1.2451290590117E-10
(PID.TID 0000.0001) %MON dynstat_wvel_sd              =   3.2879908638281E-08
(PID.TID 0000.0001) %MON dynstat_wvel_del2            =   1.6624267429387E-10
(PID.TID 0000.0001) %MON dynstat_theta_max            =  -1.9000000000000E+00
(PID.TID 0000.0001) %MON dynstat_theta_min            =  -1.9108413475883E+00
(PID.TID 0000.0001) %MON dynstat_theta_mean           =  -1.9000914632045E+00
(PID.TID 0000.0001) %MON dynstat_theta_sd             =   7.0583639143224E-04
(PID.TID 0000.0001) %MON dynstat_theta_del2           =   8.1753399207623E-07
(PID.TID 0000.0001) %MON dynstat_salt_max             =   3.4400000000000E+01
(PID.TID 0000.0001) %MON dynstat_salt_min             =   3.4395575987623E+01
(PID.TID 0000.0001) %MON dynstat_salt_mean            =   3.4399962856541E+01
(PID.TID 0000.0001) %MON dynstat_salt_sd              =   2.8730868766485E-04
(PID.TID 0000.0001) %MON dynstat_salt_del2            =   3.3242186731783E-07
(PID.TID 0000.0001) %MON advcfl_uvel_max              =   6.4514290015743E-05
(PID.TID 0000.0001) %MON advcfl_vvel_max              =   1.3534535212525E-05
(PID.TID 0000.0001) %MON advcfl_wvel_max              =   6.3364499722859E-05
(PID.TID 0000.0001) %MON advcfl_W_hf_max              =   7.0557493146397E-05
(PID.TID 0000.0001) %MON pe_b_mean                    =  -8.0593995759826E-08
(PID.TID 0000.0001) %MON ke_max                       =   2.4975609702960E-08
(PID.TID 0000.0001) %MON ke_mean                      =   1.1136111792183E-10
(PID.TID 0000.0001) %MON ke_vol                       =   3.4703745874271E+14
(PID.TID 0000.0001) %MON vort_r_min                   =  -1.4153651654712E-08
(PID.TID 0000.0001) %MON vort_r_max                   =   1.3582254677165E-08
(PID.TID 0000.0001) %MON vort_a_mean                  =  -1.3992981958293E-04
(PID.TID 0000.0001) %MON vort_a_sd                    =   1.7365056484803E-06
(PID.TID 0000.0001) %MON vort_p_mean                  =  -1.4746660581321E-04
(PID.TID 0000.0001) %MON vort_p_sd                    =   7.7971551081692E-05
(PID.TID 0000.0001) %MON surfExpan_theta_mean         =  -1.4841699129254E-12
(PID.TID 0000.0001) %MON surfExpan_salt_mean          =  -6.0335335290209E-13
(PID.TID 0000.0001) // =======================================================
(PID.TID 0000.0001) // End MONITOR dynamic field statistics
(PID.TID 0000.0001) // =======================================================
 cg2d: Sum(rhs),rhsMax =   7.10542735760100E-15  1.74734650032028E-04
(PID.TID 0000.0001)                    cg2d_init_res =    1.74302582347232E+00
(PID.TID 0000.0001)                       cg2d_iters =   203
(PID.TID 0000.0001)                         cg2d_res =    8.95717169216153E-14
(PID.TID 0000.0001) // =======================================================
(PID.TID 0000.0001) // Begin MONITOR dynamic field statistics
(PID.TID 0000.0001) // =======================================================
(PID.TID 0000.0001) %MON time_tsnumber                =                    17
(PID.TID 0000.0001) %MON time_secondsf                =   3.0600000000000E+04
(PID.TID 0000.0001) %MON dynstat_eta_max              =   8.8948135160459E-05
(PID.TID 0000.0001) %MON dynstat_eta_min              =  -2.4095307811798E-05
(PID.TID 0000.0001) %MON dynstat_eta_mean             =  -1.0647433284605E-20
(PID.TID 0000.0001) %MON dynstat_eta_sd               =   3.0094851929137E-05
(PID.TID 0000.0001) %MON dynstat_eta_del2             =   4.8950427729275E-07
(PID.TID 0000.0001) %MON dynstat_uvel_max             =   3.4778599313630E-05
(PID.TID 0000.0001) %MON dynstat_uvel_min             =  -2.3304512382403E-04
(PID.TID 0000.0001) %MON dynstat_uvel_mean            =  -9.5637104360968E-09
(PID.TID 0000.0001) %MON dynstat_uvel_sd              =   1.5428804950363E-05
(PID.TID 0000.0001) %MON dynstat_uvel_del2            =   3.3228631303395E-08
(PID.TID 0000.0001) %MON dynstat_vvel_max             =   7.6608059440116E-05
(PID.TID 0000.0001) %MON dynstat_vvel_min             =  -1.4697583615271E-05
(PID.TID 0000.0001) %MON dynstat_vvel_mean            =  -1.7525409412838E-07
(PID.TID 0000.0001) %MON dynstat_vvel_sd              =   3.8507415184831E-06
(PID.TID 0000.0001) %MON dynstat_vvel_del2            =   1.1133960056035E-08
(PID.TID 0000.0001) %MON dynstat_wvel_max             =   1.1214651621260E-06
(PID.TID 0000.0001) %MON dynstat_wvel_min             =  -1.0682379625639E-06
(PID.TID 0000.0001) %MON dynstat_wvel_mean            =  -1.1947795931341E-10
(PID.TID 0000.0001) %MON dynstat_wvel_sd              =   3.4428422095007E-08
(PID.TID 0000.0001) %MON dynstat_wvel_del2            =   1.6294563061390E-10
(PID.TID 0000.0001) %MON dynstat_theta_max            =  -1.9000000000000E+00
(PID.TID 0000.0001) %MON dynstat_theta_min            =  -1.9115110110806E+00
(PID.TID 0000.0001) %MON dynstat_theta_mean           =  -1.9000971242072E+00
(PID.TID 0000.0001) %MON dynstat_theta_sd             =   7.4937329557000E-04
(PID.TID 0000.0001) %MON dynstat_theta_del2           =   8.6687826021692E-07
(PID.TID 0000.0001) %MON dynstat_salt_max             =   3.4400000000000E+01
(PID.TID 0000.0001) %MON dynstat_salt_min             =   3.4395302734734E+01
(PID.TID 0000.0001) %MON dynstat_salt_mean            =   3.4399960557809E+01
(PID.TID 0000.0001) %MON dynstat_salt_sd              =   3.0502879618283E-04
(PID.TID 0000.0001) %MON dynstat_salt_del2            =   3.5248363759507E-07
(PID.TID 0000.0001) %MON advcfl_uvel_max              =   6.9341189600524E-05
(PID.TID 0000.0001) %MON advcfl_vvel_max              =   1.2403097753047E-05
(PID.TID 0000.0001) %MON advcfl_wvel_max              =   6.7287909727561E-05
(PID.TID 0000.0001) %MON advcfl_W_hf_max              =   7.4263925054874E-05
(PID.TID 0000.0001) %MON pe_b_mean                    =  -8.3231015853230E-08
(PID.TID 0000.0001) %MON ke_max                       =   2.8320972714463E-08
(PID.TID 0000.0001) %MON ke_mean                      =   1.2392749582569E-10
(PID.TID 0000.0001) %MON ke_vol                       =   3.4703745874271E+14
(PID.TID 0000.0001) %MON vort_r_min                   =  -1.2970458333398E-08
(PID.TID 0000.0001) %MON vort_r_max                   =   1.2424749183888E-08
(PID.TID 0000.0001) %MON vort_a_mean                  =  -1.3992981960551E-04
(PID.TID 0000.0001) %MON vort_a_sd                    =   1.7365054561549E-06
(PID.TID 0000.0001) %MON vort_p_mean                  =  -1.4746660583700E-04
(PID.TID 0000.0001) %MON vort_p_sd                    =   7.7971397714163E-05
(PID.TID 0000.0001) %MON surfExpan_theta_mean         =  -1.5131830923087E-12
(PID.TID 0000.0001) %MON surfExpan_salt_mean          =  -6.1513655241825E-13
(PID.TID 0000.0001) // =======================================================
(PID.TID 0000.0001) // End MONITOR dynamic field statistics
(PID.TID 0000.0001) // =======================================================
 cg2d: Sum(rhs),rhsMax =   9.23705556488130E-14  1.85296252531705E-04
(PID.TID 0000.0001)                    cg2d_init_res =    1.64061819685263E+00
(PID.TID 0000.0001)                       cg2d_iters =   205
(PID.TID 0000.0001)                         cg2d_res =    9.34930664683602E-14
(PID.TID 0000.0001) // =======================================================
(PID.TID 0000.0001) // Begin MONITOR dynamic field statistics
(PID.TID 0000.0001) // =======================================================
(PID.TID 0000.0001) %MON time_tsnumber                =                    18
(PID.TID 0000.0001) %MON time_secondsf                =   3.2400000000000E+04
(PID.TID 0000.0001) %MON dynstat_eta_max              =   9.2243212175424E-05
(PID.TID 0000.0001) %MON dynstat_eta_min              =  -2.5299425882043E-05
(PID.TID 0000.0001) %MON dynstat_eta_mean             =   4.8978193109185E-20
(PID.TID 0000.0001) %MON dynstat_eta_sd               =   3.1144473205767E-05
(PID.TID 0000.0001) %MON dynstat_eta_del2             =   5.1858684380887E-07
(PID.TID 0000.0001) %MON dynstat_uvel_max             =   3.7063128057731E-05
(PID.TID 0000.0001) %MON dynstat_uvel_min             =  -2.4717485678920E-04
(PID.TID 0000.0001) %MON dynstat_uvel_mean            =  -2.7000739860876E-09
(PID.TID 0000.0001) %MON dynstat_uvel_sd              =   1.6279558851652E-05
(PID.TID 0000.0001) %MON dynstat_uvel_del2            =   3.5042994035848E-08
(PID.TID 0000.0001) %MON dynstat_vvel_max             =   6.9401223033057E-05
(PID.TID 0000.0001) %MON dynstat_vvel_min             =  -1.3842632472181E-05
(PID.TID 0000.0001) %MON dynstat_vvel_mean            =  -1.8387702476666E-07
(PID.TID 0000.0001) %MON dynstat_vvel_sd              =   3.3613257979050E-06
(PID.TID 0000.0001) %MON dynstat_vvel_del2            =   1.0177711586193E-08
(PID.TID 0000.0001) %MON dynstat_wvel_max             =   1.1818275188415E-06
(PID.TID 0000.0001) %MON dynstat_wvel_min             =  -1.1343558676357E-06
(PID.TID 0000.0001) %MON dynstat_wvel_mean            =  -1.2551338028596E-10
(PID.TID 0000.0001) %MON dynstat_wvel_sd              =   3.5810521215332E-08
(PID.TID 0000.0001) %MON dynstat_wvel_del2            =   1.5992223860866E-10
(PID.TID 0000.0001) %MON dynstat_theta_max            =  -1.9000000000000E+00
(PID.TID 0000.0001) %MON dynstat_theta_min            =  -1.9121797614443E+00
(PID.TID 0000.0001) %MON dynstat_theta_mean           =  -1.9001027787834E+00
(PID.TID 0000.0001) %MON dynstat_theta_sd             =   7.9284337894269E-04
(PID.TID 0000.0001) %MON dynstat_theta_del2           =   9.1602361795885E-07
(PID.TID 0000.0001) %MON dynstat_salt_max             =   3.4400000000000E+01
(PID.TID 0000.0001) %MON dynstat_salt_min             =   3.4395029856261E+01
(PID.TID 0000.0001) %MON dynstat_salt_mean            =   3.4399958261712E+01
(PID.TID 0000.0001) %MON dynstat_salt_sd              =   3.2272153716712E-04
(PID.TID 0000.0001) %MON dynstat_salt_del2            =   3.7246425603627E-07
(PID.TID 0000.0001) %MON advcfl_uvel_max              =   7.3545407549673E-05
(PID.TID 0000.0001) %MON advcfl_vvel_max              =   1.1236287144604E-05
(PID.TID 0000.0001) %MON advcfl_wvel_max              =   7.0909651130492E-05
(PID.TID 0000.0001) %MON advcfl_W_hf_max              =   7.7446240483523E-05
(PID.TID 0000.0001) %MON pe_b_mean                    =  -8.5967168551809E-08
(PID.TID 0000.0001) %MON ke_max                       =   3.1432413222885E-08
(PID.TID 0000.0001) %MON ke_mean                      =   1.3539991282595E-10
(PID.TID 0000.0001) %MON ke_vol                       =   3.4703745874271E+14
(PID.TID 0000.0001) %MON vort_r_min                   =  -1.1719970176145E-08
(PID.TID 0000.0001) %MON vort_r_max                   =   1.1917521334904E-08
(PID.TID 0000.0001) %MON vort_a_mean                  =  -1.3992981962368E-04
(PID.TID 0000.0001) %MON vort_a_sd                    =   1.7365053003443E-06
(PID.TID 0000.0001) %MON vort_p_mean                  =  -1.4746660585615E-04
(PID.TID 0000.0001) %MON vort_p_sd                    =   7.7971264587816E-05
(PID.TID 0000.0001) %MON surfExpan_theta_mean         =  -1.6822539024370E-12
(PID.TID 0000.0001) %MON surfExpan_salt_mean          =  -6.8397731235750E-13
(PID.TID 0000.0001) // =======================================================
(PID.TID 0000.0001) // End MONITOR dynamic field statistics
(PID.TID 0000.0001) // =======================================================
 cg2d: Sum(rhs),rhsMax =  -1.27897692436818E-13  1.95706332698176E-04
(PID.TID 0000.0001)                    cg2d_init_res =    1.55049257318908E+00
(PID.TID 0000.0001)                       cg2d_iters =   205
(PID.TID 0000.0001)                         cg2d_res =    9.11079527252727E-14
(PID.TID 0000.0001) // =======================================================
(PID.TID 0000.0001) // Begin MONITOR dynamic field statistics
(PID.TID 0000.0001) // =======================================================
(PID.TID 0000.0001) %MON time_tsnumber                =                    19
(PID.TID 0000.0001) %MON time_secondsf                =   3.4200000000000E+04
(PID.TID 0000.0001) %MON dynstat_eta_max              =   9.5595397078217E-05
(PID.TID 0000.0001) %MON dynstat_eta_min              =  -2.6376065639344E-05
(PID.TID 0000.0001) %MON dynstat_eta_mean             =   2.9812813196895E-20
(PID.TID 0000.0001) %MON dynstat_eta_sd               =   3.2285528367390E-05
(PID.TID 0000.0001) %MON dynstat_eta_del2             =   5.4762107521741E-07
(PID.TID 0000.0001) %MON dynstat_uvel_max             =   3.9077951704392E-05
(PID.TID 0000.0001) %MON dynstat_uvel_min             =  -2.5921377669689E-04
(PID.TID 0000.0001) %MON dynstat_uvel_mean            =   3.2378114704324E-09
(PID.TID 0000.0001) %MON dynstat_uvel_sd              =   1.6995428664203E-05
(PID.TID 0000.0001) %MON dynstat_uvel_del2            =   3.6671518162286E-08
(PID.TID 0000.0001) %MON dynstat_vvel_max             =   6.2473888710453E-05
(PID.TID 0000.0001) %MON dynstat_vvel_min             =  -1.2965982015171E-05
(PID.TID 0000.0001) %MON dynstat_vvel_mean            =  -2.0628086291334E-07
(PID.TID 0000.0001) %MON dynstat_vvel_sd              =   2.8853904800505E-06
(PID.TID 0000.0001) %MON dynstat_vvel_del2            =   9.2415549878548E-09
(PID.TID 0000.0001) %MON dynstat_wvel_max             =   1.2363005237793E-06
(PID.TID 0000.0001) %MON dynstat_wvel_min             =  -1.1926468323706E-06
(PID.TID 0000.0001) %MON dynstat_wvel_mean            =  -1.4028144197079E-10
(PID.TID 0000.0001) %MON dynstat_wvel_sd              =   3.7037312644546E-08
(PID.TID 0000.0001) %MON dynstat_wvel_del2            =   1.5771070776338E-10
(PID.TID 0000.0001) %MON dynstat_theta_max            =  -1.9000000000000E+00
(PID.TID 0000.0001) %MON dynstat_theta_min            =  -1.9128476004815E+00
(PID.TID 0000.0001) %MON dynstat_theta_mean           =  -1.9001084269440E+00
(PID.TID 0000.0001) %MON dynstat_theta_sd             =   8.3624678080632E-04
(PID.TID 0000.0001) %MON dynstat_theta_del2           =   9.6497102422855E-07
(PID.TID 0000.0001) %MON dynstat_salt_max             =   3.4400000000000E+01
(PID.TID 0000.0001) %MON dynstat_salt_min             =   3.4394757351460E+01
(PID.TID 0000.0001) %MON dynstat_salt_mean            =   3.4399955968245E+01
(PID.TID 0000.0001) %MON dynstat_salt_sd              =   3.4038696781054E-04
(PID.TID 0000.0001) %MON dynstat_salt_del2            =   3.9236411422371E-07
(PID.TID 0000.0001) %MON advcfl_uvel_max              =   7.7127516517269E-05
(PID.TID 0000.0001) %MON advcfl_vvel_max              =   1.0114728846440E-05
(PID.TID 0000.0001) %MON advcfl_wvel_max              =   7.4178031426757E-05
(PID.TID 0000.0001) %MON advcfl_W_hf_max              =   8.0177218196672E-05
(PID.TID 0000.0001) %MON pe_b_mean                    =  -8.8966458060978E-08
(PID.TID 0000.0001) %MON ke_max                       =   3.4242903192605E-08
(PID.TID 0000.0001) %MON ke_mean                      =   1.4560432875308E-10
(PID.TID 0000.0001) %MON ke_vol                       =   3.4703745874271E+14
(PID.TID 0000.0001) %MON vort_r_min                   =  -1.0495163946130E-08
(PID.TID 0000.0001) %MON vort_r_max                   =   1.2510049157491E-08
(PID.TID 0000.0001) %MON vort_a_mean                  =  -1.3992981963509E-04
(PID.TID 0000.0001) %MON vort_a_sd                    =   1.7365051922705E-06
(PID.TID 0000.0001) %MON vort_p_mean                  =  -1.4746660586818E-04
(PID.TID 0000.0001) %MON vort_p_sd                    =   7.7971151720839E-05
(PID.TID 0000.0001) %MON surfExpan_theta_mean         =  -1.9827829038610E-12
(PID.TID 0000.0001) %MON surfExpan_salt_mean          =  -8.0637153915250E-13
(PID.TID 0000.0001) // =======================================================
(PID.TID 0000.0001) // End MONITOR dynamic field statistics
(PID.TID 0000.0001) // =======================================================
 cg2d: Sum(rhs),rhsMax =   4.26325641456060E-14  2.05967723230633E-04
(PID.TID 0000.0001)                    cg2d_init_res =    1.47057877312497E+00
(PID.TID 0000.0001)                       cg2d_iters =   205
(PID.TID 0000.0001)                         cg2d_res =    8.11124558117061E-14
(PID.TID 0000.0001) // =======================================================
(PID.TID 0000.0001) // Begin MONITOR dynamic field statistics
(PID.TID 0000.0001) // =======================================================
(PID.TID 0000.0001) %MON time_tsnumber                =                    20
(PID.TID 0000.0001) %MON time_secondsf                =   3.6000000000000E+04
(PID.TID 0000.0001) %MON dynstat_eta_max              =   9.9124444217586E-05
(PID.TID 0000.0001) %MON dynstat_eta_min              =  -2.7357221617733E-05
(PID.TID 0000.0001) %MON dynstat_eta_mean             =  -7.0273059678395E-20
(PID.TID 0000.0001) %MON dynstat_eta_sd               =   3.3554434788573E-05
(PID.TID 0000.0001) %MON dynstat_eta_del2             =   5.7660797685847E-07
(PID.TID 0000.0001) %MON dynstat_uvel_max             =   4.0814240997014E-05
(PID.TID 0000.0001) %MON dynstat_uvel_min             =  -2.6929926874925E-04
(PID.TID 0000.0001) %MON dynstat_uvel_mean            =   7.8194901930192E-09
(PID.TID 0000.0001) %MON dynstat_uvel_sd              =   1.7587249567635E-05
(PID.TID 0000.0001) %MON dynstat_uvel_del2            =   3.8120827306959E-08
(PID.TID 0000.0001) %MON dynstat_vvel_max             =   5.6157851609309E-05
(PID.TID 0000.0001) %MON dynstat_vvel_min             =  -1.2154831910164E-05
(PID.TID 0000.0001) %MON dynstat_vvel_mean            =  -2.3808295595184E-07
(PID.TID 0000.0001) %MON dynstat_vvel_sd              =   2.4564611336727E-06
(PID.TID 0000.0001) %MON dynstat_vvel_del2            =   8.3876820104068E-09
(PID.TID 0000.0001) %MON dynstat_wvel_max             =   1.2839105336170E-06
(PID.TID 0000.0001) %MON dynstat_wvel_min             =  -1.2437024217916E-06
(PID.TID 0000.0001) %MON dynstat_wvel_mean            =  -1.6099674174139E-10
(PID.TID 0000.0001) %MON dynstat_wvel_sd              =   3.8126539593610E-08
(PID.TID 0000.0001) %MON dynstat_wvel_del2            =   1.5664602281373E-10
(PID.TID 0000.0001) %MON dynstat_theta_max            =  -1.9000000000000E+00
(PID.TID 0000.0001) %MON dynstat_theta_min            =  -1.9135145297940E+00
(PID.TID 0000.0001) %MON dynstat_theta_mean           =  -1.9001140686998E+00
(PID.TID 0000.0001) %MON dynstat_theta_sd             =   8.7958364025612E-04
(PID.TID 0000.0001) %MON dynstat_theta_del2           =   1.0137214416945E-06
(PID.TID 0000.0001) %MON dynstat_salt_max             =   3.4400000000000E+01
(PID.TID 0000.0001) %MON dynstat_salt_min             =   3.4394485219671E+01
(PID.TID 0000.0001) %MON dynstat_salt_mean            =   3.4399953677403E+01
(PID.TID 0000.0001) %MON dynstat_salt_sd              =   3.5802514523884E-04
(PID.TID 0000.0001) %MON dynstat_salt_del2            =   4.1218360532444E-07
(PID.TID 0000.0001) %MON advcfl_uvel_max              =   8.0128394652551E-05
(PID.TID 0000.0001) %MON advcfl_vvel_max              =   9.0921415866933E-06
(PID.TID 0000.0001) %MON advcfl_wvel_max              =   7.7034632017018E-05
(PID.TID 0000.0001) %MON advcfl_W_hf_max              =   8.2554251596725E-05
(PID.TID 0000.0001) %MON pe_b_mean                    =  -9.2341098299918E-08
(PID.TID 0000.0001) %MON ke_max                       =   3.6723629783228E-08
(PID.TID 0000.0001) %MON ke_mean                      =   1.5450517535822E-10
(PID.TID 0000.0001) %MON ke_vol                       =   3.4703745874271E+14
(PID.TID 0000.0001) %MON vort_r_min                   =  -9.3816486110890E-09
(PID.TID 0000.0001) %MON vort_r_max                   =   1.3101603291966E-08
(PID.TID 0000.0001) %MON vort_a_mean                  =  -1.3992981963818E-04
(PID.TID 0000.0001) %MON vort_a_sd                    =   1.7365051365559E-06
(PID.TID 0000.0001) %MON vort_p_mean                  =  -1.4746660587143E-04
(PID.TID 0000.0001) %MON vort_p_sd                    =   7.7971057851092E-05
(PID.TID 0000.0001) %MON surfExpan_theta_mean         =  -2.3926480160737E-12
(PID.TID 0000.0001) %MON surfExpan_salt_mean          =  -9.7330543923245E-13
(PID.TID 0000.0001) // =======================================================
(PID.TID 0000.0001) // End MONITOR dynamic field statistics
(PID.TID 0000.0001) // =======================================================
 Computing Diagnostic #    185  SHIfwFlx     Counter:      10   Parms: SM      L1      
 Computing Diagnostic #    186  SHIhtFlx     Counter:      10   Parms: SM      L1      
 Computing Diagnostic #    191  ICFfwFlx     Counter:      10   Parms: SM      MR      
 Computing Diagnostic #    192  ICFhtFlx     Counter:      10   Parms: SM      MR      
(PID.TID 0000.0001) %CHECKPOINT        20 ckptA
(PID.TID 0000.0001)   Seconds in section "ALL                    [THE_MODEL_MAIN]":
(PID.TID 0000.0001)           User time:   17.080000000000002
(PID.TID 0000.0001)         System time:  7.00000000000000067E-002
(PID.TID 0000.0001)     Wall clock time:   17.196520090103149
(PID.TID 0000.0001)          No. starts:           1
(PID.TID 0000.0001)           No. stops:           1
(PID.TID 0000.0001)   Seconds in section "INITIALISE_FIXED       [THE_MODEL_MAIN]":
(PID.TID 0000.0001)           User time:  0.12000000000000000
(PID.TID 0000.0001)         System time:  1.00000000000000002E-002
(PID.TID 0000.0001)     Wall clock time:  0.15087699890136719
(PID.TID 0000.0001)          No. starts:           1
(PID.TID 0000.0001)           No. stops:           1
(PID.TID 0000.0001)   Seconds in section "THE_MAIN_LOOP          [THE_MODEL_MAIN]":
(PID.TID 0000.0001)           User time:   16.950000000000003
(PID.TID 0000.0001)         System time:  6.00000000000000047E-002
(PID.TID 0000.0001)     Wall clock time:   17.045597076416016
(PID.TID 0000.0001)          No. starts:           1
(PID.TID 0000.0001)           No. stops:           1
(PID.TID 0000.0001)   Seconds in section "INITIALISE_VARIA    [THE_MAIN_LOOP]":
(PID.TID 0000.0001)           User time:  0.25000000000000000
(PID.TID 0000.0001)         System time:  1.99999999999999969E-002
(PID.TID 0000.0001)     Wall clock time:  0.27491998672485352
(PID.TID 0000.0001)          No. starts:           1
(PID.TID 0000.0001)           No. stops:           1
(PID.TID 0000.0001)   Seconds in section "MAIN LOOP           [THE_MAIN_LOOP]":
(PID.TID 0000.0001)           User time:   16.700000000000003
(PID.TID 0000.0001)         System time:  4.00000000000000078E-002
(PID.TID 0000.0001)     Wall clock time:   16.770649909973145
(PID.TID 0000.0001)          No. starts:           1
(PID.TID 0000.0001)           No. stops:           1
(PID.TID 0000.0001)   Seconds in section "FORWARD_STEP        [THE_MAIN_LOOP]":
(PID.TID 0000.0001)           User time:   16.700000000000003
(PID.TID 0000.0001)         System time:  4.00000000000000078E-002
(PID.TID 0000.0001)     Wall clock time:   16.770467996597290
(PID.TID 0000.0001)          No. starts:          20
(PID.TID 0000.0001)           No. stops:          20
(PID.TID 0000.0001)   Seconds in section "UPDATE_SURF_DR      [FORWARD_STEP]":
(PID.TID 0000.0001)           User time:  0.17000000000000171
(PID.TID 0000.0001)         System time:   0.0000000000000000
(PID.TID 0000.0001)     Wall clock time:  0.15241646766662598
(PID.TID 0000.0001)          No. starts:          40
(PID.TID 0000.0001)           No. stops:          40
(PID.TID 0000.0001)   Seconds in section "DO_STATEVARS_DIAGS  [FORWARD_STEP]":
(PID.TID 0000.0001)           User time:   0.0000000000000000
(PID.TID 0000.0001)         System time:   0.0000000000000000
(PID.TID 0000.0001)     Wall clock time:  6.09159469604492188E-004
(PID.TID 0000.0001)          No. starts:          40
(PID.TID 0000.0001)           No. stops:          40
(PID.TID 0000.0001)   Seconds in section "LOAD_FIELDS_DRIVER  [FORWARD_STEP]":
(PID.TID 0000.0001)           User time:   0.0000000000000000
(PID.TID 0000.0001)         System time:   0.0000000000000000
(PID.TID 0000.0001)     Wall clock time:  5.27143478393554688E-004
(PID.TID 0000.0001)          No. starts:          20
(PID.TID 0000.0001)           No. stops:          20
(PID.TID 0000.0001)   Seconds in section "EXTERNAL_FLDS_LOAD [LOAD_FLDS_DRIVER]":
(PID.TID 0000.0001)           User time:   0.0000000000000000
(PID.TID 0000.0001)         System time:   0.0000000000000000
(PID.TID 0000.0001)     Wall clock time:  1.81436538696289063E-004
(PID.TID 0000.0001)          No. starts:          20
(PID.TID 0000.0001)           No. stops:          20
(PID.TID 0000.0001)   Seconds in section "DO_ATMOSPHERIC_PHYS [FORWARD_STEP]":
(PID.TID 0000.0001)           User time:   0.0000000000000000
(PID.TID 0000.0001)         System time:   0.0000000000000000
(PID.TID 0000.0001)     Wall clock time:  1.78098678588867188E-004
(PID.TID 0000.0001)          No. starts:          20
(PID.TID 0000.0001)           No. stops:          20
(PID.TID 0000.0001)   Seconds in section "DO_OCEANIC_PHYS     [FORWARD_STEP]":
(PID.TID 0000.0001)           User time:  0.58999999999999631
(PID.TID 0000.0001)         System time:   0.0000000000000000
(PID.TID 0000.0001)     Wall clock time:  0.58076524734497070
(PID.TID 0000.0001)          No. starts:          20
(PID.TID 0000.0001)           No. stops:          20
(PID.TID 0000.0001)   Seconds in section "SHELFICE_THERMODYNAMICS [DO_OCEANIC_PHYS]":
(PID.TID 0000.0001)           User time:  6.00000000000022737E-002
(PID.TID 0000.0001)         System time:   0.0000000000000000
(PID.TID 0000.0001)     Wall clock time:  3.47352027893066406E-002
(PID.TID 0000.0001)          No. starts:          20
(PID.TID 0000.0001)           No. stops:          20
(PID.TID 0000.0001)   Seconds in section "ICEFRONT_THERMODYNAMICS [DO_OCEANIC_PHYS]":
(PID.TID 0000.0001)           User time:  8.99999999999963052E-002
(PID.TID 0000.0001)         System time:   0.0000000000000000
(PID.TID 0000.0001)     Wall clock time:  8.75403881072998047E-002
(PID.TID 0000.0001)          No. starts:          20
(PID.TID 0000.0001)           No. stops:          20
(PID.TID 0000.0001)   Seconds in section "THERMODYNAMICS      [FORWARD_STEP]":
(PID.TID 0000.0001)           User time:   2.5400000000000027
(PID.TID 0000.0001)         System time:   0.0000000000000000
(PID.TID 0000.0001)     Wall clock time:   2.5341801643371582
(PID.TID 0000.0001)          No. starts:          20
(PID.TID 0000.0001)           No. stops:          20
(PID.TID 0000.0001)   Seconds in section "DYNAMICS            [FORWARD_STEP]":
(PID.TID 0000.0001)           User time:   6.2500000000000071
(PID.TID 0000.0001)         System time:   0.0000000000000000
(PID.TID 0000.0001)     Wall clock time:   6.3098018169403076
(PID.TID 0000.0001)          No. starts:          20
(PID.TID 0000.0001)           No. stops:          20
(PID.TID 0000.0001)   Seconds in section "SOLVE_FOR_PRESSURE  [FORWARD_STEP]":
(PID.TID 0000.0001)           User time:   3.1499999999999950
(PID.TID 0000.0001)         System time:   0.0000000000000000
(PID.TID 0000.0001)     Wall clock time:   3.1466510295867920
(PID.TID 0000.0001)          No. starts:          20
(PID.TID 0000.0001)           No. stops:          20
(PID.TID 0000.0001)   Seconds in section "MOM_CORRECTION_STEP [FORWARD_STEP]":
(PID.TID 0000.0001)           User time:  0.58999999999999986
(PID.TID 0000.0001)         System time:  1.00000000000000019E-002
(PID.TID 0000.0001)     Wall clock time:  0.60262966156005859
(PID.TID 0000.0001)          No. starts:          20
(PID.TID 0000.0001)           No. stops:          20
(PID.TID 0000.0001)   Seconds in section "UPDATE_ETAH         [FORWARD_STEP]":
(PID.TID 0000.0001)           User time:   0.0000000000000000
(PID.TID 0000.0001)         System time:   0.0000000000000000
(PID.TID 0000.0001)     Wall clock time:  2.12192535400390625E-003
(PID.TID 0000.0001)          No. starts:          20
(PID.TID 0000.0001)           No. stops:          20
(PID.TID 0000.0001)   Seconds in section "TRC_CORRECTION_STEP [FORWARD_STEP]":
(PID.TID 0000.0001)           User time:   1.1800000000000033
(PID.TID 0000.0001)         System time:   0.0000000000000000
(PID.TID 0000.0001)     Wall clock time:   1.1646072864532471
(PID.TID 0000.0001)          No. starts:          20
(PID.TID 0000.0001)           No. stops:          20
(PID.TID 0000.0001)   Seconds in section "BLOCKING_EXCHANGES  [FORWARD_STEP]":
(PID.TID 0000.0001)           User time:  7.99999999999982947E-002
(PID.TID 0000.0001)         System time:   0.0000000000000000
(PID.TID 0000.0001)     Wall clock time:  0.10595750808715820
(PID.TID 0000.0001)          No. starts:          20
(PID.TID 0000.0001)           No. stops:          20
(PID.TID 0000.0001)   Seconds in section "DO_STATEVARS_TAVE   [FORWARD_STEP]":
(PID.TID 0000.0001)           User time:   0.0000000000000000
(PID.TID 0000.0001)         System time:   0.0000000000000000
(PID.TID 0000.0001)     Wall clock time:  1.83343887329101563E-004
(PID.TID 0000.0001)          No. starts:          20
(PID.TID 0000.0001)           No. stops:          20
(PID.TID 0000.0001)   Seconds in section "MONITOR             [FORWARD_STEP]":
(PID.TID 0000.0001)           User time:   1.9699999999999989
(PID.TID 0000.0001)         System time:   0.0000000000000000
(PID.TID 0000.0001)     Wall clock time:   1.9734616279602051
(PID.TID 0000.0001)          No. starts:          20
(PID.TID 0000.0001)           No. stops:          20
(PID.TID 0000.0001)   Seconds in section "DO_THE_MODEL_IO     [FORWARD_STEP]":
(PID.TID 0000.0001)           User time:  8.99999999999998579E-002
(PID.TID 0000.0001)         System time:  1.00000000000000019E-002
(PID.TID 0000.0001)     Wall clock time:  8.99260044097900391E-002
(PID.TID 0000.0001)          No. starts:          20
(PID.TID 0000.0001)           No. stops:          20
(PID.TID 0000.0001)   Seconds in section "DO_WRITE_PICKUP     [FORWARD_STEP]":
(PID.TID 0000.0001)           User time:  8.99999999999998579E-002
(PID.TID 0000.0001)         System time:  2.00000000000000039E-002
(PID.TID 0000.0001)     Wall clock time:  0.10303425788879395
(PID.TID 0000.0001)          No. starts:          20
(PID.TID 0000.0001)           No. stops:          20
(PID.TID 0000.0001) // ======================================================
(PID.TID 0000.0001) // Tile <-> Tile communication statistics
(PID.TID 0000.0001) // ======================================================
(PID.TID 0000.0001) // o Tile number: 000001
(PID.TID 0000.0001) //         No. X exchanges =              0
(PID.TID 0000.0001) //            Max. X spins =              0
(PID.TID 0000.0001) //            Min. X spins =     1000000000
(PID.TID 0000.0001) //          Total. X spins =              0
(PID.TID 0000.0001) //            Avg. X spins =       0.00E+00
(PID.TID 0000.0001) //         No. Y exchanges =              0
(PID.TID 0000.0001) //            Max. Y spins =              0
(PID.TID 0000.0001) //            Min. Y spins =     1000000000
(PID.TID 0000.0001) //          Total. Y spins =              0
(PID.TID 0000.0001) //            Avg. Y spins =       0.00E+00
(PID.TID 0000.0001) // o Tile number: 000002
(PID.TID 0000.0001) //         No. X exchanges =              0
(PID.TID 0000.0001) //            Max. X spins =              0
(PID.TID 0000.0001) //            Min. X spins =     1000000000
(PID.TID 0000.0001) //          Total. X spins =              0
(PID.TID 0000.0001) //            Avg. X spins =       0.00E+00
(PID.TID 0000.0001) //         No. Y exchanges =              0
(PID.TID 0000.0001) //            Max. Y spins =              0
(PID.TID 0000.0001) //            Min. Y spins =     1000000000
(PID.TID 0000.0001) //          Total. Y spins =              0
(PID.TID 0000.0001) //            Avg. Y spins =       0.00E+00
(PID.TID 0000.0001) // o Thread number: 000001
(PID.TID 0000.0001) //            No. barriers =          28298
(PID.TID 0000.0001) //      Max. barrier spins =              1
(PID.TID 0000.0001) //      Min. barrier spins =              1
(PID.TID 0000.0001) //     Total barrier spins =          28298
(PID.TID 0000.0001) //      Avg. barrier spins =       1.00E+00
PROGRAM MAIN: Execution ended Normally
