(PID.TID 0000.0001) 
(PID.TID 0000.0001) // ======================================================
(PID.TID 0000.0001) //                      MITgcm UV
(PID.TID 0000.0001) //                      =========
(PID.TID 0000.0001) // ======================================================
(PID.TID 0000.0001) // execution environment starting up...
(PID.TID 0000.0001) 
(PID.TID 0000.0001) // MITgcmUV version:  checkpoint63l
(PID.TID 0000.0001) // Build user:        mlosch
(PID.TID 0000.0001) // Build host:        csysl24
(PID.TID 0000.0001) // Build date:        Wed Apr 25 17:39:11 CEST 2012
(PID.TID 0000.0001) 
(PID.TID 0000.0001) // =======================================================
(PID.TID 0000.0001) // Execution Environment parameter file "eedata"
(PID.TID 0000.0001) // =======================================================
(PID.TID 0000.0001) ># Example "eedata" file
(PID.TID 0000.0001) ># Lines beginning "#" are comments
(PID.TID 0000.0001) ># nTx - No. threads per process in X
(PID.TID 0000.0001) ># nTy - No. threads per process in Y
(PID.TID 0000.0001) > &EEPARMS
(PID.TID 0000.0001) > /
(PID.TID 0000.0001) ># Note: Some systems use & as the
(PID.TID 0000.0001) ># namelist terminator. Other systems
(PID.TID 0000.0001) ># use a / character (as shown here).
(PID.TID 0000.0001) 
(PID.TID 0000.0001) // =======================================================
(PID.TID 0000.0001) // Computational Grid Specification ( see files "SIZE.h" )
(PID.TID 0000.0001) //                                  ( and "eedata"       )
(PID.TID 0000.0001) // =======================================================
(PID.TID 0000.0001)      nPx =    1 ; /* No. processes in X */
(PID.TID 0000.0001)      nPy =    1 ; /* No. processes in Y */
(PID.TID 0000.0001)      nSx =    1 ; /* No. tiles in X per process */
(PID.TID 0000.0001)      nSy =    2 ; /* No. tiles in Y per process */
(PID.TID 0000.0001)      sNx =   50 ; /* Tile size in X */
(PID.TID 0000.0001)      sNy =   50 ; /* Tile size in Y */
(PID.TID 0000.0001)      OLx =    3 ; /* Tile overlap distance in X */
(PID.TID 0000.0001)      OLy =    3 ; /* Tile overlap distance in Y */
(PID.TID 0000.0001)      nTx =    1 ; /* No. threads in X per process */
(PID.TID 0000.0001)      nTy =    1 ; /* No. threads in Y per process */
(PID.TID 0000.0001)       Nr =   30 ; /* No. levels in the vertical   */
(PID.TID 0000.0001)       Nx =   50 ; /* Total domain size in X ( = nPx*nSx*sNx ) */
(PID.TID 0000.0001)       Ny =  100 ; /* Total domain size in Y ( = nPy*nSy*sNy ) */
(PID.TID 0000.0001)   nTiles =    2 ; /* Total no. tiles per process ( = nSx*nSy ) */
(PID.TID 0000.0001)   nProcs =    1 ; /* Total no. processes ( = nPx*nPy ) */
(PID.TID 0000.0001) nThreads =    1 ; /* Total no. threads per process ( = nTx*nTy ) */
(PID.TID 0000.0001) usingMPI =    F ; /* Flag used to control whether MPI is in use */
(PID.TID 0000.0001)                   /*  note: To execute a program with MPI calls */
(PID.TID 0000.0001)                   /*  it must be launched appropriately e.g     */
(PID.TID 0000.0001)                   /*  "mpirun -np 64 ......"                    */
(PID.TID 0000.0001) useCoupler=    F ;/* Flag used to control communications with   */
(PID.TID 0000.0001)                   /*  other model components, through a coupler */
(PID.TID 0000.0001) debugMode =    F ; /* print debug msg. (sequence of S/R calls)  */
(PID.TID 0000.0001) printMapIncludesZeros=    F ; /* print zeros in Std.Output maps */
(PID.TID 0000.0001) maxLengthPrt1D=   65 /* maxLength of 1D array printed to StdOut */
(PID.TID 0000.0001) 
(PID.TID 0000.0001) // ======================================================
(PID.TID 0000.0001) // Mapping of tiles to threads
(PID.TID 0000.0001) // ======================================================
(PID.TID 0000.0001) // -o- Thread   1, tiles (   1:   1,   1:   2)
(PID.TID 0000.0001) 
(PID.TID 0000.0001) // ======================================================
(PID.TID 0000.0001) // Tile <-> Tile connectvity table
(PID.TID 0000.0001) // ======================================================
(PID.TID 0000.0001) // Tile number: 000001 (process no. = 000001)
(PID.TID 0000.0001) //        WEST: Tile = 000001, Process = 000001, Comm = put
(PID.TID 0000.0001) //                bi = 000001, bj = 000001
(PID.TID 0000.0001) //        EAST: Tile = 000001, Process = 000001, Comm = put
(PID.TID 0000.0001) //                bi = 000001, bj = 000001
(PID.TID 0000.0001) //       SOUTH: Tile = 000002, Process = 000001, Comm = put
(PID.TID 0000.0001) //                bi = 000001, bj = 000002
(PID.TID 0000.0001) //       NORTH: Tile = 000002, Process = 000001, Comm = put
(PID.TID 0000.0001) //                bi = 000001, bj = 000002
(PID.TID 0000.0001) // Tile number: 000002 (process no. = 000001)
(PID.TID 0000.0001) //        WEST: Tile = 000002, Process = 000001, Comm = put
(PID.TID 0000.0001) //                bi = 000001, bj = 000002
(PID.TID 0000.0001) //        EAST: Tile = 000002, Process = 000001, Comm = put
(PID.TID 0000.0001) //                bi = 000001, bj = 000002
(PID.TID 0000.0001) //       SOUTH: Tile = 000001, Process = 000001, Comm = put
(PID.TID 0000.0001) //                bi = 000001, bj = 000001
(PID.TID 0000.0001) //       NORTH: Tile = 000001, Process = 000001, Comm = put
(PID.TID 0000.0001) //                bi = 000001, bj = 000001
(PID.TID 0000.0001) 
(PID.TID 0000.0001)  INI_PARMS: opening model parameter file "data"
(PID.TID 0000.0001)  OPEN_COPY_DATA_FILE: opening file data
(PID.TID 0000.0001) // =======================================================
(PID.TID 0000.0001) // Parameter file "data"
(PID.TID 0000.0001) // =======================================================
(PID.TID 0000.0001) ># ====================
(PID.TID 0000.0001) ># | Model parameters |
(PID.TID 0000.0001) ># ====================
(PID.TID 0000.0001) >#
(PID.TID 0000.0001) ># Continuous equation parameters
(PID.TID 0000.0001) > &PARM01
(PID.TID 0000.0001) > Tref = 30*-1.9,
(PID.TID 0000.0001) > Sref = 30*34.4,
(PID.TID 0000.0001) > viscAz=1.E-3,
(PID.TID 0000.0001) > viscAh=600.0,
(PID.TID 0000.0001) > no_slip_sides=.FALSE.,
(PID.TID 0000.0001) > diffKhT=100.0,
(PID.TID 0000.0001) > diffKzT=5.E-5,
(PID.TID 0000.0001) > diffKhS=100.0,
(PID.TID 0000.0001) > diffKzS=5.E-5,
(PID.TID 0000.0001) > bottomDragQuadratic=2.5E-3,
(PID.TID 0000.0001) > eosType='JMD95Z',
(PID.TID 0000.0001) > HeatCapacity_cp = 3974.0,
(PID.TID 0000.0001) > rhoConst=1030.,
(PID.TID 0000.0001) > rhoNil=1030.,
(PID.TID 0000.0001) > gravity=9.81,
(PID.TID 0000.0001) > convertFW2Salt = 33.4,
(PID.TID 0000.0001) > rigidLid=.FALSE.,
(PID.TID 0000.0001) > implicitFreeSurface=.TRUE.,
(PID.TID 0000.0001) > exactConserv=.TRUE.,
(PID.TID 0000.0001) > hFacMin=0.05,
(PID.TID 0000.0001) > nonHydrostatic=.FALSE.,
(PID.TID 0000.0001) > readBinaryPrec=64,
(PID.TID 0000.0001) > useCDScheme = .TRUE.,
(PID.TID 0000.0001) > /
(PID.TID 0000.0001) >
(PID.TID 0000.0001) ># Elliptic solver parameters
(PID.TID 0000.0001) > &PARM02
(PID.TID 0000.0001) > cg2dMaxIters=1000,
(PID.TID 0000.0001) > cg2dTargetResidual=1.E-13,
(PID.TID 0000.0001) > cg3dMaxIters=400,
(PID.TID 0000.0001) > cg3dTargetResidual=1.E-13,
(PID.TID 0000.0001) > /
(PID.TID 0000.0001) >
(PID.TID 0000.0001) ># Time stepping parameters
(PID.TID 0000.0001) > &PARM03
(PID.TID 0000.0001) > nIter0=0,
(PID.TID 0000.0001) > nTimeSteps=20,
(PID.TID 0000.0001) > deltaT=1800.0,
(PID.TID 0000.0001) > abEps=0.1,
(PID.TID 0000.0001) > cAdjFreq = -1.,
(PID.TID 0000.0001) > tauCD = 400000.,
(PID.TID 0000.0001) > pChkptFreq=0.0,
(PID.TID 0000.0001) > chkptFreq=0.0,
(PID.TID 0000.0001) > dumpFreq=0.0,
(PID.TID 0000.0001) > taveFreq=0.0,
(PID.TID 0000.0001) > monitorFreq=1.,
(PID.TID 0000.0001) > monitorSelect=2,
(PID.TID 0000.0001) > /
(PID.TID 0000.0001) >
(PID.TID 0000.0001) ># Gridding parameters
(PID.TID 0000.0001) > &PARM04
(PID.TID 0000.0001) > usingSphericalPolarGrid=.TRUE.,
(PID.TID 0000.0001) > ygOrigin = -80.0,
(PID.TID 0000.0001) > delX=50*0.3,
(PID.TID 0000.0001) > delY=100*0.1,
(PID.TID 0000.0001) > delZ=30*30.0,
(PID.TID 0000.0001) > /
(PID.TID 0000.0001) >
(PID.TID 0000.0001) ># Input datasets
(PID.TID 0000.0001) > &PARM05
(PID.TID 0000.0001) > bathyFile='bathy.box',
(PID.TID 0000.0001) > /
(PID.TID 0000.0001) 
(PID.TID 0000.0001)  INI_PARMS ; starts to read PARM01
(PID.TID 0000.0001)  INI_PARMS ; read PARM01 : OK
(PID.TID 0000.0001)  INI_PARMS ; starts to read PARM02
(PID.TID 0000.0001)  INI_PARMS ; read PARM02 : OK
(PID.TID 0000.0001)  INI_PARMS ; starts to read PARM03
(PID.TID 0000.0001)  INI_PARMS ; read PARM03 : OK
(PID.TID 0000.0001)  INI_PARMS ; starts to read PARM04
(PID.TID 0000.0001)  INI_PARMS ; read PARM04 : OK
(PID.TID 0000.0001)  INI_PARMS ; starts to read PARM05
(PID.TID 0000.0001)  INI_PARMS ; read PARM05 : OK
(PID.TID 0000.0001)  INI_PARMS: finished reading file "data"
(PID.TID 0000.0001)  PACKAGES_BOOT: opening data.pkg
(PID.TID 0000.0001)  OPEN_COPY_DATA_FILE: opening file data.pkg
(PID.TID 0000.0001) // =======================================================
(PID.TID 0000.0001) // Parameter file "data.pkg"
(PID.TID 0000.0001) // =======================================================
(PID.TID 0000.0001) ># Packages
(PID.TID 0000.0001) > &PACKAGES
(PID.TID 0000.0001) > useMNC=.TRUE.,
(PID.TID 0000.0001) > useShelfIce=.true.,
(PID.TID 0000.0001) > /
(PID.TID 0000.0001) 
(PID.TID 0000.0001)  PACKAGES_BOOT: finished reading data.pkg
(PID.TID 0000.0001)  MNC_READPARMS: opening file 'data.mnc'
(PID.TID 0000.0001)  OPEN_COPY_DATA_FILE: opening file data.mnc
(PID.TID 0000.0001) // =======================================================
(PID.TID 0000.0001) // Parameter file "data.mnc"
(PID.TID 0000.0001) // =======================================================
(PID.TID 0000.0001) ># Example "data.mnc" file
(PID.TID 0000.0001) ># Lines beginning "#" are comments
(PID.TID 0000.0001) > &MNC_01
(PID.TID 0000.0001) ># mnc_echo_gvtypes=.FALSE.,
(PID.TID 0000.0001) ># mnc_use_indir=.FALSE.,
(PID.TID 0000.0001) > mnc_use_outdir=.TRUE.,
(PID.TID 0000.0001) > mnc_outdir_str='mnc_test_',
(PID.TID 0000.0001) >#mnc_outdir_date=.TRUE.,
(PID.TID 0000.0001) > monitor_mnc=.FALSE.,
(PID.TID 0000.0001) >#snapshot_mnc=.FALSE.,
(PID.TID 0000.0001) >#timeave_mnc=.FALSE.,
(PID.TID 0000.0001) > pickup_read_mnc=.FALSE.,
(PID.TID 0000.0001) > pickup_write_mnc=.FALSE.,
(PID.TID 0000.0001) > /
(PID.TID 0000.0001) ># Note: Some systems use & as the
(PID.TID 0000.0001) ># namelist terminator. Other systems
(PID.TID 0000.0001) ># use a / character (as shown here).
(PID.TID 0000.0001) 
(PID.TID 0000.0001)  MNC_READPARMS: finished reading data.mnc
(PID.TID 0000.0001)  SHELFICE_READPARMS: opening data.shelfice
(PID.TID 0000.0001)  OPEN_COPY_DATA_FILE: opening file data.shelfice
(PID.TID 0000.0001) // =======================================================
(PID.TID 0000.0001) // Parameter file "data.shelfice"
(PID.TID 0000.0001) // =======================================================
(PID.TID 0000.0001) ># ===================================
(PID.TID 0000.0001) ># | Parameters for SHELFICE package |
(PID.TID 0000.0001) ># ===================================
(PID.TID 0000.0001) > &SHELFICE_PARM01
(PID.TID 0000.0001) > SHELFICEconserve = .TRUE.,
(PID.TID 0000.0001) > SHELFICEboundaryLayer = .TRUE.,
(PID.TID 0000.0001) > SHELFICEtopoFile='icetopo.exp1',
(PID.TID 0000.0001) > SHELFICEloadAnomalyFile = 'phi0surf.exp1.jmd95z',
(PID.TID 0000.0001) > no_slip_shelfice = .false.,
(PID.TID 0000.0001) > SHELFICEwriteState = .TRUE.,
(PID.TID 0000.0001) > SHELFICEuseGammaFrict = .FALSE.
(PID.TID 0000.0001) > /
(PID.TID 0000.0001) 
(PID.TID 0000.0001)  SHELFICE_READPARMS: finished reading data.shelfice
(PID.TID 0000.0001) SET_PARMS: done
(PID.TID 0000.0001) Enter INI_VERTICAL_GRID: setInterFDr=    T ; setCenterDr=    F
(PID.TID 0000.0001) %MON XC_max                       =   1.4850000000000E+01
(PID.TID 0000.0001) %MON XC_min                       =   1.5000000000000E-01
(PID.TID 0000.0001) %MON XC_mean                      =   7.5000000000000E+00
(PID.TID 0000.0001) %MON XC_sd                        =   4.3292609068985E+00
(PID.TID 0000.0001) %MON XG_max                       =   1.4700000000000E+01
(PID.TID 0000.0001) %MON XG_min                       =   1.1102230246252E-16
(PID.TID 0000.0001) %MON XG_mean                      =   7.3500000000000E+00
(PID.TID 0000.0001) %MON XG_sd                        =   4.3292609068985E+00
(PID.TID 0000.0001) %MON DXC_max                      =   1.1380125394806E+04
(PID.TID 0000.0001) %MON DXC_min                      =   5.8203914905589E+03
(PID.TID 0000.0001) %MON DXC_mean                     =   8.6215028627206E+03
(PID.TID 0000.0001) %MON DXC_sd                       =   1.6219001271572E+03
(PID.TID 0000.0001) %MON DXF_max                      =   1.1380125394806E+04
(PID.TID 0000.0001) %MON DXF_min                      =   5.8203914905589E+03
(PID.TID 0000.0001) %MON DXF_mean                     =   8.6215028627206E+03
(PID.TID 0000.0001) %MON DXF_sd                       =   1.6219001271572E+03
(PID.TID 0000.0001) %MON DXG_max                      =   1.1352761512017E+04
(PID.TID 0000.0001) %MON DXG_min                      =   5.7917296935586E+03
(PID.TID 0000.0001) %MON DXG_mean                     =   8.5934208253080E+03
(PID.TID 0000.0001) %MON DXG_sd                       =   1.6222785520817E+03
(PID.TID 0000.0001) %MON DXV_max                      =   1.1352761512017E+04
(PID.TID 0000.0001) %MON DXV_min                      =   5.7917296935586E+03
(PID.TID 0000.0001) %MON DXV_mean                     =   8.5934208253080E+03
(PID.TID 0000.0001) %MON DXV_sd                       =   1.6222785520817E+03
(PID.TID 0000.0001) %MON YC_max                       =  -7.0050000000001E+01
(PID.TID 0000.0001) %MON YC_min                       =  -7.9950000000000E+01
(PID.TID 0000.0001) %MON YC_mean                      =  -7.5000000000000E+01
(PID.TID 0000.0001) %MON YC_sd                        =   2.8866070047720E+00
(PID.TID 0000.0001) %MON YG_max                       =  -7.0100000000001E+01
(PID.TID 0000.0001) %MON YG_min                       =  -8.0000000000000E+01
(PID.TID 0000.0001) %MON YG_mean                      =  -7.5050000000000E+01
(PID.TID 0000.0001) %MON YG_sd                        =   2.8866070047720E+00
(PID.TID 0000.0001) %MON DYC_max                      =   1.1117747335204E+04
(PID.TID 0000.0001) %MON DYC_min                      =   1.1117747335204E+04
(PID.TID 0000.0001) %MON DYC_mean                     =   1.1117747335203E+04
(PID.TID 0000.0001) %MON DYC_sd                       =   6.0754246078432E-10
(PID.TID 0000.0001) %MON DYF_max                      =   1.1117747335204E+04
(PID.TID 0000.0001) %MON DYF_min                      =   1.1117747335204E+04
(PID.TID 0000.0001) %MON DYF_mean                     =   1.1117747335203E+04
(PID.TID 0000.0001) %MON DYF_sd                       =   6.0754246078432E-10
(PID.TID 0000.0001) %MON DYG_max                      =   1.1117747335204E+04
(PID.TID 0000.0001) %MON DYG_min                      =   1.1117747335204E+04
(PID.TID 0000.0001) %MON DYG_mean                     =   1.1117747335203E+04
(PID.TID 0000.0001) %MON DYG_sd                       =   6.0754246078432E-10
(PID.TID 0000.0001) %MON DYU_max                      =   1.1117747335204E+04
(PID.TID 0000.0001) %MON DYU_min                      =   1.1117747335204E+04
(PID.TID 0000.0001) %MON DYU_mean                     =   1.1117747335203E+04
(PID.TID 0000.0001) %MON DYU_sd                       =   6.0754246078432E-10
(PID.TID 0000.0001) %MON RA_max                       =   1.2652134272379E+08
(PID.TID 0000.0001) %MON RA_min                       =   6.4709633770803E+07
(PID.TID 0000.0001) %MON RA_mean                      =   9.5851678311588E+07
(PID.TID 0000.0001) %MON RA_sd                        =   1.8031873527991E+07
(PID.TID 0000.0001) %MON RAW_max                      =   1.2652134272379E+08
(PID.TID 0000.0001) %MON RAW_min                      =   6.4709633770803E+07
(PID.TID 0000.0001) %MON RAW_mean                     =   9.5851678311588E+07
(PID.TID 0000.0001) %MON RAW_sd                       =   1.8031873527991E+07
(PID.TID 0000.0001) %MON RAS_max                      =   1.2621711802744E+08
(PID.TID 0000.0001) %MON RAS_min                      =   6.4390979194019E+07
(PID.TID 0000.0001) %MON RAS_mean                     =   9.5539469354603E+07
(PID.TID 0000.0001) %MON RAS_sd                       =   1.8036080760153E+07
(PID.TID 0000.0001) %MON RAZ_max                      =   1.2621711802744E+08
(PID.TID 0000.0001) %MON RAZ_min                      =   6.4390979194019E+07
(PID.TID 0000.0001) %MON RAZ_mean                     =   9.5539469354603E+07
(PID.TID 0000.0001) %MON RAZ_sd                       =   1.8036080760153E+07
(PID.TID 0000.0001) %MON AngleCS_max                  =   1.0000000000000E+00
(PID.TID 0000.0001) %MON AngleCS_min                  =   1.0000000000000E+00
(PID.TID 0000.0001) %MON AngleCS_mean                 =   1.0000000000000E+00
(PID.TID 0000.0001) %MON AngleCS_sd                   =   0.0000000000000E+00
(PID.TID 0000.0001) %MON AngleSN_max                  =   0.0000000000000E+00
(PID.TID 0000.0001) %MON AngleSN_min                  =   0.0000000000000E+00
(PID.TID 0000.0001) %MON AngleSN_mean                 =   0.0000000000000E+00
(PID.TID 0000.0001) %MON AngleSN_sd                   =   0.0000000000000E+00
(PID.TID 0000.0001)  MDS_READ_FIELD: opening global file: bathy.box
(PID.TID 0000.0001)  MDS_READ_FIELD: opening global file: icetopo.exp1
(PID.TID 0000.0001) // =======================================================
(PID.TID 0000.0001) // Field Model R_low (ini_masks_etc)
(PID.TID 0000.0001) // CMIN =         -9.000000000000000E+02
(PID.TID 0000.0001) // CMAX =         -9.000000000000000E+02
(PID.TID 0000.0001) // CINT =          0.000000000000000E+00
(PID.TID 0000.0001) // SYMBOLS (CMIN->CMAX): -abcdefghijklmnopqrstuvwxyz+
(PID.TID 0000.0001) //                  0.0: .
(PID.TID 0000.0001) // RANGE I (Lo:Hi:Step):(    -2:    53:     1)
(PID.TID 0000.0001) // RANGE J (Lo:Hi:Step):(   103:    -2:    -1)
(PID.TID 0000.0001) // RANGE K (Lo:Hi:Step):(   1:   1:   1)
(PID.TID 0000.0001) // =======================================================
(PID.TID 0000.0001) // =======================================================
(PID.TID 0000.0001) // END OF FIELD                                          =
(PID.TID 0000.0001) // =======================================================
(PID.TID 0000.0001) 
(PID.TID 0000.0001) // =======================================================
(PID.TID 0000.0001) // Field Model Ro_surf (ini_masks_etc)
(PID.TID 0000.0001) // CMIN =         -6.812500000000010E+02
(PID.TID 0000.0001) // CMAX =         -2.000000000000000E+02
(PID.TID 0000.0001) // CINT =          1.782407407407411E+01
(PID.TID 0000.0001) // SYMBOLS (CMIN->CMAX): -abcdefghijklmnopqrstuvwxyz+
(PID.TID 0000.0001) //                  0.0: .
(PID.TID 0000.0001) // RANGE I (Lo:Hi:Step):(    -2:    53:     1)
(PID.TID 0000.0001) // RANGE J (Lo:Hi:Step):(   103:    -2:    -1)
(PID.TID 0000.0001) // RANGE K (Lo:Hi:Step):(   1:   1:   1)
(PID.TID 0000.0001) // =======================================================
(PID.TID 0000.0001) K =   1
(PID.TID 0000.0001) //                I=7       I=17      I=27      I=37      I=47
(PID.TID 0000.0001) // |--J--|210123456|890123456|890123456|890123456|890123456|890123
(PID.TID 0000.0001) //    103 aaa.aaaaaaaaaaaaaaaaaaaaaaaaaaaaaaaaaaaaaaaaaaaaaaaaa.aa
(PID.TID 0000.0001) //    102 ---.-------------------------------------------------.--
(PID.TID 0000.0001) //    101 ........................................................
(PID.TID 0000.0001) //    100 +++.+++++++++++++++++++++++++++++++++++++++++++++++++.++
(PID.TID 0000.0001) //     99 +++.+++++++++++++++++++++++++++++++++++++++++++++++++.++
(PID.TID 0000.0001) //     98 +++.+++++++++++++++++++++++++++++++++++++++++++++++++.++
(PID.TID 0000.0001) //     97 +++.+++++++++++++++++++++++++++++++++++++++++++++++++.++
(PID.TID 0000.0001) //     96 +++.+++++++++++++++++++++++++++++++++++++++++++++++++.++
(PID.TID 0000.0001) //     95 +++.+++++++++++++++++++++++++++++++++++++++++++++++++.++
(PID.TID 0000.0001) //     94 +++.+++++++++++++++++++++++++++++++++++++++++++++++++.++
(PID.TID 0000.0001) //     93 +++.+++++++++++++++++++++++++++++++++++++++++++++++++.++
(PID.TID 0000.0001) //     92 +++.+++++++++++++++++++++++++++++++++++++++++++++++++.++
(PID.TID 0000.0001) //     91 +++.+++++++++++++++++++++++++++++++++++++++++++++++++.++
(PID.TID 0000.0001) //     90 +++.+++++++++++++++++++++++++++++++++++++++++++++++++.++
(PID.TID 0000.0001) //     89 +++.+++++++++++++++++++++++++++++++++++++++++++++++++.++
(PID.TID 0000.0001) //     88 +++.+++++++++++++++++++++++++++++++++++++++++++++++++.++
(PID.TID 0000.0001) //     87 +++.+++++++++++++++++++++++++++++++++++++++++++++++++.++
(PID.TID 0000.0001) //     86 +++.+++++++++++++++++++++++++++++++++++++++++++++++++.++
(PID.TID 0000.0001) //     85 +++.+++++++++++++++++++++++++++++++++++++++++++++++++.++
(PID.TID 0000.0001) //     84 +++.+++++++++++++++++++++++++++++++++++++++++++++++++.++
(PID.TID 0000.0001) //     83 +++.+++++++++++++++++++++++++++++++++++++++++++++++++.++
(PID.TID 0000.0001) //     82 +++.+++++++++++++++++++++++++++++++++++++++++++++++++.++
(PID.TID 0000.0001) //     81 +++.+++++++++++++++++++++++++++++++++++++++++++++++++.++
(PID.TID 0000.0001) //     80 +++.+++++++++++++++++++++++++++++++++++++++++++++++++.++
(PID.TID 0000.0001) //     79 +++.+++++++++++++++++++++++++++++++++++++++++++++++++.++
(PID.TID 0000.0001) //     78 +++.+++++++++++++++++++++++++++++++++++++++++++++++++.++
(PID.TID 0000.0001) //     77 +++.+++++++++++++++++++++++++++++++++++++++++++++++++.++
(PID.TID 0000.0001) //     76 +++.+++++++++++++++++++++++++++++++++++++++++++++++++.++
(PID.TID 0000.0001) //     75 +++.+++++++++++++++++++++++++++++++++++++++++++++++++.++
(PID.TID 0000.0001) //     74 +++.+++++++++++++++++++++++++++++++++++++++++++++++++.++
(PID.TID 0000.0001) //     73 +++.+++++++++++++++++++++++++++++++++++++++++++++++++.++
(PID.TID 0000.0001) //     72 +++.+++++++++++++++++++++++++++++++++++++++++++++++++.++
(PID.TID 0000.0001) //     71 +++.+++++++++++++++++++++++++++++++++++++++++++++++++.++
(PID.TID 0000.0001) //     70 +++.+++++++++++++++++++++++++++++++++++++++++++++++++.++
(PID.TID 0000.0001) //     69 +++.+++++++++++++++++++++++++++++++++++++++++++++++++.++
(PID.TID 0000.0001) //     68 +++.+++++++++++++++++++++++++++++++++++++++++++++++++.++
(PID.TID 0000.0001) //     67 +++.+++++++++++++++++++++++++++++++++++++++++++++++++.++
(PID.TID 0000.0001) //     66 +++.+++++++++++++++++++++++++++++++++++++++++++++++++.++
(PID.TID 0000.0001) //     65 +++.+++++++++++++++++++++++++++++++++++++++++++++++++.++
(PID.TID 0000.0001) //     64 +++.+++++++++++++++++++++++++++++++++++++++++++++++++.++
(PID.TID 0000.0001) //     63 +++.+++++++++++++++++++++++++++++++++++++++++++++++++.++
(PID.TID 0000.0001) //     62 +++.+++++++++++++++++++++++++++++++++++++++++++++++++.++
(PID.TID 0000.0001) //     61 +++.+++++++++++++++++++++++++++++++++++++++++++++++++.++
(PID.TID 0000.0001) //     60 +++.+++++++++++++++++++++++++++++++++++++++++++++++++.++
(PID.TID 0000.0001) //     59 +++.+++++++++++++++++++++++++++++++++++++++++++++++++.++
(PID.TID 0000.0001) //     58 +++.+++++++++++++++++++++++++++++++++++++++++++++++++.++
(PID.TID 0000.0001) //     57 +++.+++++++++++++++++++++++++++++++++++++++++++++++++.++
(PID.TID 0000.0001) //     56 +++.+++++++++++++++++++++++++++++++++++++++++++++++++.++
(PID.TID 0000.0001) //     55 +++.+++++++++++++++++++++++++++++++++++++++++++++++++.++
(PID.TID 0000.0001) //     54 +++.+++++++++++++++++++++++++++++++++++++++++++++++++.++
(PID.TID 0000.0001) //     53 +++.+++++++++++++++++++++++++++++++++++++++++++++++++.++
(PID.TID 0000.0001) //     52 +++.+++++++++++++++++++++++++++++++++++++++++++++++++.++
(PID.TID 0000.0001) //     51 +++.+++++++++++++++++++++++++++++++++++++++++++++++++.++
(PID.TID 0000.0001) //     50 +++.+++++++++++++++++++++++++++++++++++++++++++++++++.++
(PID.TID 0000.0001) //     49 +++.+++++++++++++++++++++++++++++++++++++++++++++++++.++
(PID.TID 0000.0001) //     48 +++.+++++++++++++++++++++++++++++++++++++++++++++++++.++
(PID.TID 0000.0001) //     53 +++.+++++++++++++++++++++++++++++++++++++++++++++++++.++
(PID.TID 0000.0001) //     52 +++.+++++++++++++++++++++++++++++++++++++++++++++++++.++
(PID.TID 0000.0001) //     51 +++.+++++++++++++++++++++++++++++++++++++++++++++++++.++
(PID.TID 0000.0001) //     50 +++.+++++++++++++++++++++++++++++++++++++++++++++++++.++
(PID.TID 0000.0001) //     49 +++.+++++++++++++++++++++++++++++++++++++++++++++++++.++
(PID.TID 0000.0001) //     48 +++.+++++++++++++++++++++++++++++++++++++++++++++++++.++
(PID.TID 0000.0001) //     47 +++.+++++++++++++++++++++++++++++++++++++++++++++++++.++
(PID.TID 0000.0001) //     46 +++.+++++++++++++++++++++++++++++++++++++++++++++++++.++
(PID.TID 0000.0001) //     45 +++.+++++++++++++++++++++++++++++++++++++++++++++++++.++
(PID.TID 0000.0001) //     44 +++.+++++++++++++++++++++++++++++++++++++++++++++++++.++
(PID.TID 0000.0001) //     43 +++.+++++++++++++++++++++++++++++++++++++++++++++++++.++
(PID.TID 0000.0001) //     42 +++.+++++++++++++++++++++++++++++++++++++++++++++++++.++
(PID.TID 0000.0001) //     41 +++.+++++++++++++++++++++++++++++++++++++++++++++++++.++
(PID.TID 0000.0001) //     40 +++.+++++++++++++++++++++++++++++++++++++++++++++++++.++
(PID.TID 0000.0001) //     39 zzz.zzzzzzzzzzzzzzzzzzzzzzzzzzzzzzzzzzzzzzzzzzzzzzzzz.zz
(PID.TID 0000.0001) //     38 yyy.yyyyyyyyyyyyyyyyyyyyyyyyyyyyyyyyyyyyyyyyyyyyyyyyy.yy
(PID.TID 0000.0001) //     37 yyy.yyyyyyyyyyyyyyyyyyyyyyyyyyyyyyyyyyyyyyyyyyyyyyyyy.yy
(PID.TID 0000.0001) //     36 xxx.xxxxxxxxxxxxxxxxxxxxxxxxxxxxxxxxxxxxxxxxxxxxxxxxx.xx
(PID.TID 0000.0001) //     35 www.wwwwwwwwwwwwwwwwwwwwwwwwwwwwwwwwwwwwwwwwwwwwwwwww.ww
(PID.TID 0000.0001) //     34 vvv.vvvvvvvvvvvvvvvvvvvvvvvvvvvvvvvvvvvvvvvvvvvvvvvvv.vv
(PID.TID 0000.0001) //     33 vvv.vvvvvvvvvvvvvvvvvvvvvvvvvvvvvvvvvvvvvvvvvvvvvvvvv.vv
(PID.TID 0000.0001) //     32 uuu.uuuuuuuuuuuuuuuuuuuuuuuuuuuuuuuuuuuuuuuuuuuuuuuuu.uu
(PID.TID 0000.0001) //     31 ttt.ttttttttttttttttttttttttttttttttttttttttttttttttt.tt
(PID.TID 0000.0001) //     30 ttt.ttttttttttttttttttttttttttttttttttttttttttttttttt.tt
(PID.TID 0000.0001) //     29 sss.sssssssssssssssssssssssssssssssssssssssssssssssss.ss
(PID.TID 0000.0001) //     28 rrr.rrrrrrrrrrrrrrrrrrrrrrrrrrrrrrrrrrrrrrrrrrrrrrrrr.rr
(PID.TID 0000.0001) //     27 rrr.rrrrrrrrrrrrrrrrrrrrrrrrrrrrrrrrrrrrrrrrrrrrrrrrr.rr
(PID.TID 0000.0001) //     26 qqq.qqqqqqqqqqqqqqqqqqqqqqqqqqqqqqqqqqqqqqqqqqqqqqqqq.qq
(PID.TID 0000.0001) //     25 ppp.ppppppppppppppppppppppppppppppppppppppppppppppppp.pp
(PID.TID 0000.0001) //     24 ooo.ooooooooooooooooooooooooooooooooooooooooooooooooo.oo
(PID.TID 0000.0001) //     23 ooo.ooooooooooooooooooooooooooooooooooooooooooooooooo.oo
(PID.TID 0000.0001) //     22 nnn.nnnnnnnnnnnnnnnnnnnnnnnnnnnnnnnnnnnnnnnnnnnnnnnnn.nn
(PID.TID 0000.0001) //     21 mmm.mmmmmmmmmmmmmmmmmmmmmmmmmmmmmmmmmmmmmmmmmmmmmmmmm.mm
(PID.TID 0000.0001) //     20 mmm.mmmmmmmmmmmmmmmmmmmmmmmmmmmmmmmmmmmmmmmmmmmmmmmmm.mm
(PID.TID 0000.0001) //     19 lll.lllllllllllllllllllllllllllllllllllllllllllllllll.ll
(PID.TID 0000.0001) //     18 kkk.kkkkkkkkkkkkkkkkkkkkkkkkkkkkkkkkkkkkkkkkkkkkkkkkk.kk
(PID.TID 0000.0001) //     17 kkk.kkkkkkkkkkkkkkkkkkkkkkkkkkkkkkkkkkkkkkkkkkkkkkkkk.kk
(PID.TID 0000.0001) //     16 jjj.jjjjjjjjjjjjjjjjjjjjjjjjjjjjjjjjjjjjjjjjjjjjjjjjj.jj
(PID.TID 0000.0001) //     15 iii.iiiiiiiiiiiiiiiiiiiiiiiiiiiiiiiiiiiiiiiiiiiiiiiii.ii
(PID.TID 0000.0001) //     14 hhh.hhhhhhhhhhhhhhhhhhhhhhhhhhhhhhhhhhhhhhhhhhhhhhhhh.hh
(PID.TID 0000.0001) //     13 hhh.hhhhhhhhhhhhhhhhhhhhhhhhhhhhhhhhhhhhhhhhhhhhhhhhh.hh
(PID.TID 0000.0001) //     12 ggg.ggggggggggggggggggggggggggggggggggggggggggggggggg.gg
(PID.TID 0000.0001) //     11 fff.fffffffffffffffffffffffffffffffffffffffffffffffff.ff
(PID.TID 0000.0001) //     10 fff.fffffffffffffffffffffffffffffffffffffffffffffffff.ff
(PID.TID 0000.0001) //      9 eee.eeeeeeeeeeeeeeeeeeeeeeeeeeeeeeeeeeeeeeeeeeeeeeeee.ee
(PID.TID 0000.0001) //      8 ddd.ddddddddddddddddddddddddddddddddddddddddddddddddd.dd
(PID.TID 0000.0001) //      7 ddd.ddddddddddddddddddddddddddddddddddddddddddddddddd.dd
(PID.TID 0000.0001) //      6 ccc.ccccccccccccccccccccccccccccccccccccccccccccccccc.cc
(PID.TID 0000.0001) //      5 bbb.bbbbbbbbbbbbbbbbbbbbbbbbbbbbbbbbbbbbbbbbbbbbbbbbb.bb
(PID.TID 0000.0001) //      4 aaa.aaaaaaaaaaaaaaaaaaaaaaaaaaaaaaaaaaaaaaaaaaaaaaaaa.aa
(PID.TID 0000.0001) //      3 aaa.aaaaaaaaaaaaaaaaaaaaaaaaaaaaaaaaaaaaaaaaaaaaaaaaa.aa
(PID.TID 0000.0001) //      2 ---.-------------------------------------------------.--
(PID.TID 0000.0001) //      1 ........................................................
(PID.TID 0000.0001) //      0 +++.+++++++++++++++++++++++++++++++++++++++++++++++++.++
(PID.TID 0000.0001) //     -1 +++.+++++++++++++++++++++++++++++++++++++++++++++++++.++
(PID.TID 0000.0001) //     -2 +++.+++++++++++++++++++++++++++++++++++++++++++++++++.++
(PID.TID 0000.0001) // =======================================================
(PID.TID 0000.0001) // END OF FIELD                                          =
(PID.TID 0000.0001) // =======================================================
(PID.TID 0000.0001) 
(PID.TID 0000.0001) // =======================================================
(PID.TID 0000.0001) // Field hFacC at iteration          0
(PID.TID 0000.0001) // CMIN =          1.000000000000000E+32
(PID.TID 0000.0001) // CMAX =         -1.000000000000000E+32
(PID.TID 0000.0001) // CINT =          0.000000000000000E+00
(PID.TID 0000.0001) // SYMBOLS (CMIN->CMAX): -abcdefghijklmnopqrstuvwxyz+
(PID.TID 0000.0001) //                  0.0: .
(PID.TID 0000.0001) // RANGE I (Lo:Hi:Step):(    -2:    53:     1)
(PID.TID 0000.0001) // RANGE J (Lo:Hi:Step):(   103:    -2:    -1)
(PID.TID 0000.0001) // RANGE K (Lo:Hi:Step):(   1:   1:   1)
(PID.TID 0000.0001) // =======================================================
(PID.TID 0000.0001) // =======================================================
(PID.TID 0000.0001) // END OF FIELD                                          =
(PID.TID 0000.0001) // =======================================================
(PID.TID 0000.0001) 
(PID.TID 0000.0001) // =======================================================
(PID.TID 0000.0001) // Field hFacW at iteration          0
(PID.TID 0000.0001) // CMIN =          1.000000000000000E+32
(PID.TID 0000.0001) // CMAX =         -1.000000000000000E+32
(PID.TID 0000.0001) // CINT =          0.000000000000000E+00
(PID.TID 0000.0001) // SYMBOLS (CMIN->CMAX): -abcdefghijklmnopqrstuvwxyz+
(PID.TID 0000.0001) //                  0.0: .
(PID.TID 0000.0001) // RANGE I (Lo:Hi:Step):(    -2:    53:     1)
(PID.TID 0000.0001) // RANGE J (Lo:Hi:Step):(   103:    -2:    -1)
(PID.TID 0000.0001) // RANGE K (Lo:Hi:Step):(   1:   1:   1)
(PID.TID 0000.0001) // =======================================================
(PID.TID 0000.0001) // =======================================================
(PID.TID 0000.0001) // END OF FIELD                                          =
(PID.TID 0000.0001) // =======================================================
(PID.TID 0000.0001) 
(PID.TID 0000.0001) // =======================================================
(PID.TID 0000.0001) // Field hFacS at iteration          0
(PID.TID 0000.0001) // CMIN =          1.000000000000000E+32
(PID.TID 0000.0001) // CMAX =         -1.000000000000000E+32
(PID.TID 0000.0001) // CINT =          0.000000000000000E+00
(PID.TID 0000.0001) // SYMBOLS (CMIN->CMAX): -abcdefghijklmnopqrstuvwxyz+
(PID.TID 0000.0001) //                  0.0: .
(PID.TID 0000.0001) // RANGE I (Lo:Hi:Step):(    -2:    53:     1)
(PID.TID 0000.0001) // RANGE J (Lo:Hi:Step):(   103:    -2:    -1)
(PID.TID 0000.0001) // RANGE K (Lo:Hi:Step):(   1:   1:   1)
(PID.TID 0000.0001) // =======================================================
(PID.TID 0000.0001) // =======================================================
(PID.TID 0000.0001) // END OF FIELD                                          =
(PID.TID 0000.0001) // =======================================================
(PID.TID 0000.0001) 
(PID.TID 0000.0001) GAD_INIT_FIXED: GAD_OlMinSize=  1  0  1
(PID.TID 0000.0001) 
(PID.TID 0000.0001) // ===================================
(PID.TID 0000.0001) // GAD parameters :
(PID.TID 0000.0001) // ===================================
(PID.TID 0000.0001) tempAdvScheme =   /* Temp. Horiz.Advection scheme selector */
(PID.TID 0000.0001)                       2
(PID.TID 0000.0001)     ;
(PID.TID 0000.0001) tempVertAdvScheme =   /* Temp. Vert. Advection scheme selector */
(PID.TID 0000.0001)                       2
(PID.TID 0000.0001)     ;
(PID.TID 0000.0001) tempMultiDimAdvec =   /* use Muti-Dim Advec method for Temp */
(PID.TID 0000.0001)                   F
(PID.TID 0000.0001)     ;
(PID.TID 0000.0001) tempSOM_Advection = /* use 2nd Order Moment Advection for Temp */
(PID.TID 0000.0001)                   F
(PID.TID 0000.0001)     ;
(PID.TID 0000.0001) AdamsBashforthGt = /* apply Adams-Bashforth extrapolation on Gt */
(PID.TID 0000.0001)                   T
(PID.TID 0000.0001)     ;
(PID.TID 0000.0001) AdamsBashforth_T = /* apply Adams-Bashforth extrapolation on Temp */
(PID.TID 0000.0001)                   F
(PID.TID 0000.0001)     ;
(PID.TID 0000.0001) saltAdvScheme =   /* Salt. Horiz.advection scheme selector */
(PID.TID 0000.0001)                       2
(PID.TID 0000.0001)     ;
(PID.TID 0000.0001) saltVertAdvScheme =   /* Salt. Vert. Advection scheme selector */
(PID.TID 0000.0001)                       2
(PID.TID 0000.0001)     ;
(PID.TID 0000.0001) saltMultiDimAdvec =   /* use Muti-Dim Advec method for Salt */
(PID.TID 0000.0001)                   F
(PID.TID 0000.0001)     ;
(PID.TID 0000.0001) saltSOM_Advection = /* use 2nd Order Moment Advection for Salt */
(PID.TID 0000.0001)                   F
(PID.TID 0000.0001)     ;
(PID.TID 0000.0001) AdamsBashforthGs = /* apply Adams-Bashforth extrapolation on Gs */
(PID.TID 0000.0001)                   T
(PID.TID 0000.0001)     ;
(PID.TID 0000.0001) AdamsBashforth_S = /* apply Adams-Bashforth extrapolation on Salt */
(PID.TID 0000.0001)                   F
(PID.TID 0000.0001)     ;
(PID.TID 0000.0001) // ===================================
(PID.TID 0000.0001) %MON fCori_max                    =  -1.3709057042516E-04
(PID.TID 0000.0001) %MON fCori_min                    =  -1.4360464034757E-04
(PID.TID 0000.0001) %MON fCori_mean                   =  -1.4069429304699E-04
(PID.TID 0000.0001) %MON fCori_sd                     =   1.9069739624987E-06
(PID.TID 0000.0001) %MON fCoriG_max                   =  -1.3713394327439E-04
(PID.TID 0000.0001) %MON fCoriG_min                   =  -1.4362679550910E-04
(PID.TID 0000.0001) %MON fCoriG_mean                  =  -1.4072713798624E-04
(PID.TID 0000.0001) %MON fCoriG_sd                    =   1.9008093726821E-06
(PID.TID 0000.0001) %MON fCoriCos_max                 =   4.9761447480159E-05
(PID.TID 0000.0001) %MON fCoriCos_min                 =   2.5450607565678E-05
(PID.TID 0000.0001) %MON fCoriCos_mean                =   3.7698922201606E-05
(PID.TID 0000.0001) %MON fCoriCos_sd                  =   7.0920218535054E-06
(PID.TID 0000.0001) INI_CG2D: CG2D normalisation factor =  1.0404366262810520E-03
(PID.TID 0000.0001) 
(PID.TID 0000.0001) // =======================================================
(PID.TID 0000.0001) // Model configuration
(PID.TID 0000.0001) // =======================================================
(PID.TID 0000.0001) //
(PID.TID 0000.0001) // "Physical" paramters ( PARM01 in namelist )
(PID.TID 0000.0001) //
(PID.TID 0000.0001) buoyancyRelation = /* Type of relation to get Buoyancy */
(PID.TID 0000.0001)               'OCEANIC'
(PID.TID 0000.0001)     ;
(PID.TID 0000.0001) fluidIsAir   =  /* fluid major constituent is Air */
(PID.TID 0000.0001)                   F
(PID.TID 0000.0001)     ;
(PID.TID 0000.0001) fluidIsWater =  /* fluid major constituent is Water */
(PID.TID 0000.0001)                   T
(PID.TID 0000.0001)     ;
(PID.TID 0000.0001) usingPCoords =  /* use p (or p*) vertical coordinate */
(PID.TID 0000.0001)                   F
(PID.TID 0000.0001)     ;
(PID.TID 0000.0001) usingZCoords =  /* use z (or z*) vertical coordinate */
(PID.TID 0000.0001)                   T
(PID.TID 0000.0001)     ;
(PID.TID 0000.0001) tRef =   /* Reference temperature profile ( oC or K ) */
(PID.TID 0000.0001)    30 @ -1.900000000000000E+00              /* K =  1: 30 */
(PID.TID 0000.0001)     ;
(PID.TID 0000.0001) sRef =   /* Reference salinity profile ( psu ) */
(PID.TID 0000.0001)    30 @  3.440000000000000E+01              /* K =  1: 30 */
(PID.TID 0000.0001)     ;
(PID.TID 0000.0001) viscAh  =   /* Lateral eddy viscosity ( m^2/s ) */
(PID.TID 0000.0001)                 6.000000000000000E+02
(PID.TID 0000.0001)     ;
(PID.TID 0000.0001) viscAhMax = /* Maximum lateral eddy viscosity ( m^2/s ) */
(PID.TID 0000.0001)                 1.000000000000000E+21
(PID.TID 0000.0001)     ;
(PID.TID 0000.0001) viscAhGrid = /* Grid dependent lateral eddy viscosity ( non-dim. ) */
(PID.TID 0000.0001)                 0.000000000000000E+00
(PID.TID 0000.0001)     ;
(PID.TID 0000.0001) useFullLeith = /* Use Full Form of Leith Viscosity on/off flag*/
(PID.TID 0000.0001)                   F
(PID.TID 0000.0001)     ;
(PID.TID 0000.0001) useStrainTensionVisc= /* Use StrainTension Form of Viscous Operator flag*/
(PID.TID 0000.0001)                   F
(PID.TID 0000.0001)     ;
(PID.TID 0000.0001) useAreaViscLength = /* Use area for visc length instead of geom. mean*/
(PID.TID 0000.0001)                   F
(PID.TID 0000.0001)     ;
(PID.TID 0000.0001) viscC2leith = /* Leith harmonic visc. factor (on grad(vort),non-dim.) */
(PID.TID 0000.0001)                 0.000000000000000E+00
(PID.TID 0000.0001)     ;
(PID.TID 0000.0001) viscC2leithD = /* Leith harmonic viscosity factor (on grad(div),non-dim.)*/
(PID.TID 0000.0001)                 0.000000000000000E+00
(PID.TID 0000.0001)     ;
(PID.TID 0000.0001) viscC2smag = /* Smagorinsky harmonic viscosity factor (non-dim.) */
(PID.TID 0000.0001)                 0.000000000000000E+00
(PID.TID 0000.0001)     ;
(PID.TID 0000.0001) viscA4  =   /* Lateral biharmonic viscosity ( m^4/s ) */
(PID.TID 0000.0001)                 0.000000000000000E+00
(PID.TID 0000.0001)     ;
(PID.TID 0000.0001) viscA4Max = /* Maximum biharmonic viscosity ( m^2/s ) */
(PID.TID 0000.0001)                 1.000000000000000E+21
(PID.TID 0000.0001)     ;
(PID.TID 0000.0001) viscA4Grid = /* Grid dependent biharmonic viscosity ( non-dim. ) */
(PID.TID 0000.0001)                 0.000000000000000E+00
(PID.TID 0000.0001)     ;
(PID.TID 0000.0001) viscC4leith = /* Leith biharm viscosity factor (on grad(vort), non-dim.)*/
(PID.TID 0000.0001)                 0.000000000000000E+00
(PID.TID 0000.0001)     ;
(PID.TID 0000.0001) viscC4leithD = /* Leith biharm viscosity factor (on grad(div), non-dim.) */
(PID.TID 0000.0001)                 0.000000000000000E+00
(PID.TID 0000.0001)     ;
(PID.TID 0000.0001) viscC4Smag = /* Smagorinsky biharm viscosity factor (non-dim) */
(PID.TID 0000.0001)                 0.000000000000000E+00
(PID.TID 0000.0001)     ;
(PID.TID 0000.0001) no_slip_sides =  /* Viscous BCs: No-slip sides */
(PID.TID 0000.0001)                   F
(PID.TID 0000.0001)     ;
(PID.TID 0000.0001) sideDragFactor = /* side-drag scaling factor (non-dim) */
(PID.TID 0000.0001)                 2.000000000000000E+00
(PID.TID 0000.0001)     ;
(PID.TID 0000.0001) viscArNr = /* vertical profile of vertical viscosity ( m^2/s )*/
(PID.TID 0000.0001)    30 @  1.000000000000000E-03              /* K =  1: 30 */
(PID.TID 0000.0001)     ;
(PID.TID 0000.0001) no_slip_bottom =  /* Viscous BCs: No-slip bottom */
(PID.TID 0000.0001)                   T
(PID.TID 0000.0001)     ;
(PID.TID 0000.0001) bottomDragLinear = /* linear bottom-drag coefficient ( m/s ) */
(PID.TID 0000.0001)                 0.000000000000000E+00
(PID.TID 0000.0001)     ;
(PID.TID 0000.0001) bottomDragQuadratic = /* quadratic bottom-drag coefficient (-) */
(PID.TID 0000.0001)                 2.500000000000000E-03
(PID.TID 0000.0001)     ;
(PID.TID 0000.0001) diffKhT =   /* Laplacian diffusion of heat laterally ( m^2/s ) */
(PID.TID 0000.0001)                 1.000000000000000E+02
(PID.TID 0000.0001)     ;
(PID.TID 0000.0001) diffK4T =   /* Biharmonic diffusion of heat laterally ( m^4/s ) */
(PID.TID 0000.0001)                 0.000000000000000E+00
(PID.TID 0000.0001)     ;
(PID.TID 0000.0001) diffKhS =   /* Laplacian diffusion of salt laterally ( m^2/s ) */
(PID.TID 0000.0001)                 1.000000000000000E+02
(PID.TID 0000.0001)     ;
(PID.TID 0000.0001) diffK4S =   /* Biharmonic diffusion of salt laterally ( m^4/s ) */
(PID.TID 0000.0001)                 0.000000000000000E+00
(PID.TID 0000.0001)     ;
(PID.TID 0000.0001) diffKrNrT = /* vertical profile of vertical diffusion of Temp ( m^2/s )*/
(PID.TID 0000.0001)    30 @  5.000000000000000E-05              /* K =  1: 30 */
(PID.TID 0000.0001)     ;
(PID.TID 0000.0001) diffKrNrS = /* vertical profile of vertical diffusion of Salt ( m^2/s )*/
(PID.TID 0000.0001)    30 @  5.000000000000000E-05              /* K =  1: 30 */
(PID.TID 0000.0001)     ;
(PID.TID 0000.0001) diffKrBL79surf = /* Surface diffusion for Bryan and Lewis 79 ( m^2/s ) */
(PID.TID 0000.0001)                 0.000000000000000E+00
(PID.TID 0000.0001)     ;
(PID.TID 0000.0001) diffKrBL79deep = /* Deep diffusion for Bryan and Lewis 1979 ( m^2/s ) */
(PID.TID 0000.0001)                 0.000000000000000E+00
(PID.TID 0000.0001)     ;
(PID.TID 0000.0001) diffKrBL79scl = /* Depth scale for Bryan and Lewis 1979 ( m ) */
(PID.TID 0000.0001)                 2.000000000000000E+02
(PID.TID 0000.0001)     ;
(PID.TID 0000.0001) diffKrBL79Ho = /* Turning depth for Bryan and Lewis 1979 ( m ) */
(PID.TID 0000.0001)                -2.000000000000000E+03
(PID.TID 0000.0001)     ;
(PID.TID 0000.0001) ivdc_kappa = /* Implicit Vertical Diffusivity for Convection ( m^2/s) */
(PID.TID 0000.0001)                 0.000000000000000E+00
(PID.TID 0000.0001)     ;
(PID.TID 0000.0001) hMixCriteria=  /* Criteria for mixed-layer diagnostic */
(PID.TID 0000.0001)                -8.000000000000000E-01
(PID.TID 0000.0001)     ;
(PID.TID 0000.0001) dRhoSmall =  /* Parameter for mixed-layer diagnostic */
(PID.TID 0000.0001)                 1.000000000000000E-06
(PID.TID 0000.0001)     ;
(PID.TID 0000.0001) hMixSmooth=  /* Smoothing parameter for mixed-layer diagnostic */
(PID.TID 0000.0001)                 0.000000000000000E+00
(PID.TID 0000.0001)     ;
(PID.TID 0000.0001) eosType =  /* Type of Equation of State */
(PID.TID 0000.0001)               'JMD95Z'
(PID.TID 0000.0001)     ;
(PID.TID 0000.0001) celsius2K = /* 0 degree Celsius converted to Kelvin ( K ) */
(PID.TID 0000.0001)                 2.731500000000000E+02
(PID.TID 0000.0001)     ;
(PID.TID 0000.0001) rhoConst  = /* Reference density (Boussinesq)  ( kg/m^3 ) */
(PID.TID 0000.0001)                 1.030000000000000E+03
(PID.TID 0000.0001)     ;
(PID.TID 0000.0001) rhoFacC = /* normalized Reference density @ cell-Center (-) */
(PID.TID 0000.0001)    30 @  1.000000000000000E+00              /* K =  1: 30 */
(PID.TID 0000.0001)     ;
(PID.TID 0000.0001) rhoFacF = /* normalized Reference density @ W-Interface (-) */
(PID.TID 0000.0001)    31 @  1.000000000000000E+00              /* K =  1: 31 */
(PID.TID 0000.0001)     ;
(PID.TID 0000.0001) rhoConstFresh = /* Fresh-water reference density ( kg/m^3 ) */
(PID.TID 0000.0001)                 1.030000000000000E+03
(PID.TID 0000.0001)     ;
(PID.TID 0000.0001) gravity =   /* Gravitational acceleration ( m/s^2 ) */
(PID.TID 0000.0001)                 9.810000000000000E+00
(PID.TID 0000.0001)     ;
(PID.TID 0000.0001) gBaro =   /* Barotropic gravity ( m/s^2 ) */
(PID.TID 0000.0001)                 9.810000000000000E+00
(PID.TID 0000.0001)     ;
(PID.TID 0000.0001) rotationPeriod =   /* Rotation Period ( s ) */
(PID.TID 0000.0001)                 8.616400000000000E+04
(PID.TID 0000.0001)     ;
(PID.TID 0000.0001) omega =   /* Angular velocity ( rad/s ) */
(PID.TID 0000.0001)                 7.292123516990375E-05
(PID.TID 0000.0001)     ;
(PID.TID 0000.0001) f0 =   /* Reference coriolis parameter ( 1/s ) */
(PID.TID 0000.0001)                 1.000000000000000E-04
(PID.TID 0000.0001)     ;
(PID.TID 0000.0001) beta =   /* Beta ( 1/(m.s) ) */
(PID.TID 0000.0001)                 9.999999999999999E-12
(PID.TID 0000.0001)     ;
(PID.TID 0000.0001) fPrime =   /* Second coriolis parameter ( 1/s ) */
(PID.TID 0000.0001)                 0.000000000000000E+00
(PID.TID 0000.0001)     ;
(PID.TID 0000.0001) rigidLid =   /* Rigid lid on/off flag */
(PID.TID 0000.0001)                   F
(PID.TID 0000.0001)     ;
(PID.TID 0000.0001) implicitFreeSurface =   /* Implicit free surface on/off flag */
(PID.TID 0000.0001)                   T
(PID.TID 0000.0001)     ;
(PID.TID 0000.0001) freeSurfFac =   /* Implicit free surface factor */
(PID.TID 0000.0001)                 1.000000000000000E+00
(PID.TID 0000.0001)     ;
(PID.TID 0000.0001) implicSurfPress =  /* Surface Pressure implicit factor (0-1)*/
(PID.TID 0000.0001)                 1.000000000000000E+00
(PID.TID 0000.0001)     ;
(PID.TID 0000.0001) implicDiv2Dflow =  /* Barot. Flow Div. implicit factor (0-1)*/
(PID.TID 0000.0001)                 1.000000000000000E+00
(PID.TID 0000.0001)     ;
(PID.TID 0000.0001) uniformLin_PhiSurf = /* use uniform Bo_surf on/off flag*/
(PID.TID 0000.0001)                   T
(PID.TID 0000.0001)     ;
(PID.TID 0000.0001) uniformFreeSurfLev = /* free-surface level-index is uniform */
(PID.TID 0000.0001)                   F
(PID.TID 0000.0001)     ;
(PID.TID 0000.0001) hFacMin =   /* minimum partial cell factor (hFac) */
(PID.TID 0000.0001)                 5.000000000000000E-02
(PID.TID 0000.0001)     ;
(PID.TID 0000.0001) hFacMinDr = /* minimum partial cell thickness ( m) */
(PID.TID 0000.0001)                 5.000000000000000E-02
(PID.TID 0000.0001)     ;
(PID.TID 0000.0001) exactConserv =  /* Exact Volume Conservation on/off flag*/
(PID.TID 0000.0001)                   T
(PID.TID 0000.0001)     ;
(PID.TID 0000.0001) linFSConserveTr = /* Tracer correction for Lin Free Surface on/off flag*/
(PID.TID 0000.0001)                   F
(PID.TID 0000.0001)     ;
(PID.TID 0000.0001) nonlinFreeSurf = /* Non-linear Free Surf. options (-1,0,1,2,3)*/
(PID.TID 0000.0001)                       0
(PID.TID 0000.0001)      -1,0= Off ; 1,2,3= On, 2=+rescale gU,gV, 3=+update cg2d solv.
(PID.TID 0000.0001)     ;
(PID.TID 0000.0001) hFacInf =   /* lower threshold for hFac (nonlinFreeSurf only)*/
(PID.TID 0000.0001)                 2.000000000000000E-01
(PID.TID 0000.0001)     ;
(PID.TID 0000.0001) hFacSup =   /* upper threshold for hFac (nonlinFreeSurf only)*/
(PID.TID 0000.0001)                 2.000000000000000E+00
(PID.TID 0000.0001)     ;
(PID.TID 0000.0001) select_rStar = /* r* Vertical coord. options (=0 r coord.; >0 uses r*)*/
(PID.TID 0000.0001)                       0
(PID.TID 0000.0001)     ;
(PID.TID 0000.0001) useRealFreshWaterFlux = /* Real Fresh Water Flux on/off flag*/
(PID.TID 0000.0001)                   F
(PID.TID 0000.0001)     ;
(PID.TID 0000.0001) temp_EvPrRn = /* Temp. of Evap/Prec/R (UNSET=use local T)(oC)*/
(PID.TID 0000.0001)                 1.234567000000000E+05
(PID.TID 0000.0001)     ;
(PID.TID 0000.0001) salt_EvPrRn = /* Salin. of Evap/Prec/R (UNSET=use local S)(psu)*/
(PID.TID 0000.0001)                 0.000000000000000E+00
(PID.TID 0000.0001)     ;
(PID.TID 0000.0001) selectAddFluid = /* option for mass source/sink of fluid (=0: off) */
(PID.TID 0000.0001)                       0
(PID.TID 0000.0001)     ;
(PID.TID 0000.0001) temp_addMass = /* Temp. of addMass array (UNSET=use local T)(oC)*/
(PID.TID 0000.0001)                 1.234567000000000E+05
(PID.TID 0000.0001)     ;
(PID.TID 0000.0001) salt_addMass = /* Salin. of addMass array (UNSET=use local S)(psu)*/
(PID.TID 0000.0001)                 0.000000000000000E+00
(PID.TID 0000.0001)     ;
(PID.TID 0000.0001) convertFW2Salt = /* convert F.W. Flux to Salt Flux (-1=use local S)(psu)*/
(PID.TID 0000.0001)                 3.340000000000000E+01
(PID.TID 0000.0001)     ;
(PID.TID 0000.0001) use3Dsolver = /* use 3-D pressure solver on/off flag */
(PID.TID 0000.0001)                   F
(PID.TID 0000.0001)     ;
(PID.TID 0000.0001) nonHydrostatic =  /* Non-Hydrostatic on/off flag */
(PID.TID 0000.0001)                   F
(PID.TID 0000.0001)     ;
(PID.TID 0000.0001) nh_Am2 = /* Non-Hydrostatic terms scaling factor */
(PID.TID 0000.0001)                 1.000000000000000E+00
(PID.TID 0000.0001)     ;
(PID.TID 0000.0001) implicitNHPress = /* Non-Hyd Pressure implicit factor (0-1)*/
(PID.TID 0000.0001)                 1.000000000000000E+00
(PID.TID 0000.0001)     ;
(PID.TID 0000.0001) selectNHfreeSurf = /* Non-Hyd (free-)Surface option */
(PID.TID 0000.0001)                       0
(PID.TID 0000.0001)     ;
(PID.TID 0000.0001) quasiHydrostatic = /* Quasi-Hydrostatic on/off flag */
(PID.TID 0000.0001)                   F
(PID.TID 0000.0001)     ;
(PID.TID 0000.0001) calc_wVelocity = /* vertical velocity calculation on/off flag */
(PID.TID 0000.0001)                   T
(PID.TID 0000.0001)     ;
(PID.TID 0000.0001) momStepping =  /* Momentum equation on/off flag */
(PID.TID 0000.0001)                   T
(PID.TID 0000.0001)     ;
(PID.TID 0000.0001) vectorInvariantMomentum= /* Vector-Invariant Momentum on/off */
(PID.TID 0000.0001)                   F
(PID.TID 0000.0001)     ;
(PID.TID 0000.0001) momAdvection =  /* Momentum advection on/off flag */
(PID.TID 0000.0001)                   T
(PID.TID 0000.0001)     ;
(PID.TID 0000.0001) momViscosity =  /* Momentum viscosity on/off flag */
(PID.TID 0000.0001)                   T
(PID.TID 0000.0001)     ;
(PID.TID 0000.0001) momImplVertAdv= /* Momentum implicit vert. advection on/off*/
(PID.TID 0000.0001)                   F
(PID.TID 0000.0001)     ;
(PID.TID 0000.0001) implicitViscosity = /* Implicit viscosity on/off flag */
(PID.TID 0000.0001)                   F
(PID.TID 0000.0001)     ;
(PID.TID 0000.0001) metricTerms =  /* metric-Terms on/off flag */
(PID.TID 0000.0001)                   T
(PID.TID 0000.0001)     ;
(PID.TID 0000.0001) useNHMTerms = /* Non-Hydrostatic Metric-Terms on/off */
(PID.TID 0000.0001)                   F
(PID.TID 0000.0001)     ;
(PID.TID 0000.0001) selectCoriMap = /* Coriolis Map options (0,1,2,3)*/
(PID.TID 0000.0001)                       2
(PID.TID 0000.0001)     0= f-Plane ; 1= Beta-Plane ; 2= Spherical ; 3= read from file
(PID.TID 0000.0001)     ;
(PID.TID 0000.0001) use3dCoriolis = /* 3-D Coriolis on/off flag */
(PID.TID 0000.0001)                   F
(PID.TID 0000.0001)     ;
(PID.TID 0000.0001) useCoriolis =  /* Coriolis on/off flag */
(PID.TID 0000.0001)                   T
(PID.TID 0000.0001)     ;
(PID.TID 0000.0001) useCDscheme =  /* CD scheme on/off flag */
(PID.TID 0000.0001)                   T
(PID.TID 0000.0001)     ;
(PID.TID 0000.0001) useEnergyConservingCoriolis= /* Flx-Form Coriolis scheme flag */
(PID.TID 0000.0001)                   F
(PID.TID 0000.0001)     ;
(PID.TID 0000.0001) useJamartWetPoints= /* Coriolis WetPoints method flag */
(PID.TID 0000.0001)                   F
(PID.TID 0000.0001)     ;
(PID.TID 0000.0001) useJamartMomAdv= /* V.I Non-linear terms Jamart flag */
(PID.TID 0000.0001)                   F
(PID.TID 0000.0001)     ;
(PID.TID 0000.0001) useAbsVorticity= /* V.I Works with f+zeta in Coriolis */
(PID.TID 0000.0001)                   F
(PID.TID 0000.0001)     ;
(PID.TID 0000.0001) selectVortScheme= /* V.I Scheme selector for Vorticity-Term */
(PID.TID 0000.0001)               123456789
(PID.TID 0000.0001)    = 0 : enstrophy (Shallow-Water Eq.) conserving scheme by Sadourny, JAS 75
(PID.TID 0000.0001)    = 1 : same as 0 with modified hFac
(PID.TID 0000.0001)    = 2 : energy conserving scheme (used by Sadourny in JAS 75 paper)
(PID.TID 0000.0001)    = 3 : energy (general) and enstrophy (2D, nonDiv.) conserving scheme
(PID.TID 0000.0001)          from Sadourny (Burridge & Haseler, ECMWF Rep.4, 1977)
(PID.TID 0000.0001)     ;
(PID.TID 0000.0001) upwindVorticity= /* V.I Upwind bias vorticity flag */
(PID.TID 0000.0001)                   F
(PID.TID 0000.0001)     ;
(PID.TID 0000.0001) highOrderVorticity= /* V.I High order vort. advect. flag */
(PID.TID 0000.0001)                   F
(PID.TID 0000.0001)     ;
(PID.TID 0000.0001) upwindShear= /* V.I Upwind vertical Shear advection flag */
(PID.TID 0000.0001)                   F
(PID.TID 0000.0001)     ;
(PID.TID 0000.0001) selectKEscheme= /* V.I Kinetic Energy scheme selector */
(PID.TID 0000.0001)                       0
(PID.TID 0000.0001)     ;
(PID.TID 0000.0001) momForcing =  /* Momentum forcing on/off flag */
(PID.TID 0000.0001)                   T
(PID.TID 0000.0001)     ;
(PID.TID 0000.0001) momPressureForcing =  /* Momentum pressure term on/off flag */
(PID.TID 0000.0001)                   T
(PID.TID 0000.0001)     ;
(PID.TID 0000.0001) implicitIntGravWave= /* Implicit Internal Gravity Wave flag */
(PID.TID 0000.0001)                   F
(PID.TID 0000.0001)     ;
(PID.TID 0000.0001) staggerTimeStep =    /* Stagger time stepping on/off flag */
(PID.TID 0000.0001)                   F
(PID.TID 0000.0001)     ;
(PID.TID 0000.0001) doResetHFactors = /* reset thickness factors @ each time-step */
(PID.TID 0000.0001)                   F
(PID.TID 0000.0001)     ;
(PID.TID 0000.0001) multiDimAdvection =  /* enable/disable Multi-Dim Advection */
(PID.TID 0000.0001)                   T
(PID.TID 0000.0001)     ;
(PID.TID 0000.0001) useMultiDimAdvec =   /* Multi-Dim Advection is/is-not used */
(PID.TID 0000.0001)                   F
(PID.TID 0000.0001)     ;
(PID.TID 0000.0001) implicitDiffusion = /* Implicit Diffusion on/off flag */
(PID.TID 0000.0001)                   F
(PID.TID 0000.0001)     ;
(PID.TID 0000.0001) tempStepping =  /* Temperature equation on/off flag */
(PID.TID 0000.0001)                   T
(PID.TID 0000.0001)     ;
(PID.TID 0000.0001) tempAdvection=  /* Temperature advection on/off flag */
(PID.TID 0000.0001)                   T
(PID.TID 0000.0001)     ;
(PID.TID 0000.0001) tempImplVertAdv = /* Temp. implicit vert. advection on/off */
(PID.TID 0000.0001)                   F
(PID.TID 0000.0001)     ;
(PID.TID 0000.0001) tempForcing  =  /* Temperature forcing on/off flag */
(PID.TID 0000.0001)                   T
(PID.TID 0000.0001)     ;
(PID.TID 0000.0001) tempIsActiveTr = /* Temp. is a dynamically Active Tracer */
(PID.TID 0000.0001)                   T
(PID.TID 0000.0001)     ;
(PID.TID 0000.0001) saltStepping =  /* Salinity equation on/off flag */
(PID.TID 0000.0001)                   T
(PID.TID 0000.0001)     ;
(PID.TID 0000.0001) saltAdvection=  /* Salinity advection on/off flag */
(PID.TID 0000.0001)                   T
(PID.TID 0000.0001)     ;
(PID.TID 0000.0001) saltImplVertAdv = /* Sali. implicit vert. advection on/off */
(PID.TID 0000.0001)                   F
(PID.TID 0000.0001)     ;
(PID.TID 0000.0001) saltForcing  =  /* Salinity forcing on/off flag */
(PID.TID 0000.0001)                   T
(PID.TID 0000.0001)     ;
(PID.TID 0000.0001) saltIsActiveTr = /* Salt  is a dynamically Active Tracer */
(PID.TID 0000.0001)                   T
(PID.TID 0000.0001)     ;
(PID.TID 0000.0001)  readBinaryPrec = /* Precision used for reading binary files */
(PID.TID 0000.0001)                      64
(PID.TID 0000.0001)     ;
(PID.TID 0000.0001) writeBinaryPrec = /* Precision used for writing binary files */
(PID.TID 0000.0001)                      32
(PID.TID 0000.0001)     ;
(PID.TID 0000.0001)  globalFiles = /* write "global" (=not per tile) files */
(PID.TID 0000.0001)                   F
(PID.TID 0000.0001)     ;
(PID.TID 0000.0001)  useSingleCpuIO = /* only master MPI process does I/O */
(PID.TID 0000.0001)                   F
(PID.TID 0000.0001)     ;
(PID.TID 0000.0001) /* debLev[*]  : level of debug & auxiliary message printing */
(PID.TID 0000.0001) debLevZero =  0 ; /* level of disabled aux. msg printing */
(PID.TID 0000.0001)    debLevA =  1 ; /* level of minimum  aux. msg printing */
(PID.TID 0000.0001)    debLevB =  2 ; /* level of low aux. print (report read-file opening)*/
(PID.TID 0000.0001)    debLevC =  3 ; /* level of moderate debug prt (most pkgs debug msg) */
(PID.TID 0000.0001)    debLevD =  4 ; /* level of enhanced debug prt (add DEBUG_STATS prt) */
(PID.TID 0000.0001)    debLevE =  5 ; /* level of extensive debug printing */
(PID.TID 0000.0001) debugLevel =  /* select debug printing level */
(PID.TID 0000.0001)                       2
(PID.TID 0000.0001)     ;
(PID.TID 0000.0001) //
(PID.TID 0000.0001) // Elliptic solver(s) paramters ( PARM02 in namelist )
(PID.TID 0000.0001) //
(PID.TID 0000.0001) cg2dMaxIters =   /* Upper limit on 2d con. grad iterations  */
(PID.TID 0000.0001)                    1000
(PID.TID 0000.0001)     ;
(PID.TID 0000.0001) cg2dChkResFreq =   /* 2d con. grad convergence test frequency */
(PID.TID 0000.0001)                       1
(PID.TID 0000.0001)     ;
(PID.TID 0000.0001) cg2dTargetResidual =   /* 2d con. grad target residual  */
(PID.TID 0000.0001)                 1.000000000000000E-13
(PID.TID 0000.0001)     ;
(PID.TID 0000.0001) cg2dTargetResWunit =   /* CG2d target residual [W units] */
(PID.TID 0000.0001)                -1.000000000000000E+00
(PID.TID 0000.0001)     ;
(PID.TID 0000.0001) cg2dPreCondFreq =   /* Freq. for updating cg2d preconditioner */
(PID.TID 0000.0001)                       1
(PID.TID 0000.0001)     ;
(PID.TID 0000.0001) useSRCGSolver =  /* use single reduction CG solver(s) */
(PID.TID 0000.0001)                   F
(PID.TID 0000.0001)     ;
(PID.TID 0000.0001) printResidualFreq = /* Freq. for printing CG residual */
(PID.TID 0000.0001)                       0
(PID.TID 0000.0001)     ;
(PID.TID 0000.0001) //
(PID.TID 0000.0001) // Time stepping paramters ( PARM03 in namelist )
(PID.TID 0000.0001) //
(PID.TID 0000.0001) deltaTmom =   /* Momentum equation timestep ( s ) */
(PID.TID 0000.0001)                 1.800000000000000E+03
(PID.TID 0000.0001)     ;
(PID.TID 0000.0001) deltaTfreesurf = /* FreeSurface equation timestep ( s ) */
(PID.TID 0000.0001)                 1.800000000000000E+03
(PID.TID 0000.0001)     ;
(PID.TID 0000.0001) dTtracerLev =  /* Tracer equation timestep ( s ) */
(PID.TID 0000.0001)    30 @  1.800000000000000E+03              /* K =  1: 30 */
(PID.TID 0000.0001)     ;
(PID.TID 0000.0001) deltaTClock  =   /* Model clock timestep ( s ) */
(PID.TID 0000.0001)                 1.800000000000000E+03
(PID.TID 0000.0001)     ;
(PID.TID 0000.0001) cAdjFreq =   /* Convective adjustment interval ( s ) */
(PID.TID 0000.0001)                 1.800000000000000E+03
(PID.TID 0000.0001)     ;
(PID.TID 0000.0001) momForcingOutAB = /* =1: take Momentum Forcing out of Adams-Bash. stepping */
(PID.TID 0000.0001)                       0
(PID.TID 0000.0001)     ;
(PID.TID 0000.0001) tracForcingOutAB = /* =1: take T,S,pTr Forcing out of Adams-Bash. stepping */
(PID.TID 0000.0001)                       0
(PID.TID 0000.0001)     ;
(PID.TID 0000.0001) momDissip_In_AB = /* put Dissipation Tendency in Adams-Bash. stepping */
(PID.TID 0000.0001)                   T
(PID.TID 0000.0001)     ;
(PID.TID 0000.0001) doAB_onGtGs = /* apply AB on Tendencies (rather than on T,S)*/
(PID.TID 0000.0001)                   T
(PID.TID 0000.0001)     ;
(PID.TID 0000.0001) abEps =   /* Adams-Bashforth-2 stabilizing weight */
(PID.TID 0000.0001)                 1.000000000000000E-01
(PID.TID 0000.0001)     ;
(PID.TID 0000.0001) tauCD =   /* CD coupling time-scale ( s ) */
(PID.TID 0000.0001)                 4.000000000000000E+05
(PID.TID 0000.0001)     ;
(PID.TID 0000.0001) rCD =   /* Normalised CD coupling parameter */
(PID.TID 0000.0001)                 9.955000000000001E-01
(PID.TID 0000.0001)     ;
(PID.TID 0000.0001) epsAB_CD = /* AB-2 stabilizing weight for CD-scheme*/
(PID.TID 0000.0001)                 1.000000000000000E-01
(PID.TID 0000.0001)     ;
(PID.TID 0000.0001) pickupStrictlyMatch= /* stop if pickup do not strictly match */
(PID.TID 0000.0001)                   T
(PID.TID 0000.0001)     ;
(PID.TID 0000.0001) nIter0   =   /* Run starting timestep number */
(PID.TID 0000.0001)                       0
(PID.TID 0000.0001)     ;
(PID.TID 0000.0001) nTimeSteps = /* Number of timesteps */
(PID.TID 0000.0001)                      20
(PID.TID 0000.0001)     ;
(PID.TID 0000.0001) nEndIter =   /* Run ending timestep number */
(PID.TID 0000.0001)                      20
(PID.TID 0000.0001)     ;
(PID.TID 0000.0001) baseTime =   /* Model base time ( s ) */
(PID.TID 0000.0001)                 0.000000000000000E+00
(PID.TID 0000.0001)     ;
(PID.TID 0000.0001) startTime =  /* Run start time ( s ) */
(PID.TID 0000.0001)                 0.000000000000000E+00
(PID.TID 0000.0001)     ;
(PID.TID 0000.0001) endTime  =   /* Integration ending time ( s ) */
(PID.TID 0000.0001)                 3.600000000000000E+04
(PID.TID 0000.0001)     ;
(PID.TID 0000.0001) pChkPtFreq = /* Permanent restart/pickup file interval ( s ) */
(PID.TID 0000.0001)                 0.000000000000000E+00
(PID.TID 0000.0001)     ;
(PID.TID 0000.0001) chkPtFreq  = /* Rolling restart/pickup file interval ( s ) */
(PID.TID 0000.0001)                 0.000000000000000E+00
(PID.TID 0000.0001)     ;
(PID.TID 0000.0001) pickup_write_mdsio =   /* Model IO flag. */
(PID.TID 0000.0001)                   T
(PID.TID 0000.0001)     ;
(PID.TID 0000.0001) pickup_read_mdsio =   /* Model IO flag. */
(PID.TID 0000.0001)                   T
(PID.TID 0000.0001)     ;
(PID.TID 0000.0001) pickup_write_mnc =   /* Model IO flag. */
(PID.TID 0000.0001)                   F
(PID.TID 0000.0001)     ;
(PID.TID 0000.0001) pickup_read_mnc =   /* Model IO flag. */
(PID.TID 0000.0001)                   F
(PID.TID 0000.0001)     ;
(PID.TID 0000.0001) pickup_write_immed =   /* Model IO flag. */
(PID.TID 0000.0001)                   F
(PID.TID 0000.0001)     ;
(PID.TID 0000.0001) writePickupAtEnd =   /* Model IO flag. */
(PID.TID 0000.0001)                   T
(PID.TID 0000.0001)     ;
(PID.TID 0000.0001) dumpFreq =   /* Model state write out interval ( s ). */
(PID.TID 0000.0001)                 0.000000000000000E+00
(PID.TID 0000.0001)     ;
(PID.TID 0000.0001) dumpInitAndLast= /* write out Initial & Last iter. model state */
(PID.TID 0000.0001)                   T
(PID.TID 0000.0001)     ;
(PID.TID 0000.0001) snapshot_mdsio =   /* Model IO flag. */
(PID.TID 0000.0001)                   F
(PID.TID 0000.0001)     ;
(PID.TID 0000.0001) snapshot_mnc =   /* Model IO flag. */
(PID.TID 0000.0001)                   T
(PID.TID 0000.0001)     ;
(PID.TID 0000.0001) monitorFreq =   /* Monitor output interval ( s ). */
(PID.TID 0000.0001)                 1.000000000000000E+00
(PID.TID 0000.0001)     ;
(PID.TID 0000.0001) monitorSelect = /* select group of variables to monitor */
(PID.TID 0000.0001)                       2
(PID.TID 0000.0001)     ;
(PID.TID 0000.0001) monitor_stdio =   /* Model IO flag. */
(PID.TID 0000.0001)                   T
(PID.TID 0000.0001)     ;
(PID.TID 0000.0001) monitor_mnc =   /* Model IO flag. */
(PID.TID 0000.0001)                   F
(PID.TID 0000.0001)     ;
(PID.TID 0000.0001) externForcingPeriod =   /* forcing period (s) */
(PID.TID 0000.0001)                 0.000000000000000E+00
(PID.TID 0000.0001)     ;
(PID.TID 0000.0001) externForcingCycle =   /* period of the cyle (s). */
(PID.TID 0000.0001)                 0.000000000000000E+00
(PID.TID 0000.0001)     ;
(PID.TID 0000.0001) tauThetaClimRelax =   /* relaxation time scale (s) */
(PID.TID 0000.0001)                 0.000000000000000E+00
(PID.TID 0000.0001)     ;
(PID.TID 0000.0001) tauSaltClimRelax =   /* relaxation time scale (s) */
(PID.TID 0000.0001)                 0.000000000000000E+00
(PID.TID 0000.0001)     ;
(PID.TID 0000.0001) latBandClimRelax =   /* max. Lat. where relaxation */
(PID.TID 0000.0001)                 1.800000000000000E+02
(PID.TID 0000.0001)     ;
(PID.TID 0000.0001) //
(PID.TID 0000.0001) // Gridding paramters ( PARM04 in namelist )
(PID.TID 0000.0001) //
(PID.TID 0000.0001) usingCartesianGrid = /* Cartesian coordinates flag ( True/False ) */
(PID.TID 0000.0001)                   F
(PID.TID 0000.0001)     ;
(PID.TID 0000.0001) usingCylindricalGrid = /* Cylindrical coordinates flag ( True/False ) */
(PID.TID 0000.0001)                   F
(PID.TID 0000.0001)     ;
(PID.TID 0000.0001) usingSphericalPolarGrid = /* Spherical coordinates flag ( True/False ) */
(PID.TID 0000.0001)                   T
(PID.TID 0000.0001)     ;
(PID.TID 0000.0001) usingCurvilinearGrid = /* Curvilinear coordinates flag ( True/False ) */
(PID.TID 0000.0001)                   F
(PID.TID 0000.0001)     ;
(PID.TID 0000.0001) selectSigmaCoord = /* Hybrid-Sigma Vert. Coordinate option */
(PID.TID 0000.0001)                       0
(PID.TID 0000.0001)     ;
(PID.TID 0000.0001) Ro_SeaLevel = /* r(1) ( units of r ==  m ) */
(PID.TID 0000.0001)                 0.000000000000000E+00
(PID.TID 0000.0001)     ;
(PID.TID 0000.0001) rSigmaBnd = /* r/sigma transition ( units of r ==  m ) */
(PID.TID 0000.0001)                 1.234567000000000E+05
(PID.TID 0000.0001)     ;
(PID.TID 0000.0001) rkSign =   /* index orientation relative to vertical coordinate */
(PID.TID 0000.0001)                -1.000000000000000E+00
(PID.TID 0000.0001)     ;
(PID.TID 0000.0001) gravitySign = /* gravity orientation relative to vertical coordinate */
(PID.TID 0000.0001)                -1.000000000000000E+00
(PID.TID 0000.0001)     ;
(PID.TID 0000.0001) mass2rUnit = /* convert mass per unit area [kg/m2] to r-units [m] */
(PID.TID 0000.0001)                 9.708737864077669E-04
(PID.TID 0000.0001)     ;
(PID.TID 0000.0001) rUnit2mass = /* convert r-units [m] to mass per unit area [kg/m2] */
(PID.TID 0000.0001)                 1.030000000000000E+03
(PID.TID 0000.0001)     ;
(PID.TID 0000.0001) drC =   /* C spacing ( units of r ) */
(PID.TID 0000.0001)                 1.500000000000000E+01,      /* K =  1 */
(PID.TID 0000.0001)    29 @  3.000000000000000E+01              /* K =  2: 30 */
(PID.TID 0000.0001)     ;
(PID.TID 0000.0001) drF =   /* W spacing ( units of r ) */
(PID.TID 0000.0001)    30 @  3.000000000000000E+01              /* K =  1: 30 */
(PID.TID 0000.0001)     ;
(PID.TID 0000.0001) delX = /* U spacing ( m - cartesian, degrees - spherical ) */
(PID.TID 0000.0001)    50 @  3.000000000000000E-01              /* I =  1: 50 */
(PID.TID 0000.0001)     ;
(PID.TID 0000.0001) delY = /* V spacing ( m - cartesian, degrees - spherical ) */
(PID.TID 0000.0001)   100 @  1.000000000000000E-01              /* J =  1:100 */
(PID.TID 0000.0001)     ;
(PID.TID 0000.0001) xgOrigin = /* X-axis origin of West  edge (cartesian: m, lat-lon: deg.) */
(PID.TID 0000.0001)                 0.000000000000000E+00
(PID.TID 0000.0001)     ;
(PID.TID 0000.0001) ygOrigin = /* Y-axis origin of South edge (cartesian: m, lat-lon: deg.) */
(PID.TID 0000.0001)                -8.000000000000000E+01
(PID.TID 0000.0001)     ;
(PID.TID 0000.0001) rSphere =  /* Radius ( ignored - cartesian, m - spherical ) */
(PID.TID 0000.0001)                 6.370000000000000E+06
(PID.TID 0000.0001)     ;
(PID.TID 0000.0001) deepAtmosphere = /* Deep/Shallow Atmosphere flag (True/False) */
(PID.TID 0000.0001)                   F
(PID.TID 0000.0001)     ;
(PID.TID 0000.0001) xC =  /* xC(:,1,:,1) : P-point X coord ( deg. or m if cartesian) */
(PID.TID 0000.0001)                 1.500000000000001E-01,      /* I =  1 */
(PID.TID 0000.0001)                 4.500000000000001E-01,      /* I =  2 */
(PID.TID 0000.0001)                 7.500000000000002E-01,      /* I =  3 */
(PID.TID 0000.0001)                 1.050000000000000E+00,      /* I =  4 */
(PID.TID 0000.0001)                 1.350000000000000E+00,      /* I =  5 */
(PID.TID 0000.0001)                 1.650000000000000E+00,      /* I =  6 */
(PID.TID 0000.0001)                 1.950000000000000E+00,      /* I =  7 */
(PID.TID 0000.0001)                 2.250000000000000E+00,      /* I =  8 */
(PID.TID 0000.0001)                 2.550000000000000E+00,      /* I =  9 */
(PID.TID 0000.0001)                 2.850000000000000E+00,      /* I = 10 */
(PID.TID 0000.0001)                 3.149999999999999E+00,      /* I = 11 */
(PID.TID 0000.0001)                 3.449999999999999E+00,      /* I = 12 */
(PID.TID 0000.0001)                 3.749999999999999E+00,      /* I = 13 */
(PID.TID 0000.0001)                 4.049999999999999E+00,      /* I = 14 */
(PID.TID 0000.0001)                 4.350000000000000E+00,      /* I = 15 */
(PID.TID 0000.0001)                 4.649999999999999E+00,      /* I = 16 */
(PID.TID 0000.0001)                 4.949999999999999E+00,      /* I = 17 */
(PID.TID 0000.0001)                 5.249999999999998E+00,      /* I = 18 */
(PID.TID 0000.0001)                 5.549999999999999E+00,      /* I = 19 */
(PID.TID 0000.0001)                 5.849999999999998E+00,      /* I = 20 */
(PID.TID 0000.0001)                 6.149999999999999E+00,      /* I = 21 */
(PID.TID 0000.0001)                 6.449999999999998E+00,      /* I = 22 */
(PID.TID 0000.0001)                 6.749999999999998E+00,      /* I = 23 */
(PID.TID 0000.0001)                 7.049999999999997E+00,      /* I = 24 */
(PID.TID 0000.0001)                 7.349999999999997E+00,      /* I = 25 */
(PID.TID 0000.0001)                 7.649999999999997E+00,      /* I = 26 */
(PID.TID 0000.0001)                 7.949999999999998E+00,      /* I = 27 */
(PID.TID 0000.0001)                 8.249999999999998E+00,      /* I = 28 */
(PID.TID 0000.0001)                 8.549999999999999E+00,      /* I = 29 */
(PID.TID 0000.0001)                 8.850000000000000E+00,      /* I = 30 */
(PID.TID 0000.0001)                 9.150000000000000E+00,      /* I = 31 */
(PID.TID 0000.0001)                 9.450000000000001E+00,      /* I = 32 */
(PID.TID 0000.0001)                 9.750000000000002E+00,      /* I = 33 */
(PID.TID 0000.0001)                 1.005000000000000E+01,      /* I = 34 */
(PID.TID 0000.0001)                 1.035000000000000E+01,      /* I = 35 */
(PID.TID 0000.0001)                 1.065000000000000E+01,      /* I = 36 */
(PID.TID 0000.0001)                 1.095000000000001E+01,      /* I = 37 */
(PID.TID 0000.0001)                 1.125000000000001E+01,      /* I = 38 */
(PID.TID 0000.0001)                 1.155000000000000E+01,      /* I = 39 */
(PID.TID 0000.0001)                 1.185000000000001E+01,      /* I = 40 */
(PID.TID 0000.0001)                 1.215000000000001E+01,      /* I = 41 */
(PID.TID 0000.0001)                 1.245000000000001E+01,      /* I = 42 */
(PID.TID 0000.0001)                 1.275000000000001E+01,      /* I = 43 */
(PID.TID 0000.0001)                 1.305000000000001E+01,      /* I = 44 */
(PID.TID 0000.0001)                 1.335000000000001E+01,      /* I = 45 */
(PID.TID 0000.0001)                 1.365000000000001E+01,      /* I = 46 */
(PID.TID 0000.0001)                 1.395000000000001E+01,      /* I = 47 */
(PID.TID 0000.0001)                 1.425000000000001E+01,      /* I = 48 */
(PID.TID 0000.0001)                 1.455000000000001E+01,      /* I = 49 */
(PID.TID 0000.0001)                 1.485000000000001E+01       /* I = 50 */
(PID.TID 0000.0001)     ;
(PID.TID 0000.0001) yC =  /* yC(1,:,1,:) : P-point Y coord ( deg. or m if cartesian) */
(PID.TID 0000.0001)                -7.995000000000000E+01,      /* J =  1 */
(PID.TID 0000.0001)                -7.985000000000001E+01,      /* J =  2 */
(PID.TID 0000.0001)                -7.975000000000001E+01,      /* J =  3 */
(PID.TID 0000.0001)      . . .
(PID.TID 0000.0001)                -7.775000000000013E+01,      /* J = 23 */
(PID.TID 0000.0001)                -7.765000000000013E+01,      /* J = 24 */
(PID.TID 0000.0001)                -7.755000000000014E+01,      /* J = 25 */
(PID.TID 0000.0001)                -7.745000000000014E+01,      /* J = 26 */
(PID.TID 0000.0001)                -7.735000000000015E+01,      /* J = 27 */
(PID.TID 0000.0001)                -7.725000000000016E+01,      /* J = 28 */
(PID.TID 0000.0001)      . . .
(PID.TID 0000.0001)                -7.525000000000027E+01,      /* J = 48 */
(PID.TID 0000.0001)                -7.515000000000028E+01,      /* J = 49 */
(PID.TID 0000.0001)                -7.505000000000028E+01,      /* J = 50 */
(PID.TID 0000.0001)                -7.495000000000029E+01,      /* J = 51 */
(PID.TID 0000.0001)                -7.485000000000029E+01,      /* J = 52 */
(PID.TID 0000.0001)                -7.475000000000030E+01,      /* J = 53 */
(PID.TID 0000.0001)      . . .
(PID.TID 0000.0001)                -7.275000000000041E+01,      /* J = 73 */
(PID.TID 0000.0001)                -7.265000000000042E+01,      /* J = 74 */
(PID.TID 0000.0001)                -7.255000000000042E+01,      /* J = 75 */
(PID.TID 0000.0001)                -7.245000000000043E+01,      /* J = 76 */
(PID.TID 0000.0001)                -7.235000000000043E+01,      /* J = 77 */
(PID.TID 0000.0001)                -7.225000000000044E+01,      /* J = 78 */
(PID.TID 0000.0001)      . . .
(PID.TID 0000.0001)                -7.025000000000055E+01,      /* J = 98 */
(PID.TID 0000.0001)                -7.015000000000056E+01,      /* J = 99 */
(PID.TID 0000.0001)                -7.005000000000057E+01       /* J =100 */
(PID.TID 0000.0001)     ;
(PID.TID 0000.0001) rcoord = /* P-point R coordinate (  units of r ) */
(PID.TID 0000.0001)                -1.500000000000000E+01,      /* K =  1 */
(PID.TID 0000.0001)                -4.500000000000000E+01,      /* K =  2 */
(PID.TID 0000.0001)                -7.500000000000000E+01,      /* K =  3 */
(PID.TID 0000.0001)                -1.050000000000000E+02,      /* K =  4 */
(PID.TID 0000.0001)                -1.350000000000000E+02,      /* K =  5 */
(PID.TID 0000.0001)                -1.650000000000000E+02,      /* K =  6 */
(PID.TID 0000.0001)                -1.950000000000000E+02,      /* K =  7 */
(PID.TID 0000.0001)                -2.250000000000000E+02,      /* K =  8 */
(PID.TID 0000.0001)                -2.550000000000000E+02,      /* K =  9 */
(PID.TID 0000.0001)                -2.850000000000000E+02,      /* K = 10 */
(PID.TID 0000.0001)                -3.150000000000000E+02,      /* K = 11 */
(PID.TID 0000.0001)                -3.450000000000000E+02,      /* K = 12 */
(PID.TID 0000.0001)                -3.750000000000000E+02,      /* K = 13 */
(PID.TID 0000.0001)                -4.050000000000000E+02,      /* K = 14 */
(PID.TID 0000.0001)                -4.350000000000000E+02,      /* K = 15 */
(PID.TID 0000.0001)                -4.650000000000000E+02,      /* K = 16 */
(PID.TID 0000.0001)                -4.950000000000000E+02,      /* K = 17 */
(PID.TID 0000.0001)                -5.250000000000000E+02,      /* K = 18 */
(PID.TID 0000.0001)                -5.550000000000000E+02,      /* K = 19 */
(PID.TID 0000.0001)                -5.850000000000000E+02,      /* K = 20 */
(PID.TID 0000.0001)                -6.150000000000000E+02,      /* K = 21 */
(PID.TID 0000.0001)                -6.450000000000000E+02,      /* K = 22 */
(PID.TID 0000.0001)                -6.750000000000000E+02,      /* K = 23 */
(PID.TID 0000.0001)                -7.050000000000000E+02,      /* K = 24 */
(PID.TID 0000.0001)                -7.350000000000000E+02,      /* K = 25 */
(PID.TID 0000.0001)                -7.650000000000000E+02,      /* K = 26 */
(PID.TID 0000.0001)                -7.950000000000000E+02,      /* K = 27 */
(PID.TID 0000.0001)                -8.250000000000000E+02,      /* K = 28 */
(PID.TID 0000.0001)                -8.550000000000000E+02,      /* K = 29 */
(PID.TID 0000.0001)                -8.850000000000000E+02       /* K = 30 */
(PID.TID 0000.0001)     ;
(PID.TID 0000.0001) rF =   /* W-Interf. R coordinate (  units of r ) */
(PID.TID 0000.0001)                 0.000000000000000E+00,      /* K =  1 */
(PID.TID 0000.0001)                -3.000000000000000E+01,      /* K =  2 */
(PID.TID 0000.0001)                -6.000000000000000E+01,      /* K =  3 */
(PID.TID 0000.0001)                -9.000000000000000E+01,      /* K =  4 */
(PID.TID 0000.0001)                -1.200000000000000E+02,      /* K =  5 */
(PID.TID 0000.0001)                -1.500000000000000E+02,      /* K =  6 */
(PID.TID 0000.0001)                -1.800000000000000E+02,      /* K =  7 */
(PID.TID 0000.0001)                -2.100000000000000E+02,      /* K =  8 */
(PID.TID 0000.0001)                -2.400000000000000E+02,      /* K =  9 */
(PID.TID 0000.0001)                -2.700000000000000E+02,      /* K = 10 */
(PID.TID 0000.0001)                -3.000000000000000E+02,      /* K = 11 */
(PID.TID 0000.0001)                -3.300000000000000E+02,      /* K = 12 */
(PID.TID 0000.0001)                -3.600000000000000E+02,      /* K = 13 */
(PID.TID 0000.0001)                -3.900000000000000E+02,      /* K = 14 */
(PID.TID 0000.0001)                -4.200000000000000E+02,      /* K = 15 */
(PID.TID 0000.0001)                -4.500000000000000E+02,      /* K = 16 */
(PID.TID 0000.0001)                -4.800000000000000E+02,      /* K = 17 */
(PID.TID 0000.0001)                -5.100000000000000E+02,      /* K = 18 */
(PID.TID 0000.0001)                -5.400000000000000E+02,      /* K = 19 */
(PID.TID 0000.0001)                -5.700000000000000E+02,      /* K = 20 */
(PID.TID 0000.0001)                -6.000000000000000E+02,      /* K = 21 */
(PID.TID 0000.0001)                -6.300000000000000E+02,      /* K = 22 */
(PID.TID 0000.0001)                -6.600000000000000E+02,      /* K = 23 */
(PID.TID 0000.0001)                -6.900000000000000E+02,      /* K = 24 */
(PID.TID 0000.0001)                -7.200000000000000E+02,      /* K = 25 */
(PID.TID 0000.0001)                -7.500000000000000E+02,      /* K = 26 */
(PID.TID 0000.0001)                -7.800000000000000E+02,      /* K = 27 */
(PID.TID 0000.0001)                -8.100000000000000E+02,      /* K = 28 */
(PID.TID 0000.0001)                -8.400000000000000E+02,      /* K = 29 */
(PID.TID 0000.0001)                -8.700000000000000E+02,      /* K = 30 */
(PID.TID 0000.0001)                -9.000000000000000E+02       /* K = 31 */
(PID.TID 0000.0001)     ;
(PID.TID 0000.0001) deepFacC = /* deep-model grid factor @ cell-Center (-) */
(PID.TID 0000.0001)    30 @  1.000000000000000E+00              /* K =  1: 30 */
(PID.TID 0000.0001)     ;
(PID.TID 0000.0001) deepFacF = /* deep-model grid factor @ W-Interface (-) */
(PID.TID 0000.0001)    31 @  1.000000000000000E+00              /* K =  1: 31 */
(PID.TID 0000.0001)     ;
(PID.TID 0000.0001) rVel2wUnit = /* convert units: rVel -> wSpeed (=1 if z-coord)*/
(PID.TID 0000.0001)    31 @  1.000000000000000E+00              /* K =  1: 31 */
(PID.TID 0000.0001)     ;
(PID.TID 0000.0001) wUnit2rVel = /* convert units: wSpeed -> rVel (=1 if z-coord)*/
(PID.TID 0000.0001)    31 @  1.000000000000000E+00              /* K =  1: 31 */
(PID.TID 0000.0001)     ;
(PID.TID 0000.0001) dBdrRef = /* Vertical grad. of reference buoyancy [(m/s/r)^2] */
(PID.TID 0000.0001)    30 @  0.000000000000000E+00              /* K =  1: 30 */
(PID.TID 0000.0001)     ;
(PID.TID 0000.0001) rotateGrid = /* use rotated grid ( True/False ) */
(PID.TID 0000.0001)                   F
(PID.TID 0000.0001)     ;
(PID.TID 0000.0001) phiEuler = /* Euler angle, rotation about original z-coordinate [rad] */
(PID.TID 0000.0001)                 0.000000000000000E+00
(PID.TID 0000.0001)     ;
(PID.TID 0000.0001) thetaEuler = /* Euler angle, rotation about new x-coordinate [rad] */
(PID.TID 0000.0001)                 0.000000000000000E+00
(PID.TID 0000.0001)     ;
(PID.TID 0000.0001) psiEuler = /* Euler angle, rotation about new z-coordinate [rad] */
(PID.TID 0000.0001)                 0.000000000000000E+00
(PID.TID 0000.0001)     ;
(PID.TID 0000.0001) dxF =  /* dxF(:,1,:,1) ( units: m ) */
(PID.TID 0000.0001)    50 @  5.820391490558872E+03              /* I =  1: 50 */
(PID.TID 0000.0001)     ;
(PID.TID 0000.0001) dxF =  /* dxF(1,:,1,:) ( units: m ) */
(PID.TID 0000.0001)                 5.820391490558872E+03,      /* J =  1 */
(PID.TID 0000.0001)                 5.877701765291692E+03,      /* J =  2 */
(PID.TID 0000.0001)                 5.934994135525598E+03,      /* J =  3 */
(PID.TID 0000.0001)      . . .
(PID.TID 0000.0001)                 7.076813247621209E+03,      /* J = 23 */
(PID.TID 0000.0001)                 7.133689397375063E+03,      /* J = 24 */
(PID.TID 0000.0001)                 7.190543816673855E+03,      /* J = 25 */
(PID.TID 0000.0001)                 7.247376332329164E+03,      /* J = 26 */
(PID.TID 0000.0001)                 7.304186771219292E+03,      /* J = 27 */
(PID.TID 0000.0001)                 7.360974960289787E+03,      /* J = 28 */
(PID.TID 0000.0001)      . . .
(PID.TID 0000.0001)                 8.491800393599013E+03,      /* J = 48 */
(PID.TID 0000.0001)                 8.548081485571185E+03,      /* J = 49 */
(PID.TID 0000.0001)                 8.604336538604706E+03,      /* J = 50 */
(PID.TID 0000.0001)                 8.660565381336924E+03,      /* J = 51 */
(PID.TID 0000.0001)                 8.716767842485036E+03,      /* J = 52 */
(PID.TID 0000.0001)                 8.772943750846600E+03,      /* J = 53 */
(PID.TID 0000.0001)      . . .
(PID.TID 0000.0001)                 9.890622914885218E+03,      /* J = 73 */
(PID.TID 0000.0001)                 9.946201814818334E+03,      /* J = 74 */
(PID.TID 0000.0001)                 1.000175041689580E+04,      /* J = 75 */
(PID.TID 0000.0001)                 1.005726855190695E+04,      /* J = 76 */
(PID.TID 0000.0001)                 1.011275605073392E+04,      /* J = 77 */
(PID.TID 0000.0001)                 1.016821274435215E+04,      /* J = 78 */
(PID.TID 0000.0001)      . . .
(PID.TID 0000.0001)                 1.127061807330668E+04,      /* J = 98 */
(PID.TID 0000.0001)                 1.132538898360582E+04,      /* J = 99 */
(PID.TID 0000.0001)                 1.138012539480601E+04       /* J =100 */
(PID.TID 0000.0001)     ;
(PID.TID 0000.0001) dyF =  /* dyF(:,1,:,1) ( units: m ) */
(PID.TID 0000.0001)    50 @  1.111774733520388E+04              /* I =  1: 50 */
(PID.TID 0000.0001)     ;
(PID.TID 0000.0001) dyF =  /* dyF(1,:,1,:) ( units: m ) */
(PID.TID 0000.0001)   100 @  1.111774733520388E+04              /* J =  1:100 */
(PID.TID 0000.0001)     ;
(PID.TID 0000.0001) dxG =  /* dxG(:,1,:,1) ( units: m ) */
(PID.TID 0000.0001)    50 @  5.791729693558576E+03              /* I =  1: 50 */
(PID.TID 0000.0001)     ;
(PID.TID 0000.0001) dxG =  /* dxG(1,:,1,:) ( units: m ) */
(PID.TID 0000.0001)                 5.791729693558576E+03,      /* J =  1 */
(PID.TID 0000.0001)                 5.849048855077854E+03,      /* J =  2 */
(PID.TID 0000.0001)                 5.906350199379949E+03,      /* J =  3 */
(PID.TID 0000.0001)      . . .
(PID.TID 0000.0001)                 7.048367077963129E+03,      /* J = 23 */
(PID.TID 0000.0001)                 7.105254027978149E+03,      /* J = 24 */
(PID.TID 0000.0001)                 7.162119334157175E+03,      /* J = 25 */
(PID.TID 0000.0001)                 7.218962823278620E+03,      /* J = 26 */
(PID.TID 0000.0001)                 7.275784322187360E+03,      /* J = 27 */
(PID.TID 0000.0001)                 7.332583657795253E+03,      /* J = 28 */
(PID.TID 0000.0001)      . . .
(PID.TID 0000.0001)                 8.463650136583461E+03,      /* J = 48 */
(PID.TID 0000.0001)                 8.519944183739159E+03,      /* J = 49 */
(PID.TID 0000.0001)                 8.576212277667308E+03,      /* J = 50 */
(PID.TID 0000.0001)                 8.632454246965530E+03,      /* J = 51 */
(PID.TID 0000.0001)                 8.688669920311038E+03,      /* J = 52 */
(PID.TID 0000.0001)                 8.744859126461139E+03,      /* J = 53 */
(PID.TID 0000.0001)      . . .
(PID.TID 0000.0001)                 9.862822156126382E+03,      /* J = 73 */
(PID.TID 0000.0001)                 9.918416141504455E+03,      /* J = 74 */
(PID.TID 0000.0001)                 9.973979913666863E+03,      /* J = 75 */
(PID.TID 0000.0001)                 1.002951330335672E+04,      /* J = 76 */
(PID.TID 0000.0001)                 1.008501614140969E+04,      /* J = 77 */
(PID.TID 0000.0001)                 1.014048825875450E+04,      /* J = 78 */
(PID.TID 0000.0001)      . . .
(PID.TID 0000.0001)                 1.124321973312895E+04,      /* J = 98 */
(PID.TID 0000.0001)                 1.129800783041847E+04,      /* J = 99 */
(PID.TID 0000.0001)                 1.135276151201679E+04       /* J =100 */
(PID.TID 0000.0001)     ;
(PID.TID 0000.0001) dyG =  /* dyG(:,1,:,1) ( units: m ) */
(PID.TID 0000.0001)    50 @  1.111774733520388E+04              /* I =  1: 50 */
(PID.TID 0000.0001)     ;
(PID.TID 0000.0001) dyG =  /* dyG(1,:,1,:) ( units: m ) */
(PID.TID 0000.0001)   100 @  1.111774733520388E+04              /* J =  1:100 */
(PID.TID 0000.0001)     ;
(PID.TID 0000.0001) dxC =  /* dxC(:,1,:,1) ( units: m ) */
(PID.TID 0000.0001)    50 @  5.820391490558872E+03              /* I =  1: 50 */
(PID.TID 0000.0001)     ;
(PID.TID 0000.0001) dxC =  /* dxC(1,:,1,:) ( units: m ) */
(PID.TID 0000.0001)                 5.820391490558872E+03,      /* J =  1 */
(PID.TID 0000.0001)                 5.877701765291692E+03,      /* J =  2 */
(PID.TID 0000.0001)                 5.934994135525598E+03,      /* J =  3 */
(PID.TID 0000.0001)      . . .
(PID.TID 0000.0001)                 7.076813247621209E+03,      /* J = 23 */
(PID.TID 0000.0001)                 7.133689397375063E+03,      /* J = 24 */
(PID.TID 0000.0001)                 7.190543816673855E+03,      /* J = 25 */
(PID.TID 0000.0001)                 7.247376332329164E+03,      /* J = 26 */
(PID.TID 0000.0001)                 7.304186771219292E+03,      /* J = 27 */
(PID.TID 0000.0001)                 7.360974960289787E+03,      /* J = 28 */
(PID.TID 0000.0001)      . . .
(PID.TID 0000.0001)                 8.491800393599013E+03,      /* J = 48 */
(PID.TID 0000.0001)                 8.548081485571185E+03,      /* J = 49 */
(PID.TID 0000.0001)                 8.604336538604706E+03,      /* J = 50 */
(PID.TID 0000.0001)                 8.660565381336924E+03,      /* J = 51 */
(PID.TID 0000.0001)                 8.716767842485036E+03,      /* J = 52 */
(PID.TID 0000.0001)                 8.772943750846600E+03,      /* J = 53 */
(PID.TID 0000.0001)      . . .
(PID.TID 0000.0001)                 9.890622914885218E+03,      /* J = 73 */
(PID.TID 0000.0001)                 9.946201814818334E+03,      /* J = 74 */
(PID.TID 0000.0001)                 1.000175041689580E+04,      /* J = 75 */
(PID.TID 0000.0001)                 1.005726855190695E+04,      /* J = 76 */
(PID.TID 0000.0001)                 1.011275605073392E+04,      /* J = 77 */
(PID.TID 0000.0001)                 1.016821274435215E+04,      /* J = 78 */
(PID.TID 0000.0001)      . . .
(PID.TID 0000.0001)                 1.127061807330668E+04,      /* J = 98 */
(PID.TID 0000.0001)                 1.132538898360582E+04,      /* J = 99 */
(PID.TID 0000.0001)                 1.138012539480601E+04       /* J =100 */
(PID.TID 0000.0001)     ;
(PID.TID 0000.0001) dyC =  /* dyC(:,1,:,1) ( units: m ) */
(PID.TID 0000.0001)    50 @  1.111774733520388E+04              /* I =  1: 50 */
(PID.TID 0000.0001)     ;
(PID.TID 0000.0001) dyC =  /* dyC(1,:,1,:) ( units: m ) */
(PID.TID 0000.0001)   100 @  1.111774733520388E+04              /* J =  1:100 */
(PID.TID 0000.0001)     ;
(PID.TID 0000.0001) dxV =  /* dxV(:,1,:,1) ( units: m ) */
(PID.TID 0000.0001)    50 @  5.791729693558576E+03              /* I =  1: 50 */
(PID.TID 0000.0001)     ;
(PID.TID 0000.0001) dxV =  /* dxV(1,:,1,:) ( units: m ) */
(PID.TID 0000.0001)                 5.791729693558576E+03,      /* J =  1 */
(PID.TID 0000.0001)                 5.849048855077854E+03,      /* J =  2 */
(PID.TID 0000.0001)                 5.906350199379949E+03,      /* J =  3 */
(PID.TID 0000.0001)      . . .
(PID.TID 0000.0001)                 7.048367077963129E+03,      /* J = 23 */
(PID.TID 0000.0001)                 7.105254027978149E+03,      /* J = 24 */
(PID.TID 0000.0001)                 7.162119334157175E+03,      /* J = 25 */
(PID.TID 0000.0001)                 7.218962823278620E+03,      /* J = 26 */
(PID.TID 0000.0001)                 7.275784322187360E+03,      /* J = 27 */
(PID.TID 0000.0001)                 7.332583657795253E+03,      /* J = 28 */
(PID.TID 0000.0001)      . . .
(PID.TID 0000.0001)                 8.463650136583461E+03,      /* J = 48 */
(PID.TID 0000.0001)                 8.519944183739159E+03,      /* J = 49 */
(PID.TID 0000.0001)                 8.576212277667308E+03,      /* J = 50 */
(PID.TID 0000.0001)                 8.632454246965530E+03,      /* J = 51 */
(PID.TID 0000.0001)                 8.688669920311038E+03,      /* J = 52 */
(PID.TID 0000.0001)                 8.744859126461139E+03,      /* J = 53 */
(PID.TID 0000.0001)      . . .
(PID.TID 0000.0001)                 9.862822156126382E+03,      /* J = 73 */
(PID.TID 0000.0001)                 9.918416141504455E+03,      /* J = 74 */
(PID.TID 0000.0001)                 9.973979913666863E+03,      /* J = 75 */
(PID.TID 0000.0001)                 1.002951330335672E+04,      /* J = 76 */
(PID.TID 0000.0001)                 1.008501614140969E+04,      /* J = 77 */
(PID.TID 0000.0001)                 1.014048825875450E+04,      /* J = 78 */
(PID.TID 0000.0001)      . . .
(PID.TID 0000.0001)                 1.124321973312895E+04,      /* J = 98 */
(PID.TID 0000.0001)                 1.129800783041847E+04,      /* J = 99 */
(PID.TID 0000.0001)                 1.135276151201679E+04       /* J =100 */
(PID.TID 0000.0001)     ;
(PID.TID 0000.0001) dyU =  /* dyU(:,1,:,1) ( units: m ) */
(PID.TID 0000.0001)    50 @  1.111774733520388E+04              /* I =  1: 50 */
(PID.TID 0000.0001)     ;
(PID.TID 0000.0001) dyU =  /* dyU(1,:,1,:) ( units: m ) */
(PID.TID 0000.0001)   100 @  1.111774733520388E+04              /* J =  1:100 */
(PID.TID 0000.0001)     ;
(PID.TID 0000.0001) rA  =  /* rA (:,1,:,1) ( units: m^2 ) */
(PID.TID 0000.0001)    50 @  6.470963377080289E+07              /* I =  1: 50 */
(PID.TID 0000.0001)     ;
(PID.TID 0000.0001) rA  =  /* rA (1,:,1,:) ( units: m^2 ) */
(PID.TID 0000.0001)                 6.470963377080289E+07,      /* J =  1 */
(PID.TID 0000.0001)                 6.534679484410104E+07,      /* J =  2 */
(PID.TID 0000.0001)                 6.598375685977945E+07,      /* J =  3 */
(PID.TID 0000.0001)      . . .
(PID.TID 0000.0001)                 7.867821163932665E+07,      /* J = 23 */
(PID.TID 0000.0001)                 7.931054622142966E+07,      /* J = 24 */
(PID.TID 0000.0001)                 7.994263920984067E+07,      /* J = 25 */
(PID.TID 0000.0001)                 8.057448867913349E+07,      /* J = 26 */
(PID.TID 0000.0001)                 8.120609270456599E+07,      /* J = 27 */
(PID.TID 0000.0001)                 8.183744936212724E+07,      /* J = 28 */
(PID.TID 0000.0001)      . . .
(PID.TID 0000.0001)                 9.440967921416211E+07,      /* J = 48 */
(PID.TID 0000.0001)                 9.503539809503193E+07,      /* J = 49 */
(PID.TID 0000.0001)                 9.566082748163140E+07,      /* J = 50 */
(PID.TID 0000.0001)                 9.628596546870193E+07,      /* J = 51 */
(PID.TID 0000.0001)                 9.691081015209354E+07,      /* J = 52 */
(PID.TID 0000.0001)                 9.753535962826957E+07,      /* J = 53 */
(PID.TID 0000.0001)      . . .
(PID.TID 0000.0001)                 1.099614325987181E+08,      /* J = 73 */
(PID.TID 0000.0001)                 1.105793446869293E+08,      /* J = 74 */
(PID.TID 0000.0001)                 1.111969199312560E+08,      /* J = 75 */
(PID.TID 0000.0001)                 1.118141564504991E+08,      /* J = 76 */
(PID.TID 0000.0001)                 1.124310523644033E+08,      /* J = 77 */
(PID.TID 0000.0001)                 1.130476057938687E+08,      /* J = 78 */
(PID.TID 0000.0001)      . . .
(PID.TID 0000.0001)                 1.253038681465364E+08,      /* J = 98 */
(PID.TID 0000.0001)                 1.259127972112936E+08,      /* J = 99 */
(PID.TID 0000.0001)                 1.265213427237870E+08       /* J =100 */
(PID.TID 0000.0001)     ;
(PID.TID 0000.0001) rAw =  /* rAw(:,1,:,1) ( units: m^2 ) */
(PID.TID 0000.0001)    50 @  6.470963377080289E+07              /* I =  1: 50 */
(PID.TID 0000.0001)     ;
(PID.TID 0000.0001) rAw =  /* rAw(1,:,1,:) ( units: m^2 ) */
(PID.TID 0000.0001)                 6.470963377080289E+07,      /* J =  1 */
(PID.TID 0000.0001)                 6.534679484410104E+07,      /* J =  2 */
(PID.TID 0000.0001)                 6.598375685977945E+07,      /* J =  3 */
(PID.TID 0000.0001)      . . .
(PID.TID 0000.0001)                 7.867821163932665E+07,      /* J = 23 */
(PID.TID 0000.0001)                 7.931054622142966E+07,      /* J = 24 */
(PID.TID 0000.0001)                 7.994263920984067E+07,      /* J = 25 */
(PID.TID 0000.0001)                 8.057448867913349E+07,      /* J = 26 */
(PID.TID 0000.0001)                 8.120609270456599E+07,      /* J = 27 */
(PID.TID 0000.0001)                 8.183744936212724E+07,      /* J = 28 */
(PID.TID 0000.0001)      . . .
(PID.TID 0000.0001)                 9.440967921416211E+07,      /* J = 48 */
(PID.TID 0000.0001)                 9.503539809503193E+07,      /* J = 49 */
(PID.TID 0000.0001)                 9.566082748163140E+07,      /* J = 50 */
(PID.TID 0000.0001)                 9.628596546870193E+07,      /* J = 51 */
(PID.TID 0000.0001)                 9.691081015209354E+07,      /* J = 52 */
(PID.TID 0000.0001)                 9.753535962826957E+07,      /* J = 53 */
(PID.TID 0000.0001)      . . .
(PID.TID 0000.0001)                 1.099614325987181E+08,      /* J = 73 */
(PID.TID 0000.0001)                 1.105793446869293E+08,      /* J = 74 */
(PID.TID 0000.0001)                 1.111969199312560E+08,      /* J = 75 */
(PID.TID 0000.0001)                 1.118141564504991E+08,      /* J = 76 */
(PID.TID 0000.0001)                 1.124310523644033E+08,      /* J = 77 */
(PID.TID 0000.0001)                 1.130476057938687E+08,      /* J = 78 */
(PID.TID 0000.0001)      . . .
(PID.TID 0000.0001)                 1.253038681465364E+08,      /* J = 98 */
(PID.TID 0000.0001)                 1.259127972112936E+08,      /* J = 99 */
(PID.TID 0000.0001)                 1.265213427237870E+08       /* J =100 */
(PID.TID 0000.0001)     ;
(PID.TID 0000.0001) rAs =  /* rAs(:,1,:,1) ( units: m^2 ) */
(PID.TID 0000.0001)    50 @  6.439097919401864E+07              /* I =  1: 50 */
(PID.TID 0000.0001)     ;
(PID.TID 0000.0001) rAs =  /* rAs(1,:,1,:) ( units: m^2 ) */
(PID.TID 0000.0001)                 6.439097919401864E+07,      /* J =  1 */
(PID.TID 0000.0001)                 6.502823906837179E+07,      /* J =  2 */
(PID.TID 0000.0001)                 6.566530085543716E+07,      /* J =  3 */
(PID.TID 0000.0001)      . . .
(PID.TID 0000.0001)                 7.836195435256335E+07,      /* J = 23 */
(PID.TID 0000.0001)                 7.899440900921808E+07,      /* J = 24 */
(PID.TID 0000.0001)                 7.962662303520055E+07,      /* J = 25 */
(PID.TID 0000.0001)                 8.025859450470714E+07,      /* J = 26 */
(PID.TID 0000.0001)                 8.089032149259475E+07,      /* J = 27 */
(PID.TID 0000.0001)                 8.152180207452223E+07,      /* J = 28 */
(PID.TID 0000.0001)      . . .
(PID.TID 0000.0001)                 9.409671180895932E+07,      /* J = 48 */
(PID.TID 0000.0001)                 9.472257472228888E+07,      /* J = 49 */
(PID.TID 0000.0001)                 9.534814909420149E+07,      /* J = 50 */
(PID.TID 0000.0001)                 9.597343301913190E+07,      /* J = 51 */
(PID.TID 0000.0001)                 9.659842459236403E+07,      /* J = 52 */
(PID.TID 0000.0001)                 9.722312190998378E+07,      /* J = 53 */
(PID.TID 0000.0001)      . . .
(PID.TID 0000.0001)                 1.096523508263446E+08,      /* J = 73 */
(PID.TID 0000.0001)                 1.102704306306916E+08,      /* J = 74 */
(PID.TID 0000.0001)                 1.108881745321664E+08,      /* J = 75 */
(PID.TID 0000.0001)                 1.115055806490511E+08,      /* J = 76 */
(PID.TID 0000.0001)                 1.121226471005947E+08,      /* J = 77 */
(PID.TID 0000.0001)                 1.127393720071080E+08,      /* J = 78 */
(PID.TID 0000.0001)      . . .
(PID.TID 0000.0001)                 1.249992603617116E+08,      /* J = 98 */
(PID.TID 0000.0001)                 1.256083805070198E+08,      /* J = 99 */
(PID.TID 0000.0001)                 1.262171180274426E+08       /* J =100 */
(PID.TID 0000.0001)     ;
(PID.TID 0000.0001) globalArea = /* Integrated horizontal Area (m^2) */
(PID.TID 0000.0001)                 4.665024516720103E+11
(PID.TID 0000.0001)     ;
(PID.TID 0000.0001) // =======================================================
(PID.TID 0000.0001) // End of Model config. summary
(PID.TID 0000.0001) // =======================================================
(PID.TID 0000.0001) 
(PID.TID 0000.0001) == Packages configuration : Check & print summary ==
(PID.TID 0000.0001) 
(PID.TID 0000.0001) SHELFICE_CHECK: #define ALLOW_SHELFICE
(PID.TID 0000.0001) GAD_CHECK: #define ALLOW_GENERIC_ADVDIFF
(PID.TID 0000.0001) // =======================================================
(PID.TID 0000.0001) // CONFIG_CHECK : Normal End
(PID.TID 0000.0001) // =======================================================
(PID.TID 0000.0001) 
(PID.TID 0000.0001) Start initial hydrostatic pressure computation
(PID.TID 0000.0001) Pressure is predetermined for buoyancyRelation OCEANIC
(PID.TID 0000.0001) 
(PID.TID 0000.0001)  MDS_READ_FIELD: opening global file: phi0surf.exp1.jmd95z
(PID.TID 0000.0001) // =======================================================
(PID.TID 0000.0001) // Model current state
(PID.TID 0000.0001) // =======================================================
(PID.TID 0000.0001) 
(PID.TID 0000.0001) // =======================================================
(PID.TID 0000.0001) // Begin MONITOR dynamic field statistics
(PID.TID 0000.0001) // =======================================================
(PID.TID 0000.0001) %MON time_tsnumber                =                     0
(PID.TID 0000.0001) %MON time_secondsf                =   0.0000000000000E+00
(PID.TID 0000.0001) %MON dynstat_eta_max              =   0.0000000000000E+00
(PID.TID 0000.0001) %MON dynstat_eta_min              =   0.0000000000000E+00
(PID.TID 0000.0001) %MON dynstat_eta_mean             =   0.0000000000000E+00
(PID.TID 0000.0001) %MON dynstat_eta_sd               =   0.0000000000000E+00
(PID.TID 0000.0001) %MON dynstat_eta_del2             =   0.0000000000000E+00
(PID.TID 0000.0001) %MON dynstat_uvel_max             =   0.0000000000000E+00
(PID.TID 0000.0001) %MON dynstat_uvel_min             =   0.0000000000000E+00
(PID.TID 0000.0001) %MON dynstat_uvel_mean            =   0.0000000000000E+00
(PID.TID 0000.0001) %MON dynstat_uvel_sd              =   0.0000000000000E+00
(PID.TID 0000.0001) %MON dynstat_uvel_del2            =   0.0000000000000E+00
(PID.TID 0000.0001) %MON dynstat_vvel_max             =   0.0000000000000E+00
(PID.TID 0000.0001) %MON dynstat_vvel_min             =   0.0000000000000E+00
(PID.TID 0000.0001) %MON dynstat_vvel_mean            =   0.0000000000000E+00
(PID.TID 0000.0001) %MON dynstat_vvel_sd              =   0.0000000000000E+00
(PID.TID 0000.0001) %MON dynstat_vvel_del2            =   0.0000000000000E+00
(PID.TID 0000.0001) %MON dynstat_wvel_max             =  -0.0000000000000E+00
(PID.TID 0000.0001) %MON dynstat_wvel_min             =  -0.0000000000000E+00
(PID.TID 0000.0001) %MON dynstat_wvel_mean            =   0.0000000000000E+00
(PID.TID 0000.0001) %MON dynstat_wvel_sd              =   0.0000000000000E+00
(PID.TID 0000.0001) %MON dynstat_wvel_del2            =   0.0000000000000E+00
(PID.TID 0000.0001) %MON dynstat_theta_max            =  -1.9000000000000E+00
(PID.TID 0000.0001) %MON dynstat_theta_min            =  -1.9000000000000E+00
(PID.TID 0000.0001) %MON dynstat_theta_mean           =  -1.9000000000000E+00
(PID.TID 0000.0001) %MON dynstat_theta_sd             =   0.0000000000000E+00
(PID.TID 0000.0001) %MON dynstat_theta_del2           =   0.0000000000000E+00
(PID.TID 0000.0001) %MON dynstat_salt_max             =   3.4400000000000E+01
(PID.TID 0000.0001) %MON dynstat_salt_min             =   3.4400000000000E+01
(PID.TID 0000.0001) %MON dynstat_salt_mean            =   3.4400000000002E+01
(PID.TID 0000.0001) %MON dynstat_salt_sd              =   2.0961010704923E-12
(PID.TID 0000.0001) %MON dynstat_salt_del2            =   0.0000000000000E+00
(PID.TID 0000.0001) %MON advcfl_uvel_max              =   0.0000000000000E+00
(PID.TID 0000.0001) %MON advcfl_vvel_max              =   0.0000000000000E+00
(PID.TID 0000.0001) %MON advcfl_wvel_max              =   0.0000000000000E+00
(PID.TID 0000.0001) %MON advcfl_W_hf_max              =   0.0000000000000E+00
(PID.TID 0000.0001) %MON pe_b_mean                    =   0.0000000000000E+00
(PID.TID 0000.0001) %MON ke_max                       =   0.0000000000000E+00
(PID.TID 0000.0001) %MON ke_mean                      =   0.0000000000000E+00
(PID.TID 0000.0001) %MON ke_vol                       =   2.9241705273104E+14
(PID.TID 0000.0001) %MON vort_r_min                   =   0.0000000000000E+00
(PID.TID 0000.0001) %MON vort_r_max                   =   0.0000000000000E+00
(PID.TID 0000.0001) %MON vort_a_mean                  =  -1.4007437277915E-04
(PID.TID 0000.0001) %MON vort_a_sd                    =   1.7682771465337E-06
(PID.TID 0000.0001) %MON vort_p_mean                  =  -1.5039772194955E-04
(PID.TID 0000.0001) %MON vort_p_sd                    =   8.7081213929711E-05
(PID.TID 0000.0001) %MON surfExpan_theta_mean         =   0.0000000000000E+00
(PID.TID 0000.0001) %MON surfExpan_salt_mean          =   0.0000000000000E+00
(PID.TID 0000.0001) // =======================================================
(PID.TID 0000.0001) // End MONITOR dynamic field statistics
(PID.TID 0000.0001) // =======================================================
(PID.TID 0000.0001) SOLVE_FOR_PRESSURE: putPmEinXvector =    F
(PID.TID 0000.0001) SOLVE_FOR_PRESSURE: zeroPsNH=    F , zeroMeanPnh=    F
(PID.TID 0000.0001) SOLVE_FOR_PRESSURE: oldFreeSurfTerm =    F
 cg2d: Sum(rhs),rhsMax =   3.03868041839905E-13  1.03920567227654E-14
(PID.TID 0000.0001)                    cg2d_init_res =    7.68796783864105E+00
(PID.TID 0000.0001)                       cg2d_iters =   219
(PID.TID 0000.0001)                         cg2d_res =    8.91666209729130E-14
(PID.TID 0000.0001) // =======================================================
(PID.TID 0000.0001) // Begin MONITOR dynamic field statistics
(PID.TID 0000.0001) // =======================================================
(PID.TID 0000.0001) %MON time_tsnumber                =                     1
(PID.TID 0000.0001) %MON time_secondsf                =   1.8000000000000E+03
(PID.TID 0000.0001) %MON dynstat_eta_max              =   3.0224844020358E-14
(PID.TID 0000.0001) %MON dynstat_eta_min              =  -1.6352637067815E-14
(PID.TID 0000.0001) %MON dynstat_eta_mean             =  -5.4539072388159E-30
(PID.TID 0000.0001) %MON dynstat_eta_sd               =   7.2232771538621E-15
(PID.TID 0000.0001) %MON dynstat_eta_del2             =   2.9650340792944E-18
(PID.TID 0000.0001) %MON dynstat_uvel_max             =   8.6794457539743E-16
(PID.TID 0000.0001) %MON dynstat_uvel_min             =  -5.3208071566974E-16
(PID.TID 0000.0001) %MON dynstat_uvel_mean            =   9.8578831156731E-17
(PID.TID 0000.0001) %MON dynstat_uvel_sd              =   2.5472391264872E-16
(PID.TID 0000.0001) %MON dynstat_uvel_del2            =   2.7242384912593E-19
(PID.TID 0000.0001) %MON dynstat_vvel_max             =  -2.2055214805309E-18
(PID.TID 0000.0001) %MON dynstat_vvel_min             =  -3.6698651381627E-15
(PID.TID 0000.0001) %MON dynstat_vvel_mean            =  -8.9256923739215E-16
(PID.TID 0000.0001) %MON dynstat_vvel_sd              =   1.1443599207230E-15
(PID.TID 0000.0001) %MON dynstat_vvel_del2            =   2.6720785882557E-19
(PID.TID 0000.0001) %MON dynstat_wvel_max             =   1.6791580011310E-17
(PID.TID 0000.0001) %MON dynstat_wvel_min             =  -1.1837477869810E-17
(PID.TID 0000.0001) %MON dynstat_wvel_mean            =  -7.1423504241463E-19
(PID.TID 0000.0001) %MON dynstat_wvel_sd              =   1.9708417674139E-18
(PID.TID 0000.0001) %MON dynstat_wvel_del2            =   2.0571939978872E-21
(PID.TID 0000.0001) %MON dynstat_theta_max            =  -1.9000000000000E+00
(PID.TID 0000.0001) %MON dynstat_theta_min            =  -1.9006851721692E+00
(PID.TID 0000.0001) %MON dynstat_theta_mean           =  -1.9000114590763E+00
(PID.TID 0000.0001) %MON dynstat_theta_sd             =   5.3541545558264E-05
(PID.TID 0000.0001) %MON dynstat_theta_del2           =   5.7317995272153E-08
(PID.TID 0000.0001) %MON dynstat_salt_max             =   3.4400000000000E+01
(PID.TID 0000.0001) %MON dynstat_salt_min             =   3.4399720387688E+01
(PID.TID 0000.0001) %MON dynstat_salt_mean            =   3.4399995374964E+01
(PID.TID 0000.0001) %MON dynstat_salt_sd              =   2.1724392826835E-05
(PID.TID 0000.0001) %MON dynstat_salt_del2            =   2.3353172088220E-08
(PID.TID 0000.0001) %MON advcfl_uvel_max              =   2.1062302975202E-16
(PID.TID 0000.0001) %MON advcfl_vvel_max              =   5.9416328232033E-16
(PID.TID 0000.0001) %MON advcfl_wvel_max              =   1.0074948006786E-15
(PID.TID 0000.0001) %MON advcfl_W_hf_max              =   1.2537298022170E-14
(PID.TID 0000.0001) %MON pe_b_mean                    =  -4.6823576018498E-18
(PID.TID 0000.0001) %MON ke_max                       =   6.5161940505757E-30
(PID.TID 0000.0001) %MON ke_mean                      =   1.0772774672187E-30
(PID.TID 0000.0001) %MON ke_vol                       =   2.9241705273104E+14
(PID.TID 0000.0001) %MON vort_r_min                   =  -5.2185742956779E-19
(PID.TID 0000.0001) %MON vort_r_max                   =   5.5189542768679E-19
(PID.TID 0000.0001) %MON vort_a_mean                  =  -1.4007437277915E-04
(PID.TID 0000.0001) %MON vort_a_sd                    =   1.7682771465365E-06
(PID.TID 0000.0001) %MON vort_p_mean                  =  -1.5039772194955E-04
(PID.TID 0000.0001) %MON vort_p_sd                    =   8.7081213929711E-05
(PID.TID 0000.0001) %MON surfExpan_theta_mean         =  -4.7855801067210E-22
(PID.TID 0000.0001) %MON surfExpan_salt_mean          =  -1.9676232428861E-22
(PID.TID 0000.0001) // =======================================================
(PID.TID 0000.0001) // End MONITOR dynamic field statistics
(PID.TID 0000.0001) // =======================================================
 cg2d: Sum(rhs),rhsMax =   3.22464663749401E-14  4.42863838093444E-07
(PID.TID 0000.0001)                    cg2d_init_res =    1.62246972292557E+01
(PID.TID 0000.0001)                       cg2d_iters =   220
(PID.TID 0000.0001)                         cg2d_res =    9.28335967730729E-14
(PID.TID 0000.0001) // =======================================================
(PID.TID 0000.0001) // Begin MONITOR dynamic field statistics
(PID.TID 0000.0001) // =======================================================
(PID.TID 0000.0001) %MON time_tsnumber                =                     2
(PID.TID 0000.0001) %MON time_secondsf                =   3.6000000000000E+03
(PID.TID 0000.0001) %MON dynstat_eta_max              =   5.7331860714514E-07
(PID.TID 0000.0001) %MON dynstat_eta_min              =  -1.0080227395007E-06
(PID.TID 0000.0001) %MON dynstat_eta_mean             =  -9.1501379789577E-23
(PID.TID 0000.0001) %MON dynstat_eta_sd               =   2.3360382716802E-07
(PID.TID 0000.0001) %MON dynstat_eta_del2             =   6.5353696076016E-10
(PID.TID 0000.0001) %MON dynstat_uvel_max             =   1.8290280932573E-07
(PID.TID 0000.0001) %MON dynstat_uvel_min             =  -1.4121808666149E-06
(PID.TID 0000.0001) %MON dynstat_uvel_mean            =   8.4299450714887E-10
(PID.TID 0000.0001) %MON dynstat_uvel_sd              =   9.2705005109210E-08
(PID.TID 0000.0001) %MON dynstat_uvel_del2            =   2.1687026161013E-10
(PID.TID 0000.0001) %MON dynstat_vvel_max             =   5.6046695822903E-06
(PID.TID 0000.0001) %MON dynstat_vvel_min             =  -7.1775497375074E-07
(PID.TID 0000.0001) %MON dynstat_vvel_mean            =  -1.9525049956415E-08
(PID.TID 0000.0001) %MON dynstat_vvel_sd              =   3.3586038684896E-07
(PID.TID 0000.0001) %MON dynstat_vvel_del2            =   6.6939099227501E-10
(PID.TID 0000.0001) %MON dynstat_wvel_max             =   1.2918048271009E-08
(PID.TID 0000.0001) %MON dynstat_wvel_min             =  -1.1579316013232E-08
(PID.TID 0000.0001) %MON dynstat_wvel_mean            =  -1.3005670169241E-11
(PID.TID 0000.0001) %MON dynstat_wvel_sd              =   8.8098631520400E-10
(PID.TID 0000.0001) %MON dynstat_wvel_del2            =   9.5539016188047E-12
(PID.TID 0000.0001) %MON dynstat_theta_max            =  -1.9000000000000E+00
(PID.TID 0000.0001) %MON dynstat_theta_min            =  -1.9013688224855E+00
(PID.TID 0000.0001) %MON dynstat_theta_mean           =  -1.9000228986931E+00
(PID.TID 0000.0001) %MON dynstat_theta_sd             =   1.0695883254265E-04
(PID.TID 0000.0001) %MON dynstat_theta_del2           =   1.1425489207682E-07
(PID.TID 0000.0001) %MON dynstat_salt_max             =   3.4400000000000E+01
(PID.TID 0000.0001) %MON dynstat_salt_min             =   3.4399441399459E+01
(PID.TID 0000.0001) %MON dynstat_salt_mean            =   3.4399990757902E+01
(PID.TID 0000.0001) %MON dynstat_salt_sd              =   4.3397842638797E-05
(PID.TID 0000.0001) %MON dynstat_salt_del2            =   4.6550670649984E-08
(PID.TID 0000.0001) %MON advcfl_uvel_max              =   4.2018601211377E-07
(PID.TID 0000.0001) %MON advcfl_vvel_max              =   9.0741450978816E-07
(PID.TID 0000.0001) %MON advcfl_wvel_max              =   7.7508289626052E-07
(PID.TID 0000.0001) %MON advcfl_W_hf_max              =   1.1606007280281E-06
(PID.TID 0000.0001) %MON pe_b_mean                    =  -1.7880306283958E-10
(PID.TID 0000.0001) %MON ke_max                       =   9.2749721332536E-12
(PID.TID 0000.0001) %MON ke_mean                      =   6.0136097860690E-14
(PID.TID 0000.0001) %MON ke_vol                       =   2.9241705273104E+14
(PID.TID 0000.0001) %MON vort_r_min                   =  -9.4794014489848E-10
(PID.TID 0000.0001) %MON vort_r_max                   =   9.3462256673976E-10
(PID.TID 0000.0001) %MON vort_a_mean                  =  -1.4007437277915E-04
(PID.TID 0000.0001) %MON vort_a_sd                    =   1.7682771382389E-06
(PID.TID 0000.0001) %MON vort_p_mean                  =  -1.5039772194954E-04
(PID.TID 0000.0001) %MON vort_p_sd                    =   8.7081200714151E-05
(PID.TID 0000.0001) %MON surfExpan_theta_mean         =  -1.6195843311924E-14
(PID.TID 0000.0001) %MON surfExpan_salt_mean          =  -6.6802065831865E-15
(PID.TID 0000.0001) // =======================================================
(PID.TID 0000.0001) // End MONITOR dynamic field statistics
(PID.TID 0000.0001) // =======================================================
 cg2d: Sum(rhs),rhsMax =  -7.63833440942108E-14  7.69533608159592E-07
(PID.TID 0000.0001)                    cg2d_init_res =    5.96080346141055E+00
(PID.TID 0000.0001)                       cg2d_iters =   218
(PID.TID 0000.0001)                         cg2d_res =    9.68574521094231E-14
(PID.TID 0000.0001) // =======================================================
(PID.TID 0000.0001) // Begin MONITOR dynamic field statistics
(PID.TID 0000.0001) // =======================================================
(PID.TID 0000.0001) %MON time_tsnumber                =                     3
(PID.TID 0000.0001) %MON time_secondsf                =   5.4000000000000E+03
(PID.TID 0000.0001) %MON dynstat_eta_max              =   1.4792028474251E-06
(PID.TID 0000.0001) %MON dynstat_eta_min              =  -1.8153997942165E-06
(PID.TID 0000.0001) %MON dynstat_eta_mean             =   2.8282244662233E-22
(PID.TID 0000.0001) %MON dynstat_eta_sd               =   5.7548998156068E-07
(PID.TID 0000.0001) %MON dynstat_eta_del2             =   1.0361897017849E-09
(PID.TID 0000.0001) %MON dynstat_uvel_max             =   6.7168214120850E-07
(PID.TID 0000.0001) %MON dynstat_uvel_min             =  -4.8260052914020E-06
(PID.TID 0000.0001) %MON dynstat_uvel_mean            =   2.3501005146209E-09
(PID.TID 0000.0001) %MON dynstat_uvel_sd              =   3.2291901541149E-07
(PID.TID 0000.0001) %MON dynstat_uvel_del2            =   7.3756808642854E-10
(PID.TID 0000.0001) %MON dynstat_vvel_max             =   1.3890469869279E-05
(PID.TID 0000.0001) %MON dynstat_vvel_min             =  -1.8687089315364E-06
(PID.TID 0000.0001) %MON dynstat_vvel_mean            =  -4.6762954340687E-08
(PID.TID 0000.0001) %MON dynstat_vvel_sd              =   8.4089476874131E-07
(PID.TID 0000.0001) %MON dynstat_vvel_del2            =   1.6585947600178E-09
(PID.TID 0000.0001) %MON dynstat_wvel_max             =   3.5484279639015E-08
(PID.TID 0000.0001) %MON dynstat_wvel_min             =  -3.4410192863590E-08
(PID.TID 0000.0001) %MON dynstat_wvel_mean            =  -2.7055668324247E-11
(PID.TID 0000.0001) %MON dynstat_wvel_sd              =   2.2326726088140E-09
(PID.TID 0000.0001) %MON dynstat_wvel_del2            =   2.3681191324379E-11
(PID.TID 0000.0001) %MON dynstat_theta_max            =  -1.9000000000000E+00
(PID.TID 0000.0001) %MON dynstat_theta_min            =  -1.9020515257556E+00
(PID.TID 0000.0001) %MON dynstat_theta_mean           =  -1.9000343261924E+00
(PID.TID 0000.0001) %MON dynstat_theta_sd             =   1.6029883427911E-04
(PID.TID 0000.0001) %MON dynstat_theta_del2           =   1.7095641481244E-07
(PID.TID 0000.0001) %MON dynstat_salt_max             =   3.4400000000000E+01
(PID.TID 0000.0001) %MON dynstat_salt_min             =   3.4399162799589E+01
(PID.TID 0000.0001) %MON dynstat_salt_mean            =   3.4399986145807E+01
(PID.TID 0000.0001) %MON dynstat_salt_sd              =   6.5039607776439E-05
(PID.TID 0000.0001) %MON dynstat_salt_del2            =   6.9652023944284E-08
(PID.TID 0000.0001) %MON advcfl_uvel_max              =   1.4359491519631E-06
(PID.TID 0000.0001) %MON advcfl_vvel_max              =   2.2489129327064E-06
(PID.TID 0000.0001) %MON advcfl_wvel_max              =   2.1290567783409E-06
(PID.TID 0000.0001) %MON advcfl_W_hf_max              =   2.9053578283412E-06
(PID.TID 0000.0001) %MON pe_b_mean                    =  -4.9070541943289E-10
(PID.TID 0000.0001) %MON ke_max                       =   6.2738432899896E-11
(PID.TID 0000.0001) %MON ke_mean                      =   4.0155265835852E-13
(PID.TID 0000.0001) %MON ke_vol                       =   2.9241705273104E+14
(PID.TID 0000.0001) %MON vort_r_min                   =  -2.3517859868469E-09
(PID.TID 0000.0001) %MON vort_r_max                   =   2.3169759170173E-09
(PID.TID 0000.0001) %MON vort_a_mean                  =  -1.4007437277895E-04
(PID.TID 0000.0001) %MON vort_a_sd                    =   1.7682771188256E-06
(PID.TID 0000.0001) %MON vort_p_mean                  =  -1.5039772194933E-04
(PID.TID 0000.0001) %MON vort_p_sd                    =   8.7081167528876E-05
(PID.TID 0000.0001) %MON surfExpan_theta_mean         =  -5.1617343117318E-14
(PID.TID 0000.0001) %MON surfExpan_salt_mean          =  -2.1270031692971E-14
(PID.TID 0000.0001) // =======================================================
(PID.TID 0000.0001) // End MONITOR dynamic field statistics
(PID.TID 0000.0001) // =======================================================
 cg2d: Sum(rhs),rhsMax =  -8.52651282912120E-14  1.10190772268565E-06
(PID.TID 0000.0001)                    cg2d_init_res =    4.03793281858241E+00
(PID.TID 0000.0001)                       cg2d_iters =   219
(PID.TID 0000.0001)                         cg2d_res =    8.34526636932022E-14
(PID.TID 0000.0001) // =======================================================
(PID.TID 0000.0001) // Begin MONITOR dynamic field statistics
(PID.TID 0000.0001) // =======================================================
(PID.TID 0000.0001) %MON time_tsnumber                =                     4
(PID.TID 0000.0001) %MON time_secondsf                =   7.2000000000000E+03
(PID.TID 0000.0001) %MON dynstat_eta_max              =   2.6028221238537E-06
(PID.TID 0000.0001) %MON dynstat_eta_min              =  -2.2361069482966E-06
(PID.TID 0000.0001) %MON dynstat_eta_mean             =   4.3255197718709E-22
(PID.TID 0000.0001) %MON dynstat_eta_sd               =   9.8052079086694E-07
(PID.TID 0000.0001) %MON dynstat_eta_del2             =   1.4071599741977E-09
(PID.TID 0000.0001) %MON dynstat_uvel_max             =   1.5301311472939E-06
(PID.TID 0000.0001) %MON dynstat_uvel_min             =  -1.0722526535993E-05
(PID.TID 0000.0001) %MON dynstat_uvel_mean            =   3.6886417464850E-09
(PID.TID 0000.0001) %MON dynstat_uvel_sd              =   7.2593069081285E-07
(PID.TID 0000.0001) %MON dynstat_uvel_del2            =   1.6333697332894E-09
(PID.TID 0000.0001) %MON dynstat_vvel_max             =   2.4233055944919E-05
(PID.TID 0000.0001) %MON dynstat_vvel_min             =  -3.3458355201737E-06
(PID.TID 0000.0001) %MON dynstat_vvel_mean            =  -7.6337651523625E-08
(PID.TID 0000.0001) %MON dynstat_vvel_sd              =   1.4751806927176E-06
(PID.TID 0000.0001) %MON dynstat_vvel_del2            =   2.8871551112511E-09
(PID.TID 0000.0001) %MON dynstat_wvel_max             =   6.8175182387635E-08
(PID.TID 0000.0001) %MON dynstat_wvel_min             =  -6.9607677975530E-08
(PID.TID 0000.0001) %MON dynstat_wvel_mean            =  -3.9404551176150E-11
(PID.TID 0000.0001) %MON dynstat_wvel_sd              =   3.9989882818943E-09
(PID.TID 0000.0001) %MON dynstat_wvel_del2            =   4.1249218039502E-11
(PID.TID 0000.0001) %MON dynstat_theta_max            =  -1.9000000000000E+00
(PID.TID 0000.0001) %MON dynstat_theta_min            =  -1.9027332830425E+00
(PID.TID 0000.0001) %MON dynstat_theta_mean           =  -1.9000457415868E+00
(PID.TID 0000.0001) %MON dynstat_theta_sd             =   2.1356165943443E-04
(PID.TID 0000.0001) %MON dynstat_theta_del2           =   2.2742339843715E-07
(PID.TID 0000.0001) %MON dynstat_salt_max             =   3.4400000000000E+01
(PID.TID 0000.0001) %MON dynstat_salt_min             =   3.4398884587637E+01
(PID.TID 0000.0001) %MON dynstat_salt_mean            =   3.4399981538674E+01
(PID.TID 0000.0001) %MON dynstat_salt_sd              =   8.6649732949865E-05
(PID.TID 0000.0001) %MON dynstat_salt_del2            =   9.2657573801304E-08
(PID.TID 0000.0001) %MON advcfl_uvel_max              =   3.1904239545056E-06
(PID.TID 0000.0001) %MON advcfl_vvel_max              =   3.9234117655054E-06
(PID.TID 0000.0001) %MON advcfl_wvel_max              =   4.1764606785318E-06
(PID.TID 0000.0001) %MON advcfl_W_hf_max              =   5.7129921160168E-06
(PID.TID 0000.0001) %MON pe_b_mean                    =  -8.9970013487781E-10
(PID.TID 0000.0001) %MON ke_max                       =   2.1348507900155E-10
(PID.TID 0000.0001) %MON ke_mean                      =   1.3362824891432E-12
(PID.TID 0000.0001) %MON ke_vol                       =   2.9241705273104E+14
(PID.TID 0000.0001) %MON vort_r_min                   =  -4.1028821865691E-09
(PID.TID 0000.0001) %MON vort_r_max                   =   4.0382653476878E-09
(PID.TID 0000.0001) %MON vort_a_mean                  =  -1.4007437277813E-04
(PID.TID 0000.0001) %MON vort_a_sd                    =   1.7682770804997E-06
(PID.TID 0000.0001) %MON vort_p_mean                  =  -1.5039772194844E-04
(PID.TID 0000.0001) %MON vort_p_sd                    =   8.7081109337794E-05
(PID.TID 0000.0001) %MON surfExpan_theta_mean         =  -1.0125003541425E-13
(PID.TID 0000.0001) %MON surfExpan_salt_mean          =  -4.1702690779111E-14
(PID.TID 0000.0001) // =======================================================
(PID.TID 0000.0001) // End MONITOR dynamic field statistics
(PID.TID 0000.0001) // =======================================================
 cg2d: Sum(rhs),rhsMax =   2.34479102800833E-13  1.47064431400144E-06
(PID.TID 0000.0001)                    cg2d_init_res =    2.97651537273207E+00
(PID.TID 0000.0001)                       cg2d_iters =   218
(PID.TID 0000.0001)                         cg2d_res =    9.92011054821893E-14
(PID.TID 0000.0001) // =======================================================
(PID.TID 0000.0001) // Begin MONITOR dynamic field statistics
(PID.TID 0000.0001) // =======================================================
(PID.TID 0000.0001) %MON time_tsnumber                =                     5
(PID.TID 0000.0001) %MON time_secondsf                =   9.0000000000000E+03
(PID.TID 0000.0001) %MON dynstat_eta_max              =   3.8917326014608E-06
(PID.TID 0000.0001) %MON dynstat_eta_min              =  -2.3968090277032E-06
(PID.TID 0000.0001) %MON dynstat_eta_mean             =   3.3273229014392E-22
(PID.TID 0000.0001) %MON dynstat_eta_sd               =   1.4388666625044E-06
(PID.TID 0000.0001) %MON dynstat_eta_del2             =   1.7675096227021E-09
(PID.TID 0000.0001) %MON dynstat_uvel_max             =   2.7981926138840E-06
(PID.TID 0000.0001) %MON dynstat_uvel_min             =  -1.9404338037414E-05
(PID.TID 0000.0001) %MON dynstat_uvel_mean            =   4.1842086984282E-09
(PID.TID 0000.0001) %MON dynstat_uvel_sd              =   1.3236456794116E-06
(PID.TID 0000.0001) %MON dynstat_uvel_del2            =   2.9438196144711E-09
(PID.TID 0000.0001) %MON dynstat_vvel_max             =   3.5856112648422E-05
(PID.TID 0000.0001) %MON dynstat_vvel_min             =  -5.0360686167698E-06
(PID.TID 0000.0001) %MON dynstat_vvel_mean            =  -1.0297692657067E-07
(PID.TID 0000.0001) %MON dynstat_vvel_sd              =   2.1913114886318E-06
(PID.TID 0000.0001) %MON dynstat_vvel_del2            =   4.2609180150827E-09
(PID.TID 0000.0001) %MON dynstat_wvel_max             =   1.1678704102908E-07
(PID.TID 0000.0001) %MON dynstat_wvel_min             =  -1.1748394471682E-07
(PID.TID 0000.0001) %MON dynstat_wvel_mean            =  -4.8319059058725E-11
(PID.TID 0000.0001) %MON dynstat_wvel_sd              =   6.1123928367797E-09
(PID.TID 0000.0001) %MON dynstat_wvel_del2            =   6.0991345228566E-11
(PID.TID 0000.0001) %MON dynstat_theta_max            =  -1.9000000000000E+00
(PID.TID 0000.0001) %MON dynstat_theta_min            =  -1.9034140960391E+00
(PID.TID 0000.0001) %MON dynstat_theta_mean           =  -1.9000571448944E+00
(PID.TID 0000.0001) %MON dynstat_theta_sd             =   2.6674746374455E-04
(PID.TID 0000.0001) %MON dynstat_theta_del2           =   2.8365702740770E-07
(PID.TID 0000.0001) %MON dynstat_salt_max             =   3.4400000000000E+01
(PID.TID 0000.0001) %MON dynstat_salt_min             =   3.4398606762906E+01
(PID.TID 0000.0001) %MON dynstat_salt_mean            =   3.4399976936494E+01
(PID.TID 0000.0001) %MON dynstat_salt_sd              =   1.0822828220128E-04
(PID.TID 0000.0001) %MON dynstat_salt_del2            =   1.1556780493485E-07
(PID.TID 0000.0001) %MON advcfl_uvel_max              =   5.7736452960114E-06
(PID.TID 0000.0001) %MON advcfl_vvel_max              =   5.8052230205658E-06
(PID.TID 0000.0001) %MON advcfl_wvel_max              =   7.0490366830089E-06
(PID.TID 0000.0001) %MON advcfl_W_hf_max              =   9.4623719333909E-06
(PID.TID 0000.0001) %MON pe_b_mean                    =  -1.3798654625508E-09
(PID.TID 0000.0001) %MON ke_max                       =   5.3069569952710E-10
(PID.TID 0000.0001) %MON ke_mean                      =   3.2360836374946E-12
(PID.TID 0000.0001) %MON ke_vol                       =   2.9241705273104E+14
(PID.TID 0000.0001) %MON vort_r_min                   =  -6.0707739956202E-09
(PID.TID 0000.0001) %MON vort_r_max                   =   5.9674391920331E-09
(PID.TID 0000.0001) %MON vort_a_mean                  =  -1.4007437277589E-04
(PID.TID 0000.0001) %MON vort_a_sd                    =   1.7682770261108E-06
(PID.TID 0000.0001) %MON vort_p_mean                  =  -1.5039772194604E-04
(PID.TID 0000.0001) %MON vort_p_sd                    =   8.7081022972801E-05
(PID.TID 0000.0001) %MON surfExpan_theta_mean         =  -1.5568721689208E-13
(PID.TID 0000.0001) %MON surfExpan_salt_mean          =  -6.4113522835789E-14
(PID.TID 0000.0001) // =======================================================
(PID.TID 0000.0001) // End MONITOR dynamic field statistics
(PID.TID 0000.0001) // =======================================================
 cg2d: Sum(rhs),rhsMax =  -1.06581410364015E-13  1.87474622545759E-06
(PID.TID 0000.0001)                    cg2d_init_res =    2.31108926413249E+00
(PID.TID 0000.0001)                       cg2d_iters =   217
(PID.TID 0000.0001)                         cg2d_res =    9.85408117481811E-14
(PID.TID 0000.0001) // =======================================================
(PID.TID 0000.0001) // Begin MONITOR dynamic field statistics
(PID.TID 0000.0001) // =======================================================
(PID.TID 0000.0001) %MON time_tsnumber                =                     6
(PID.TID 0000.0001) %MON time_secondsf                =   1.0800000000000E+04
(PID.TID 0000.0001) %MON dynstat_eta_max              =   5.3187724743284E-06
(PID.TID 0000.0001) %MON dynstat_eta_min              =  -2.5067434002087E-06
(PID.TID 0000.0001) %MON dynstat_eta_mean             =  -7.3201103831662E-22
(PID.TID 0000.0001) %MON dynstat_eta_sd               =   1.9402250340177E-06
(PID.TID 0000.0001) %MON dynstat_eta_del2             =   2.1164105523613E-09
(PID.TID 0000.0001) %MON dynstat_uvel_max             =   4.5062568043944E-06
(PID.TID 0000.0001) %MON dynstat_uvel_min             =  -3.0965776778476E-05
(PID.TID 0000.0001) %MON dynstat_uvel_mean            =   3.5622067041588E-09
(PID.TID 0000.0001) %MON dynstat_uvel_sd              =   2.1239182665651E-06
(PID.TID 0000.0001) %MON dynstat_uvel_del2            =   4.6784351157934E-09
(PID.TID 0000.0001) %MON dynstat_vvel_max             =   4.7955654910863E-05
(PID.TID 0000.0001) %MON dynstat_vvel_min             =  -6.8250469417800E-06
(PID.TID 0000.0001) %MON dynstat_vvel_mean            =  -1.2236031574377E-07
(PID.TID 0000.0001) %MON dynstat_vvel_sd              =   2.9387728478075E-06
(PID.TID 0000.0001) %MON dynstat_vvel_del2            =   5.6831228840887E-09
(PID.TID 0000.0001) %MON dynstat_wvel_max             =   1.7838703766717E-07
(PID.TID 0000.0001) %MON dynstat_wvel_min             =  -1.7750836370679E-07
(PID.TID 0000.0001) %MON dynstat_wvel_mean            =  -5.3003582811572E-11
(PID.TID 0000.0001) %MON dynstat_wvel_sd              =   8.5010370848633E-09
(PID.TID 0000.0001) %MON dynstat_wvel_del2            =   8.1612270503056E-11
(PID.TID 0000.0001) %MON dynstat_theta_max            =  -1.9000000000000E+00
(PID.TID 0000.0001) %MON dynstat_theta_min            =  -1.9040939665794E+00
(PID.TID 0000.0001) %MON dynstat_theta_mean           =  -1.9000685361337E+00
(PID.TID 0000.0001) %MON dynstat_theta_sd             =   3.1985640280208E-04
(PID.TID 0000.0001) %MON dynstat_theta_del2           =   3.3965848094470E-07
(PID.TID 0000.0001) %MON dynstat_salt_max             =   3.4400000000000E+01
(PID.TID 0000.0001) %MON dynstat_salt_min             =   3.4398329324640E+01
(PID.TID 0000.0001) %MON dynstat_salt_mean            =   3.4399972339261E+01
(PID.TID 0000.0001) %MON dynstat_salt_sd              =   1.2977531951289E-04
(PID.TID 0000.0001) %MON dynstat_salt_del2            =   1.3838319990803E-07
(PID.TID 0000.0001) %MON advcfl_uvel_max              =   9.2136825842584E-06
(PID.TID 0000.0001) %MON advcfl_vvel_max              =   7.7641788607863E-06
(PID.TID 0000.0001) %MON advcfl_wvel_max              =   1.0703222260030E-05
(PID.TID 0000.0001) %MON advcfl_W_hf_max              =   1.4044987459479E-05
(PID.TID 0000.0001) %MON pe_b_mean                    =  -1.9056622273842E-09
(PID.TID 0000.0001) %MON ke_max                       =   1.0927330401524E-09
(PID.TID 0000.0001) %MON ke_mean                      =   6.4843097643399E-12
(PID.TID 0000.0001) %MON ke_vol                       =   2.9241705273104E+14
(PID.TID 0000.0001) %MON vort_r_min                   =  -8.1193392499177E-09
(PID.TID 0000.0001) %MON vort_r_max                   =   7.9682949205238E-09
(PID.TID 0000.0001) %MON vort_a_mean                  =  -1.4007437277164E-04
(PID.TID 0000.0001) %MON vort_a_sd                    =   1.7682769578622E-06
(PID.TID 0000.0001) %MON vort_p_mean                  =  -1.5039772194148E-04
(PID.TID 0000.0001) %MON vort_p_sd                    =   8.7080907290599E-05
(PID.TID 0000.0001) %MON surfExpan_theta_mean         =  -2.0474369673739E-13
(PID.TID 0000.0001) %MON surfExpan_salt_mean          =  -8.4316811180459E-14
(PID.TID 0000.0001) // =======================================================
(PID.TID 0000.0001) // End MONITOR dynamic field statistics
(PID.TID 0000.0001) // =======================================================
 cg2d: Sum(rhs),rhsMax =   2.13162820728030E-13  2.30235140086791E-06
(PID.TID 0000.0001)                    cg2d_init_res =    1.86908556038827E+00
(PID.TID 0000.0001)                       cg2d_iters =   216
(PID.TID 0000.0001)                         cg2d_res =    9.79595278406203E-14
(PID.TID 0000.0001) // =======================================================
(PID.TID 0000.0001) // Begin MONITOR dynamic field statistics
(PID.TID 0000.0001) // =======================================================
(PID.TID 0000.0001) %MON time_tsnumber                =                     7
(PID.TID 0000.0001) %MON time_secondsf                =   1.2600000000000E+04
(PID.TID 0000.0001) %MON dynstat_eta_max              =   6.8246393206077E-06
(PID.TID 0000.0001) %MON dynstat_eta_min              =  -2.7229698517082E-06
(PID.TID 0000.0001) %MON dynstat_eta_mean             =  -1.3309291605757E-22
(PID.TID 0000.0001) %MON dynstat_eta_sd               =   2.4632386881411E-06
(PID.TID 0000.0001) %MON dynstat_eta_del2             =   2.4538004957325E-09
(PID.TID 0000.0001) %MON dynstat_uvel_max             =   6.6703625708282E-06
(PID.TID 0000.0001) %MON dynstat_uvel_min             =  -4.5297923720049E-05
(PID.TID 0000.0001) %MON dynstat_uvel_mean            =   1.9787849690713E-09
(PID.TID 0000.0001) %MON dynstat_uvel_sd              =   3.1208189037244E-06
(PID.TID 0000.0001) %MON dynstat_uvel_del2            =   6.8182055756639E-09
(PID.TID 0000.0001) %MON dynstat_vvel_max             =   5.9748174549055E-05
(PID.TID 0000.0001) %MON dynstat_vvel_min             =  -8.6043161247520E-06
(PID.TID 0000.0001) %MON dynstat_vvel_mean            =  -1.3174547118309E-07
(PID.TID 0000.0001) %MON dynstat_vvel_sd              =   3.6674530152613E-06
(PID.TID 0000.0001) %MON dynstat_vvel_del2            =   7.0609096171298E-09
(PID.TID 0000.0001) %MON dynstat_wvel_max             =   2.5180309350750E-07
(PID.TID 0000.0001) %MON dynstat_wvel_min             =  -2.4839328300748E-07
(PID.TID 0000.0001) %MON dynstat_wvel_mean            =  -5.3415116513525E-11
(PID.TID 0000.0001) %MON dynstat_wvel_sd              =   1.1093006073400E-08
(PID.TID 0000.0001) %MON dynstat_wvel_del2            =   1.0188716042616E-10
(PID.TID 0000.0001) %MON dynstat_theta_max            =  -1.9000000000000E+00
(PID.TID 0000.0001) %MON dynstat_theta_min            =  -1.9047728966712E+00
(PID.TID 0000.0001) %MON dynstat_theta_mean           =  -1.9000799153228E+00
(PID.TID 0000.0001) %MON dynstat_theta_sd             =   3.7288863198361E-04
(PID.TID 0000.0001) %MON dynstat_theta_del2           =   3.9542892828668E-07
(PID.TID 0000.0001) %MON dynstat_salt_max             =   3.4400000000000E+01
(PID.TID 0000.0001) %MON dynstat_salt_min             =   3.4398052272013E+01
(PID.TID 0000.0001) %MON dynstat_salt_mean            =   3.4399967746968E+01
(PID.TID 0000.0001) %MON dynstat_salt_sd              =   1.5129090877750E-04
(PID.TID 0000.0001) %MON dynstat_salt_del2            =   1.6110423719704E-07
(PID.TID 0000.0001) %MON advcfl_uvel_max              =   1.3478127607397E-05
(PID.TID 0000.0001) %MON advcfl_vvel_max              =   9.6734267244729E-06
(PID.TID 0000.0001) %MON advcfl_wvel_max              =   1.5108185610450E-05
(PID.TID 0000.0001) %MON advcfl_W_hf_max              =   1.9337916457831E-05
(PID.TID 0000.0001) %MON pe_b_mean                    =  -2.4476169833133E-09
(PID.TID 0000.0001) %MON ke_max                       =   1.9774633644940E-09
(PID.TID 0000.0001) %MON ke_mean                      =   1.1424986844305E-11
(PID.TID 0000.0001) %MON ke_vol                       =   2.9241705273104E+14
(PID.TID 0000.0001) %MON vort_r_min                   =  -1.0115922712948E-08
(PID.TID 0000.0001) %MON vort_r_max                   =   9.9092717733417E-09
(PID.TID 0000.0001) %MON vort_a_mean                  =  -1.4007437276543E-04
(PID.TID 0000.0001) %MON vort_a_sd                    =   1.7682768771705E-06
(PID.TID 0000.0001) %MON vort_p_mean                  =  -1.5039772193481E-04
(PID.TID 0000.0001) %MON vort_p_sd                    =   8.7080763136053E-05
(PID.TID 0000.0001) %MON surfExpan_theta_mean         =  -2.3992170578922E-13
(PID.TID 0000.0001) %MON surfExpan_salt_mean          =  -9.8815853771744E-14
(PID.TID 0000.0001) // =======================================================
(PID.TID 0000.0001) // End MONITOR dynamic field statistics
(PID.TID 0000.0001) // =======================================================
 cg2d: Sum(rhs),rhsMax =  -2.55795384873636E-13  2.74133660850692E-06
(PID.TID 0000.0001)                    cg2d_init_res =    1.55880147933052E+00
(PID.TID 0000.0001)                       cg2d_iters =   215
(PID.TID 0000.0001)                         cg2d_res =    9.75646885782282E-14
(PID.TID 0000.0001) // =======================================================
(PID.TID 0000.0001) // Begin MONITOR dynamic field statistics
(PID.TID 0000.0001) // =======================================================
(PID.TID 0000.0001) %MON time_tsnumber                =                     8
(PID.TID 0000.0001) %MON time_secondsf                =   1.4400000000000E+04
(PID.TID 0000.0001) %MON dynstat_eta_max              =   8.3230497996329E-06
(PID.TID 0000.0001) %MON dynstat_eta_min              =  -3.1143595250318E-06
(PID.TID 0000.0001) %MON dynstat_eta_mean             =  -3.0611370693240E-21
(PID.TID 0000.0001) %MON dynstat_eta_sd               =   2.9795439647149E-06
(PID.TID 0000.0001) %MON dynstat_eta_del2             =   2.7798098470157E-09
(PID.TID 0000.0001) %MON dynstat_uvel_max             =   9.2306305643351E-06
(PID.TID 0000.0001) %MON dynstat_uvel_min             =  -6.2112436475357E-05
(PID.TID 0000.0001) %MON dynstat_uvel_mean            =  -8.7243760594009E-11
(PID.TID 0000.0001) %MON dynstat_uvel_sd              =   4.2957483518693E-06
(PID.TID 0000.0001) %MON dynstat_uvel_del2            =   9.3189528699919E-09
(PID.TID 0000.0001) %MON dynstat_vvel_max             =   7.0521193712999E-05
(PID.TID 0000.0001) %MON dynstat_vvel_min             =  -1.0275596933105E-05
(PID.TID 0000.0001) %MON dynstat_vvel_mean            =  -1.3022241014240E-07
(PID.TID 0000.0001) %MON dynstat_vvel_sd              =   4.3309086693902E-06
(PID.TID 0000.0001) %MON dynstat_vvel_del2            =   8.3110372754712E-09
(PID.TID 0000.0001) %MON dynstat_wvel_max             =   3.3518660171571E-07
(PID.TID 0000.0001) %MON dynstat_wvel_min             =  -3.2823514726331E-07
(PID.TID 0000.0001) %MON dynstat_wvel_mean            =  -5.0016826029772E-11
(PID.TID 0000.0001) %MON dynstat_wvel_sd              =   1.3818922323561E-08
(PID.TID 0000.0001) %MON dynstat_wvel_del2            =   1.2073974620079E-10
(PID.TID 0000.0001) %MON dynstat_theta_max            =  -1.9000000000000E+00
(PID.TID 0000.0001) %MON dynstat_theta_min            =  -1.9054508885115E+00
(PID.TID 0000.0001) %MON dynstat_theta_mean           =  -1.9000912824799E+00
(PID.TID 0000.0001) %MON dynstat_theta_sd             =   4.2584430634258E-04
(PID.TID 0000.0001) %MON dynstat_theta_del2           =   4.5096952454855E-07
(PID.TID 0000.0001) %MON dynstat_salt_max             =   3.4400000000000E+01
(PID.TID 0000.0001) %MON dynstat_salt_min             =   3.4397775604122E+01
(PID.TID 0000.0001) %MON dynstat_salt_mean            =   3.4399963159606E+01
(PID.TID 0000.0001) %MON dynstat_salt_sd              =   1.7277511375474E-04
(PID.TID 0000.0001) %MON dynstat_salt_del2            =   1.8373138950290E-07
(PID.TID 0000.0001) %MON advcfl_uvel_max              =   1.8481185804344E-05
(PID.TID 0000.0001) %MON advcfl_vvel_max              =   1.1417614095389E-05
(PID.TID 0000.0001) %MON advcfl_wvel_max              =   2.0111196102943E-05
(PID.TID 0000.0001) %MON advcfl_W_hf_max              =   2.5181515918205E-05
(PID.TID 0000.0001) %MON pe_b_mean                    =  -2.9743544632272E-09
(PID.TID 0000.0001) %MON ke_max                       =   3.2511581726853E-09
(PID.TID 0000.0001) %MON ke_mean                      =   1.8314925377770E-11
(PID.TID 0000.0001) %MON ke_vol                       =   2.9241705273104E+14
(PID.TID 0000.0001) %MON vort_r_min                   =  -1.1939895245499E-08
(PID.TID 0000.0001) %MON vort_r_max                   =   1.1671923503265E-08
(PID.TID 0000.0001) %MON vort_a_mean                  =  -1.4007437275809E-04
(PID.TID 0000.0001) %MON vort_a_sd                    =   1.7682767834330E-06
(PID.TID 0000.0001) %MON vort_p_mean                  =  -1.5039772192693E-04
(PID.TID 0000.0001) %MON vort_p_sd                    =   8.7080593167783E-05
(PID.TID 0000.0001) %MON surfExpan_theta_mean         =  -2.5549226194898E-13
(PID.TID 0000.0001) %MON surfExpan_salt_mean          =  -1.0524936342737E-13
(PID.TID 0000.0001) // =======================================================
(PID.TID 0000.0001) // End MONITOR dynamic field statistics
(PID.TID 0000.0001) // =======================================================
 cg2d: Sum(rhs),rhsMax =  -1.06581410364015E-13  3.18137154122776E-06
(PID.TID 0000.0001)                    cg2d_init_res =    1.33014006589353E+00
(PID.TID 0000.0001)                       cg2d_iters =   215
(PID.TID 0000.0001)                         cg2d_res =    7.93840186566262E-14
(PID.TID 0000.0001) // =======================================================
(PID.TID 0000.0001) // Begin MONITOR dynamic field statistics
(PID.TID 0000.0001) // =======================================================
(PID.TID 0000.0001) %MON time_tsnumber                =                     9
(PID.TID 0000.0001) %MON time_secondsf                =   1.6200000000000E+04
(PID.TID 0000.0001) %MON dynstat_eta_max              =   9.7449909753709E-06
(PID.TID 0000.0001) %MON dynstat_eta_min              =  -3.6882152434208E-06
(PID.TID 0000.0001) %MON dynstat_eta_mean             =  -2.1294866569211E-21
(PID.TID 0000.0001) %MON dynstat_eta_sd               =   3.4604751361796E-06
(PID.TID 0000.0001) %MON dynstat_eta_del2             =   3.0946686788833E-09
(PID.TID 0000.0001) %MON dynstat_uvel_max             =   1.2123570136364E-05
(PID.TID 0000.0001) %MON dynstat_uvel_min             =  -8.0974998801209E-05
(PID.TID 0000.0001) %MON dynstat_uvel_mean            =  -2.0256079491806E-09
(PID.TID 0000.0001) %MON dynstat_uvel_sd              =   5.6192957226845E-06
(PID.TID 0000.0001) %MON dynstat_uvel_del2            =   1.2116153768365E-08
(PID.TID 0000.0001) %MON dynstat_vvel_max             =   7.9676246599758E-05
(PID.TID 0000.0001) %MON dynstat_vvel_min             =  -1.1753967262119E-05
(PID.TID 0000.0001) %MON dynstat_vvel_mean            =  -1.1859340626034E-07
(PID.TID 0000.0001) %MON dynstat_vvel_sd              =   4.8892397367994E-06
(PID.TID 0000.0001) %MON dynstat_vvel_del2            =   9.3645943940817E-09
(PID.TID 0000.0001) %MON dynstat_wvel_max             =   4.2616248651783E-07
(PID.TID 0000.0001) %MON dynstat_wvel_min             =  -4.1467970854531E-07
(PID.TID 0000.0001) %MON dynstat_wvel_mean            =  -4.3566196106183E-11
(PID.TID 0000.0001) %MON dynstat_wvel_sd              =   1.6613831914940E-08
(PID.TID 0000.0001) %MON dynstat_wvel_del2            =   1.3730574758661E-10
(PID.TID 0000.0001) %MON dynstat_theta_max            =  -1.9000000000000E+00
(PID.TID 0000.0001) %MON dynstat_theta_min            =  -1.9061279444840E+00
(PID.TID 0000.0001) %MON dynstat_theta_mean           =  -1.9001026376233E+00
(PID.TID 0000.0001) %MON dynstat_theta_sd             =   4.7872358053283E-04
(PID.TID 0000.0001) %MON dynstat_theta_del2           =   5.0628140757052E-07
(PID.TID 0000.0001) %MON dynstat_salt_max             =   3.4400000000000E+01
(PID.TID 0000.0001) %MON dynstat_salt_min             =   3.4397499319985E+01
(PID.TID 0000.0001) %MON dynstat_salt_mean            =   3.4399958577167E+01
(PID.TID 0000.0001) %MON dynstat_salt_sd              =   1.9422799803940E-04
(PID.TID 0000.0001) %MON dynstat_salt_del2            =   2.0626512246690E-07
(PID.TID 0000.0001) %MON advcfl_uvel_max              =   2.4093628961817E-05
(PID.TID 0000.0001) %MON advcfl_vvel_max              =   1.2899847384140E-05
(PID.TID 0000.0001) %MON advcfl_wvel_max              =   2.5569749191070E-05
(PID.TID 0000.0001) %MON advcfl_W_hf_max              =   3.1390426660484E-05
(PID.TID 0000.0001) %MON pe_b_mean                    =  -3.4570076007591E-09
(PID.TID 0000.0001) %MON ke_max                       =   4.9578158943753E-09
(PID.TID 0000.0001) %MON ke_mean                      =   2.7284789711044E-11
(PID.TID 0000.0001) %MON ke_vol                       =   2.9241705273104E+14
(PID.TID 0000.0001) %MON vort_r_min                   =  -1.3489931010347E-08
(PID.TID 0000.0001) %MON vort_r_max                   =   1.3157776182882E-08
(PID.TID 0000.0001) %MON vort_a_mean                  =  -1.4007437275101E-04
(PID.TID 0000.0001) %MON vort_a_sd                    =   1.7682766754084E-06
(PID.TID 0000.0001) %MON vort_p_mean                  =  -1.5039772191933E-04
(PID.TID 0000.0001) %MON vort_p_sd                    =   8.7080401580581E-05
(PID.TID 0000.0001) %MON surfExpan_theta_mean         =  -2.4872165066569E-13
(PID.TID 0000.0001) %MON surfExpan_salt_mean          =  -1.0248787284493E-13
(PID.TID 0000.0001) // =======================================================
(PID.TID 0000.0001) // End MONITOR dynamic field statistics
(PID.TID 0000.0001) // =======================================================
 cg2d: Sum(rhs),rhsMax =  -6.39488462184090E-14  3.61405603143545E-06
(PID.TID 0000.0001)                    cg2d_init_res =    1.15514083096281E+00
(PID.TID 0000.0001)                       cg2d_iters =   214
(PID.TID 0000.0001)                         cg2d_res =    8.81813240564258E-14
(PID.TID 0000.0001) // =======================================================
(PID.TID 0000.0001) // Begin MONITOR dynamic field statistics
(PID.TID 0000.0001) // =======================================================
(PID.TID 0000.0001) %MON time_tsnumber                =                    10
(PID.TID 0000.0001) %MON time_secondsf                =   1.8000000000000E+04
(PID.TID 0000.0001) %MON dynstat_eta_max              =   1.1057947741667E-05
(PID.TID 0000.0001) %MON dynstat_eta_min              =  -4.4263871202279E-06
(PID.TID 0000.0001) %MON dynstat_eta_mean             =   5.3237166423027E-22
(PID.TID 0000.0001) %MON dynstat_eta_sd               =   3.8826803685345E-06
(PID.TID 0000.0001) %MON dynstat_eta_del2             =   3.3986375576531E-09
(PID.TID 0000.0001) %MON dynstat_uvel_max             =   1.5266630646535E-05
(PID.TID 0000.0001) %MON dynstat_uvel_min             =  -1.0134332533309E-04
(PID.TID 0000.0001) %MON dynstat_uvel_mean            =  -3.2889513742284E-09
(PID.TID 0000.0001) %MON dynstat_uvel_sd              =   7.0536976098100E-06
(PID.TID 0000.0001) %MON dynstat_uvel_del2            =   1.5130746083641E-08
(PID.TID 0000.0001) %MON dynstat_vvel_max             =   8.6761114310516E-05
(PID.TID 0000.0001) %MON dynstat_vvel_min             =  -1.2971168666779E-05
(PID.TID 0000.0001) %MON dynstat_vvel_mean            =  -9.8999995533146E-08
(PID.TID 0000.0001) %MON dynstat_vvel_sd              =   5.3114008420596E-06
(PID.TID 0000.0001) %MON dynstat_vvel_del2            =   1.0170450613711E-08
(PID.TID 0000.0001) %MON dynstat_wvel_max             =   5.2202141749461E-07
(PID.TID 0000.0001) %MON dynstat_wvel_min             =  -5.0510264826033E-07
(PID.TID 0000.0001) %MON dynstat_wvel_mean            =  -3.4984110741015E-11
(PID.TID 0000.0001) %MON dynstat_wvel_sd              =   1.9418545356260E-08
(PID.TID 0000.0001) %MON dynstat_wvel_del2            =   1.5097848875478E-10
(PID.TID 0000.0001) %MON dynstat_theta_max            =  -1.9000000000000E+00
(PID.TID 0000.0001) %MON dynstat_theta_min            =  -1.9068040671358E+00
(PID.TID 0000.0001) %MON dynstat_theta_mean           =  -1.9001139807711E+00
(PID.TID 0000.0001) %MON dynstat_theta_sd             =   5.3152660875704E-04
(PID.TID 0000.0001) %MON dynstat_theta_del2           =   5.6136569591339E-07
(PID.TID 0000.0001) %MON dynstat_salt_max             =   3.4400000000000E+01
(PID.TID 0000.0001) %MON dynstat_salt_min             =   3.4397223418558E+01
(PID.TID 0000.0001) %MON dynstat_salt_mean            =   3.4399953999646E+01
(PID.TID 0000.0001) %MON dynstat_salt_sd              =   2.1564962504049E-04
(PID.TID 0000.0001) %MON dynstat_salt_del2            =   2.2870589385451E-07
(PID.TID 0000.0001) %MON advcfl_uvel_max              =   3.0154103297074E-05
(PID.TID 0000.0001) %MON advcfl_vvel_max              =   1.4046910857960E-05
(PID.TID 0000.0001) %MON advcfl_wvel_max              =   3.1321285049677E-05
(PID.TID 0000.0001) %MON advcfl_W_hf_max              =   3.7767859465659E-05
(PID.TID 0000.0001) %MON pe_b_mean                    =  -3.8731081082226E-09
(PID.TID 0000.0001) %MON ke_max                       =   7.1108763033834E-09
(PID.TID 0000.0001) %MON ke_mean                      =   3.8314119891515E-11
(PID.TID 0000.0001) %MON ke_vol                       =   2.9241705273104E+14
(PID.TID 0000.0001) %MON vort_r_min                   =  -1.4689465133931E-08
(PID.TID 0000.0001) %MON vort_r_max                   =   1.4293374850820E-08
(PID.TID 0000.0001) %MON vort_a_mean                  =  -1.4007437274559E-04
(PID.TID 0000.0001) %MON vort_a_sd                    =   1.7682765516229E-06
(PID.TID 0000.0001) %MON vort_p_mean                  =  -1.5039772191350E-04
(PID.TID 0000.0001) %MON vort_p_sd                    =   8.7080193755480E-05
(PID.TID 0000.0001) %MON surfExpan_theta_mean         =  -2.1985884124946E-13
(PID.TID 0000.0001) %MON surfExpan_salt_mean          =  -9.0630660768224E-14
(PID.TID 0000.0001) // =======================================================
(PID.TID 0000.0001) // End MONITOR dynamic field statistics
(PID.TID 0000.0001) // =======================================================
 cg2d: Sum(rhs),rhsMax =   1.49213974509621E-13  4.03315662188418E-06
(PID.TID 0000.0001)                    cg2d_init_res =    1.01725908949326E+00
(PID.TID 0000.0001)                       cg2d_iters =   213
(PID.TID 0000.0001)                         cg2d_res =    9.52119026928790E-14
(PID.TID 0000.0001) // =======================================================
(PID.TID 0000.0001) // Begin MONITOR dynamic field statistics
(PID.TID 0000.0001) // =======================================================
(PID.TID 0000.0001) %MON time_tsnumber                =                    11
(PID.TID 0000.0001) %MON time_secondsf                =   1.9800000000000E+04
(PID.TID 0000.0001) %MON dynstat_eta_max              =   1.2175549271849E-05
(PID.TID 0000.0001) %MON dynstat_eta_min              =  -5.3048112986085E-06
(PID.TID 0000.0001) %MON dynstat_eta_mean             =   3.9927874817270E-21
(PID.TID 0000.0001) %MON dynstat_eta_sd               =   4.2317995830012E-06
(PID.TID 0000.0001) %MON dynstat_eta_del2             =   3.6919787589828E-09
(PID.TID 0000.0001) %MON dynstat_uvel_max             =   1.8564646275503E-05
(PID.TID 0000.0001) %MON dynstat_uvel_min             =  -1.2260830543447E-04
(PID.TID 0000.0001) %MON dynstat_uvel_mean            =  -3.5216066751975E-09
(PID.TID 0000.0001) %MON dynstat_uvel_sd              =   8.5557188078613E-06
(PID.TID 0000.0001) %MON dynstat_uvel_del2            =   1.8275434234803E-08
(PID.TID 0000.0001) %MON dynstat_vvel_max             =   9.1489811824007E-05
(PID.TID 0000.0001) %MON dynstat_vvel_min             =  -1.3878728430060E-05
(PID.TID 0000.0001) %MON dynstat_vvel_mean            =  -7.4434619252946E-08
(PID.TID 0000.0001) %MON dynstat_vvel_sd              =   5.5768210697507E-06
(PID.TID 0000.0001) %MON dynstat_vvel_del2            =   1.0697318832559E-08
(PID.TID 0000.0001) %MON dynstat_wvel_max             =   6.1992712181676E-07
(PID.TID 0000.0001) %MON dynstat_wvel_min             =  -5.9679656560197E-07
(PID.TID 0000.0001) %MON dynstat_wvel_mean            =  -2.5282854307862E-11
(PID.TID 0000.0001) %MON dynstat_wvel_sd              =   2.2180525698688E-08
(PID.TID 0000.0001) %MON dynstat_wvel_del2            =   1.6143468137273E-10
(PID.TID 0000.0001) %MON dynstat_theta_max            =  -1.9000000000000E+00
(PID.TID 0000.0001) %MON dynstat_theta_min            =  -1.9074792591366E+00
(PID.TID 0000.0001) %MON dynstat_theta_mean           =  -1.9001253119416E+00
(PID.TID 0000.0001) %MON dynstat_theta_sd             =   5.8425354472254E-04
(PID.TID 0000.0001) %MON dynstat_theta_del2           =   6.1622348814591E-07
(PID.TID 0000.0001) %MON dynstat_salt_max             =   3.4400000000000E+01
(PID.TID 0000.0001) %MON dynstat_salt_min             =   3.4396947898743E+01
(PID.TID 0000.0001) %MON dynstat_salt_mean            =   3.4399949427034E+01
(PID.TID 0000.0001) %MON dynstat_salt_sd              =   2.3704005796299E-04
(PID.TID 0000.0001) %MON dynstat_salt_del2            =   2.5105415326522E-07
(PID.TID 0000.0001) %MON advcfl_uvel_max              =   3.6481371565407E-05
(PID.TID 0000.0001) %MON advcfl_vvel_max              =   1.4812502597694E-05
(PID.TID 0000.0001) %MON advcfl_wvel_max              =   3.7195627309006E-05
(PID.TID 0000.0001) %MON advcfl_W_hf_max              =   4.4120500117826E-05
(PID.TID 0000.0001) %MON pe_b_mean                    =  -4.2090204095391E-09
(PID.TID 0000.0001) %MON ke_max                       =   9.6882025845789E-09
(PID.TID 0000.0001) %MON ke_mean                      =   5.1223600376127E-11
(PID.TID 0000.0001) %MON ke_vol                       =   2.9241705273104E+14
(PID.TID 0000.0001) %MON vort_r_min                   =  -1.5490077687209E-08
(PID.TID 0000.0001) %MON vort_r_max                   =   1.5033360888843E-08
(PID.TID 0000.0001) %MON vort_a_mean                  =  -1.4007437274286E-04
(PID.TID 0000.0001) %MON vort_a_sd                    =   1.7682764134287E-06
(PID.TID 0000.0001) %MON vort_p_mean                  =  -1.5039772191058E-04
(PID.TID 0000.0001) %MON vort_p_sd                    =   8.7079975860687E-05
(PID.TID 0000.0001) %MON surfExpan_theta_mean         =  -1.7211390805495E-13
(PID.TID 0000.0001) %MON surfExpan_salt_mean          =  -7.0997425334520E-14
(PID.TID 0000.0001) // =======================================================
(PID.TID 0000.0001) // End MONITOR dynamic field statistics
(PID.TID 0000.0001) // =======================================================
 cg2d: Sum(rhs),rhsMax =  -2.13162820728030E-13  4.43487768775946E-06
(PID.TID 0000.0001)                    cg2d_init_res =    9.06044013957989E-01
(PID.TID 0000.0001)                       cg2d_iters =   213
(PID.TID 0000.0001)                         cg2d_res =    8.35509998770153E-14
(PID.TID 0000.0001) // =======================================================
(PID.TID 0000.0001) // Begin MONITOR dynamic field statistics
(PID.TID 0000.0001) // =======================================================
(PID.TID 0000.0001) %MON time_tsnumber                =                    12
(PID.TID 0000.0001) %MON time_secondsf                =   2.1600000000000E+04
(PID.TID 0000.0001) %MON dynstat_eta_max              =   1.3100472939723E-05
(PID.TID 0000.0001) %MON dynstat_eta_min              =  -6.2965714750454E-06
(PID.TID 0000.0001) %MON dynstat_eta_mean             =  -3.9927874817270E-21
(PID.TID 0000.0001) %MON dynstat_eta_sd               =   4.5040167079367E-06
(PID.TID 0000.0001) %MON dynstat_eta_del2             =   3.9749608615075E-09
(PID.TID 0000.0001) %MON dynstat_uvel_max             =   2.1916851848080E-05
(PID.TID 0000.0001) %MON dynstat_uvel_min             =  -1.4413616224851E-04
(PID.TID 0000.0001) %MON dynstat_uvel_mean            =  -2.5993340063993E-09
(PID.TID 0000.0001) %MON dynstat_uvel_sd              =   1.0079750914744E-05
(PID.TID 0000.0001) %MON dynstat_uvel_del2            =   2.1461034719493E-08
(PID.TID 0000.0001) %MON dynstat_vvel_max             =   9.3750121883711E-05
(PID.TID 0000.0001) %MON dynstat_vvel_min             =  -1.4450121047489E-05
(PID.TID 0000.0001) %MON dynstat_vvel_mean            =  -4.8234725932414E-08
(PID.TID 0000.0001) %MON dynstat_vvel_sd              =   5.6762612662086E-06
(PID.TID 0000.0001) %MON dynstat_vvel_del2            =   1.0934394957246E-08
(PID.TID 0000.0001) %MON dynstat_wvel_max             =   7.1711541755307E-07
(PID.TID 0000.0001) %MON dynstat_wvel_min             =  -6.8715146085943E-07
(PID.TID 0000.0001) %MON dynstat_wvel_mean            =  -1.5507590674221E-11
(PID.TID 0000.0001) %MON dynstat_wvel_sd              =   2.4854382279474E-08
(PID.TID 0000.0001) %MON dynstat_wvel_del2            =   1.6863930377402E-10
(PID.TID 0000.0001) %MON dynstat_theta_max            =  -1.9000000000000E+00
(PID.TID 0000.0001) %MON dynstat_theta_min            =  -1.9081535232262E+00
(PID.TID 0000.0001) %MON dynstat_theta_mean           =  -1.9001366311527E+00
(PID.TID 0000.0001) %MON dynstat_theta_sd             =   6.3690454159731E-04
(PID.TID 0000.0001) %MON dynstat_theta_del2           =   6.7085586347941E-07
(PID.TID 0000.0001) %MON dynstat_salt_max             =   3.4400000000000E+01
(PID.TID 0000.0001) %MON dynstat_salt_min             =   3.4396672759417E+01
(PID.TID 0000.0001) %MON dynstat_salt_mean            =   3.4399944859323E+01
(PID.TID 0000.0001) %MON dynstat_salt_sd              =   2.5839935978932E-04
(PID.TID 0000.0001) %MON dynstat_salt_del2            =   2.7331034239221E-07
(PID.TID 0000.0001) %MON advcfl_uvel_max              =   4.2886857235051E-05
(PID.TID 0000.0001) %MON advcfl_vvel_max              =   1.5178454259015E-05
(PID.TID 0000.0001) %MON advcfl_wvel_max              =   4.3026925053184E-05
(PID.TID 0000.0001) %MON advcfl_W_hf_max              =   5.0271869535418E-05
(PID.TID 0000.0001) %MON pe_b_mean                    =  -4.4609291916816E-09
(PID.TID 0000.0001) %MON ke_max                       =   1.2631984884726E-08
(PID.TID 0000.0001) %MON ke_mean                      =   6.5685657711352E-11
(PID.TID 0000.0001) %MON ke_vol                       =   2.9241705273104E+14
(PID.TID 0000.0001) %MON vort_r_min                   =  -1.5872769242956E-08
(PID.TID 0000.0001) %MON vort_r_max                   =   1.5361507167414E-08
(PID.TID 0000.0001) %MON vort_a_mean                  =  -1.4007437274329E-04
(PID.TID 0000.0001) %MON vort_a_sd                    =   1.7682762630372E-06
(PID.TID 0000.0001) %MON vort_p_mean                  =  -1.5039772191104E-04
(PID.TID 0000.0001) %MON vort_p_sd                    =   8.7079754423762E-05
(PID.TID 0000.0001) %MON surfExpan_theta_mean         =  -1.1150581929160E-13
(PID.TID 0000.0001) %MON surfExpan_salt_mean          =  -4.6065281045991E-14
(PID.TID 0000.0001) // =======================================================
(PID.TID 0000.0001) // End MONITOR dynamic field statistics
(PID.TID 0000.0001) // =======================================================
 cg2d: Sum(rhs),rhsMax =   2.84217094304040E-14  4.81789905189381E-06
(PID.TID 0000.0001)                    cg2d_init_res =    8.14611865659841E-01
(PID.TID 0000.0001)                       cg2d_iters =   213
(PID.TID 0000.0001)                         cg2d_res =    7.81525721547411E-14
(PID.TID 0000.0001) // =======================================================
(PID.TID 0000.0001) // Begin MONITOR dynamic field statistics
(PID.TID 0000.0001) // =======================================================
(PID.TID 0000.0001) %MON time_tsnumber                =                    13
(PID.TID 0000.0001) %MON time_secondsf                =   2.3400000000000E+04
(PID.TID 0000.0001) %MON dynstat_eta_max              =   1.3867524460063E-05
(PID.TID 0000.0001) %MON dynstat_eta_min              =  -7.3681175609875E-06
(PID.TID 0000.0001) %MON dynstat_eta_mean             =   1.8633008248059E-21
(PID.TID 0000.0001) %MON dynstat_eta_sd               =   4.7056602557316E-06
(PID.TID 0000.0001) %MON dynstat_eta_del2             =   4.2478722089030E-09
(PID.TID 0000.0001) %MON dynstat_uvel_max             =   2.5223868938497E-05
(PID.TID 0000.0001) %MON dynstat_uvel_min             =  -1.6531061654327E-04
(PID.TID 0000.0001) %MON dynstat_uvel_mean            =  -5.9988530170403E-10
(PID.TID 0000.0001) %MON dynstat_uvel_sd              =   1.1580916457420E-05
(PID.TID 0000.0001) %MON dynstat_uvel_del2            =   2.4602446364174E-08
(PID.TID 0000.0001) %MON dynstat_vvel_max             =   9.3599280033651E-05
(PID.TID 0000.0001) %MON dynstat_vvel_min             =  -1.4681631214142E-05
(PID.TID 0000.0001) %MON dynstat_vvel_mean            =  -2.3620392819498E-08
(PID.TID 0000.0001) %MON dynstat_vvel_sd              =   5.6118923647059E-06
(PID.TID 0000.0001) %MON dynstat_vvel_del2            =   1.0890637321410E-08
(PID.TID 0000.0001) %MON dynstat_wvel_max             =   8.1107011374753E-07
(PID.TID 0000.0001) %MON dynstat_wvel_min             =  -7.7381627993534E-07
(PID.TID 0000.0001) %MON dynstat_wvel_mean            =  -6.6636592023458E-12
(PID.TID 0000.0001) %MON dynstat_wvel_sd              =   2.7402055004289E-08
(PID.TID 0000.0001) %MON dynstat_wvel_del2            =   1.7282917142739E-10
(PID.TID 0000.0001) %MON dynstat_theta_max            =  -1.9000000000000E+00
(PID.TID 0000.0001) %MON dynstat_theta_min            =  -1.9088268621554E+00
(PID.TID 0000.0001) %MON dynstat_theta_mean           =  -1.9001479384224E+00
(PID.TID 0000.0001) %MON dynstat_theta_sd             =   6.8947975196575E-04
(PID.TID 0000.0001) %MON dynstat_theta_del2           =   7.2526388368905E-07
(PID.TID 0000.0001) %MON dynstat_salt_max             =   3.4400000000000E+01
(PID.TID 0000.0001) %MON dynstat_salt_min             =   3.4396397999448E+01
(PID.TID 0000.0001) %MON dynstat_salt_mean            =   3.4399940296507E+01
(PID.TID 0000.0001) %MON dynstat_salt_sd              =   2.7972759326201E-04
(PID.TID 0000.0001) %MON dynstat_salt_del2            =   2.9547489580631E-07
(PID.TID 0000.0001) %MON advcfl_uvel_max              =   4.9187190088398E-05
(PID.TID 0000.0001) %MON advcfl_vvel_max              =   1.5154032465470E-05
(PID.TID 0000.0001) %MON advcfl_wvel_max              =   4.8664206824852E-05
(PID.TID 0000.0001) %MON advcfl_W_hf_max              =   5.6073034786535E-05
(PID.TID 0000.0001) %MON pe_b_mean                    =  -4.6345783545911E-09
(PID.TID 0000.0001) %MON ke_max                       =   1.5853280100834E-08
(PID.TID 0000.0001) %MON ke_mean                      =   8.1252076476952E-11
(PID.TID 0000.0001) %MON ke_vol                       =   2.9241705273104E+14
(PID.TID 0000.0001) %MON vort_r_min                   =  -1.5847230312126E-08
(PID.TID 0000.0001) %MON vort_r_max                   =   1.5289774469004E-08
(PID.TID 0000.0001) %MON vort_a_mean                  =  -1.4007437274674E-04
(PID.TID 0000.0001) %MON vort_a_sd                    =   1.7682761051106E-06
(PID.TID 0000.0001) %MON vort_p_mean                  =  -1.5039772191474E-04
(PID.TID 0000.0001) %MON vort_p_sd                    =   8.7079535899006E-05
(PID.TID 0000.0001) %MON surfExpan_theta_mean         =  -4.6376137463895E-14
(PID.TID 0000.0001) %MON surfExpan_salt_mean          =  -1.9267979817906E-14
(PID.TID 0000.0001) // =======================================================
(PID.TID 0000.0001) // End MONITOR dynamic field statistics
(PID.TID 0000.0001) // =======================================================
 cg2d: Sum(rhs),rhsMax =   1.13686837721616E-13  5.18318881646716E-06
(PID.TID 0000.0001)                    cg2d_init_res =    7.38344891261535E-01
(PID.TID 0000.0001)                       cg2d_iters =   212
(PID.TID 0000.0001)                         cg2d_res =    9.92016120442219E-14
(PID.TID 0000.0001) // =======================================================
(PID.TID 0000.0001) // Begin MONITOR dynamic field statistics
(PID.TID 0000.0001) // =======================================================
(PID.TID 0000.0001) %MON time_tsnumber                =                    14
(PID.TID 0000.0001) %MON time_secondsf                =   2.5200000000000E+04
(PID.TID 0000.0001) %MON dynstat_eta_max              =   1.4435177857742E-05
(PID.TID 0000.0001) %MON dynstat_eta_min              =  -8.4765100403643E-06
(PID.TID 0000.0001) %MON dynstat_eta_mean             =   2.1294866569211E-21
(PID.TID 0000.0001) %MON dynstat_eta_sd               =   4.8512465726320E-06
(PID.TID 0000.0001) %MON dynstat_eta_del2             =   4.5110320452415E-09
(PID.TID 0000.0001) %MON dynstat_uvel_max             =   2.8394158200828E-05
(PID.TID 0000.0001) %MON dynstat_uvel_min             =  -1.8557286761814E-04
(PID.TID 0000.0001) %MON dynstat_uvel_mean            =   2.2584386616263E-09
(PID.TID 0000.0001) %MON dynstat_uvel_sd              =   1.3017974446806E-05
(PID.TID 0000.0001) %MON dynstat_uvel_del2            =   2.7623891137058E-08
(PID.TID 0000.0001) %MON dynstat_vvel_max             =   9.1248996453581E-05
(PID.TID 0000.0001) %MON dynstat_vvel_min             =  -1.4590725209889E-05
(PID.TID 0000.0001) %MON dynstat_vvel_mean            =  -3.3175840557030E-09
(PID.TID 0000.0001) %MON dynstat_vvel_sd              =   5.3966294153342E-06
(PID.TID 0000.0001) %MON dynstat_vvel_del2            =   1.0592828958493E-08
(PID.TID 0000.0001) %MON dynstat_wvel_max             =   8.9966723515064E-07
(PID.TID 0000.0001) %MON dynstat_wvel_min             =  -8.5483212043511E-07
(PID.TID 0000.0001) %MON dynstat_wvel_mean            =   3.7079900687967E-13
(PID.TID 0000.0001) %MON dynstat_wvel_sd              =   2.9792830888583E-08
(PID.TID 0000.0001) %MON dynstat_wvel_del2            =   1.7447513709973E-10
(PID.TID 0000.0001) %MON dynstat_theta_max            =  -1.9000000000000E+00
(PID.TID 0000.0001) %MON dynstat_theta_min            =  -1.9094992786251E+00
(PID.TID 0000.0001) %MON dynstat_theta_mean           =  -1.9001592337689E+00
(PID.TID 0000.0001) %MON dynstat_theta_sd             =   7.4197932779573E-04
(PID.TID 0000.0001) %MON dynstat_theta_del2           =   7.7944859614522E-07
(PID.TID 0000.0001) %MON dynstat_salt_max             =   3.4400000000000E+01
(PID.TID 0000.0001) %MON dynstat_salt_min             =   3.4396123617729E+01
(PID.TID 0000.0001) %MON dynstat_salt_mean            =   3.4399935738578E+01
(PID.TID 0000.0001) %MON dynstat_salt_sd              =   3.0102482086928E-04
(PID.TID 0000.0001) %MON dynstat_salt_del2            =   3.1754824219237E-07
(PID.TID 0000.0001) %MON advcfl_uvel_max              =   5.5216102302739E-05
(PID.TID 0000.0001) %MON advcfl_vvel_max              =   1.4773513794144E-05
(PID.TID 0000.0001) %MON advcfl_wvel_max              =   5.3980034109038E-05
(PID.TID 0000.0001) %MON advcfl_W_hf_max              =   6.1410298074925E-05
(PID.TID 0000.0001) %MON pe_b_mean                    =  -4.7439617875657E-09
(PID.TID 0000.0001) %MON ke_max                       =   1.9240891846772E-08
(PID.TID 0000.0001) %MON ke_mean                      =   9.7395180085940E-11
(PID.TID 0000.0001) %MON ke_vol                       =   2.9241705273104E+14
(PID.TID 0000.0001) %MON vort_r_min                   =  -1.5449305400964E-08
(PID.TID 0000.0001) %MON vort_r_max                   =   1.4855589619942E-08
(PID.TID 0000.0001) %MON vort_a_mean                  =  -1.4007437275258E-04
(PID.TID 0000.0001) %MON vort_a_sd                    =   1.7682759465095E-06
(PID.TID 0000.0001) %MON vort_p_mean                  =  -1.5039772192102E-04
(PID.TID 0000.0001) %MON vort_p_sd                    =   8.7079326256651E-05
(PID.TID 0000.0001) %MON surfExpan_theta_mean         =   1.3515340030989E-14
(PID.TID 0000.0001) %MON surfExpan_salt_mean          =   5.3768485361405E-15
(PID.TID 0000.0001) // =======================================================
(PID.TID 0000.0001) // End MONITOR dynamic field statistics
(PID.TID 0000.0001) // =======================================================
 cg2d: Sum(rhs),rhsMax =  -4.26325641456060E-14  5.53371621671959E-06
(PID.TID 0000.0001)                    cg2d_init_res =    6.74101559978290E-01
(PID.TID 0000.0001)                       cg2d_iters =   212
(PID.TID 0000.0001)                         cg2d_res =    9.09746500763155E-14
(PID.TID 0000.0001) // =======================================================
(PID.TID 0000.0001) // Begin MONITOR dynamic field statistics
(PID.TID 0000.0001) // =======================================================
(PID.TID 0000.0001) %MON time_tsnumber                =                    15
(PID.TID 0000.0001) %MON time_secondsf                =   2.7000000000000E+04
(PID.TID 0000.0001) %MON dynstat_eta_max              =   1.4831917885041E-05
(PID.TID 0000.0001) %MON dynstat_eta_min              =  -9.5707798394754E-06
(PID.TID 0000.0001) %MON dynstat_eta_mean             =   1.3309291605757E-21
(PID.TID 0000.0001) %MON dynstat_eta_sd               =   4.9604960643978E-06
(PID.TID 0000.0001) %MON dynstat_eta_del2             =   4.7647946753999E-09
(PID.TID 0000.0001) %MON dynstat_uvel_max             =   3.1349559079431E-05
(PID.TID 0000.0001) %MON dynstat_uvel_min             =  -2.0445494500806E-04
(PID.TID 0000.0001) %MON dynstat_uvel_mean            =   5.6798581274512E-09
(PID.TID 0000.0001) %MON dynstat_uvel_sd              =   1.4355846059058E-05
(PID.TID 0000.0001) %MON dynstat_uvel_del2            =   3.0463145519409E-08
(PID.TID 0000.0001) %MON dynstat_vvel_max             =   8.7041500499592E-05
(PID.TID 0000.0001) %MON dynstat_vvel_min             =  -1.4260906453376E-05
(PID.TID 0000.0001) %MON dynstat_vvel_mean            =   1.0703103751403E-08
(PID.TID 0000.0001) %MON dynstat_vvel_sd              =   5.0528029199610E-06
(PID.TID 0000.0001) %MON dynstat_vvel_del2            =   1.0082630890629E-08
(PID.TID 0000.0001) %MON dynstat_wvel_max             =   9.8128244029064E-07
(PID.TID 0000.0001) %MON dynstat_wvel_min             =  -9.2873106284472E-07
(PID.TID 0000.0001) %MON dynstat_wvel_mean            =   4.9310392385594E-12
(PID.TID 0000.0001) %MON dynstat_wvel_sd              =   3.2003364198980E-08
(PID.TID 0000.0001) %MON dynstat_wvel_del2            =   1.7422325838276E-10
(PID.TID 0000.0001) %MON dynstat_theta_max            =  -1.9000000000000E+00
(PID.TID 0000.0001) %MON dynstat_theta_min            =  -1.9101707752298E+00
(PID.TID 0000.0001) %MON dynstat_theta_mean           =  -1.9001705172098E+00
(PID.TID 0000.0001) %MON dynstat_theta_sd             =   7.9440342042428E-04
(PID.TID 0000.0001) %MON dynstat_theta_del2           =   8.3341103768098E-07
(PID.TID 0000.0001) %MON dynstat_salt_max             =   3.4400000000000E+01
(PID.TID 0000.0001) %MON dynstat_salt_min             =   3.4395849613193E+01
(PID.TID 0000.0001) %MON dynstat_salt_mean            =   3.4399931185528E+01
(PID.TID 0000.0001) %MON dynstat_salt_sd              =   3.2229110483947E-04
(PID.TID 0000.0001) %MON dynstat_salt_del2            =   3.3953080592614E-07
(PID.TID 0000.0001) %MON advcfl_uvel_max              =   6.0834352051382E-05
(PID.TID 0000.0001) %MON advcfl_vvel_max              =   1.4092306307696E-05
(PID.TID 0000.0001) %MON advcfl_wvel_max              =   5.8876946417439E-05
(PID.TID 0000.0001) %MON advcfl_W_hf_max              =   6.6209817582297E-05
(PID.TID 0000.0001) %MON pe_b_mean                    =  -4.8092114412526E-09
(PID.TID 0000.0001) %MON ke_max                       =   2.2673073202673E-08
(PID.TID 0000.0001) %MON ke_mean                      =   1.1355760021049E-10
(PID.TID 0000.0001) %MON ke_vol                       =   2.9241705273104E+14
(PID.TID 0000.0001) %MON vort_r_min                   =  -1.4736937128513E-08
(PID.TID 0000.0001) %MON vort_r_max                   =   1.4117650662086E-08
(PID.TID 0000.0001) %MON vort_a_mean                  =  -1.4007437275995E-04
(PID.TID 0000.0001) %MON vort_a_sd                    =   1.7682757933150E-06
(PID.TID 0000.0001) %MON vort_p_mean                  =  -1.5039772192893E-04
(PID.TID 0000.0001) %MON vort_p_sd                    =   8.7079130620868E-05
(PID.TID 0000.0001) %MON surfExpan_theta_mean         =   5.8230326569004E-14
(PID.TID 0000.0001) %MON surfExpan_salt_mean          =   2.3778262387245E-14
(PID.TID 0000.0001) // =======================================================
(PID.TID 0000.0001) // End MONITOR dynamic field statistics
(PID.TID 0000.0001) // =======================================================
 cg2d: Sum(rhs),rhsMax =  -1.56319401867222E-13  5.87415205328802E-06
(PID.TID 0000.0001)                    cg2d_init_res =    6.19676861655024E-01
(PID.TID 0000.0001)                       cg2d_iters =   212
(PID.TID 0000.0001)                         cg2d_res =    8.24457364302117E-14
(PID.TID 0000.0001) // =======================================================
(PID.TID 0000.0001) // Begin MONITOR dynamic field statistics
(PID.TID 0000.0001) // =======================================================
(PID.TID 0000.0001) %MON time_tsnumber                =                    16
(PID.TID 0000.0001) %MON time_secondsf                =   2.8800000000000E+04
(PID.TID 0000.0001) %MON dynstat_eta_max              =   1.5098499129989E-05
(PID.TID 0000.0001) %MON dynstat_eta_min              =  -1.0596966481546E-05
(PID.TID 0000.0001) %MON dynstat_eta_mean             =   2.6618583211513E-22
(PID.TID 0000.0001) %MON dynstat_eta_sd               =   5.0549733914986E-06
(PID.TID 0000.0001) %MON dynstat_eta_del2             =   5.0095484336231E-09
(PID.TID 0000.0001) %MON dynstat_uvel_max             =   3.4029642019903E-05
(PID.TID 0000.0001) %MON dynstat_uvel_min             =  -2.2160552398071E-04
(PID.TID 0000.0001) %MON dynstat_uvel_mean            =   9.3415341059106E-09
(PID.TID 0000.0001) %MON dynstat_uvel_sd              =   1.5567613072564E-05
(PID.TID 0000.0001) %MON dynstat_uvel_del2            =   3.3074565935161E-08
(PID.TID 0000.0001) %MON dynstat_vvel_max             =   8.1418711494682E-05
(PID.TID 0000.0001) %MON dynstat_vvel_min             =  -1.3712513982886E-05
(PID.TID 0000.0001) %MON dynstat_vvel_mean            =   1.7357941375933E-08
(PID.TID 0000.0001) %MON dynstat_vvel_sd              =   4.6102879997568E-06
(PID.TID 0000.0001) %MON dynstat_vvel_del2            =   9.4128763268731E-09
(PID.TID 0000.0001) %MON dynstat_wvel_max             =   1.0548586349703E-06
(PID.TID 0000.0001) %MON dynstat_wvel_min             =  -9.9459726612636E-07
(PID.TID 0000.0001) %MON dynstat_wvel_mean            =   6.6318232710553E-12
(PID.TID 0000.0001) %MON dynstat_wvel_sd              =   3.4017841032446E-08
(PID.TID 0000.0001) %MON dynstat_wvel_del2            =   1.7281655389808E-10
(PID.TID 0000.0001) %MON dynstat_theta_max            =  -1.9000000000000E+00
(PID.TID 0000.0001) %MON dynstat_theta_min            =  -1.9108413544092E+00
(PID.TID 0000.0001) %MON dynstat_theta_mean           =  -1.9001817887631E+00
(PID.TID 0000.0001) %MON dynstat_theta_sd             =   8.4675218056842E-04
(PID.TID 0000.0001) %MON dynstat_theta_del2           =   8.8715223894987E-07
(PID.TID 0000.0001) %MON dynstat_salt_max             =   3.4400000000000E+01
(PID.TID 0000.0001) %MON dynstat_salt_min             =   3.4395575984839E+01
(PID.TID 0000.0001) %MON dynstat_salt_mean            =   3.4399926637351E+01
(PID.TID 0000.0001) %MON dynstat_salt_sd              =   3.4352650714577E-04
(PID.TID 0000.0001) %MON dynstat_salt_del2            =   3.6142300885099E-07
(PID.TID 0000.0001) %MON advcfl_uvel_max              =   6.5937404751164E-05
(PID.TID 0000.0001) %MON advcfl_vvel_max              =   1.3181958203563E-05
(PID.TID 0000.0001) %MON advcfl_wvel_max              =   6.3291518098219E-05
(PID.TID 0000.0001) %MON advcfl_W_hf_max              =   7.0439246539601E-05
(PID.TID 0000.0001) %MON pe_b_mean                    =  -4.8539962773420E-09
(PID.TID 0000.0001) %MON ke_max                       =   2.6030921307473E-08
(PID.TID 0000.0001) %MON ke_mean                      =   1.2920495631873E-10
(PID.TID 0000.0001) %MON ke_vol                       =   2.9241705273104E+14
(PID.TID 0000.0001) %MON vort_r_min                   =  -1.3784946554171E-08
(PID.TID 0000.0001) %MON vort_r_max                   =   1.3150633033968E-08
(PID.TID 0000.0001) %MON vort_a_mean                  =  -1.4007437276782E-04
(PID.TID 0000.0001) %MON vort_a_sd                    =   1.7682756519210E-06
(PID.TID 0000.0001) %MON vort_p_mean                  =  -1.5039772193737E-04
(PID.TID 0000.0001) %MON vort_p_sd                    =   8.7078952979328E-05
(PID.TID 0000.0001) %MON surfExpan_theta_mean         =   7.9025340828895E-14
(PID.TID 0000.0001) %MON surfExpan_salt_mean          =   3.2337286541328E-14
(PID.TID 0000.0001) // =======================================================
(PID.TID 0000.0001) // End MONITOR dynamic field statistics
(PID.TID 0000.0001) // =======================================================
 cg2d: Sum(rhs),rhsMax =   7.10542735760100E-15  6.21052398046986E-06
(PID.TID 0000.0001)                    cg2d_init_res =    5.73409675538846E-01
(PID.TID 0000.0001)                       cg2d_iters =   212
(PID.TID 0000.0001)                         cg2d_res =    7.12687076830319E-14
(PID.TID 0000.0001) // =======================================================
(PID.TID 0000.0001) // Begin MONITOR dynamic field statistics
(PID.TID 0000.0001) // =======================================================
(PID.TID 0000.0001) %MON time_tsnumber                =                    17
(PID.TID 0000.0001) %MON time_secondsf                =   3.0600000000000E+04
(PID.TID 0000.0001) %MON dynstat_eta_max              =   1.5283905716045E-05
(PID.TID 0000.0001) %MON dynstat_eta_min              =  -1.1504911094136E-05
(PID.TID 0000.0001) %MON dynstat_eta_mean             =  -3.4604158174967E-21
(PID.TID 0000.0001) %MON dynstat_eta_sd               =   5.1550663593109E-06
(PID.TID 0000.0001) %MON dynstat_eta_del2             =   5.2457114111760E-09
(PID.TID 0000.0001) %MON dynstat_uvel_max             =   3.6394682871641E-05
(PID.TID 0000.0001) %MON dynstat_uvel_min             =  -2.3680699326615E-04
(PID.TID 0000.0001) %MON dynstat_uvel_mean            =   1.2929881966576E-08
(PID.TID 0000.0001) %MON dynstat_uvel_sd              =   1.6635883537991E-05
(PID.TID 0000.0001) %MON dynstat_uvel_del2            =   3.5430800372324E-08
(PID.TID 0000.0001) %MON dynstat_vvel_max             =   7.4886936242137E-05
(PID.TID 0000.0001) %MON dynstat_vvel_min             =  -1.3017846416588E-05
(PID.TID 0000.0001) %MON dynstat_vvel_mean            =   1.6456461097676E-08
(PID.TID 0000.0001) %MON dynstat_vvel_sd              =   4.1042380494545E-06
(PID.TID 0000.0001) %MON dynstat_vvel_del2            =   8.6433716554723E-09
(PID.TID 0000.0001) %MON dynstat_wvel_max             =   1.1199327804791E-06
(PID.TID 0000.0001) %MON dynstat_wvel_min             =  -1.0652973714854E-06
(PID.TID 0000.0001) %MON dynstat_wvel_mean            =   5.3994521085737E-12
(PID.TID 0000.0001) %MON dynstat_wvel_sd              =   3.5828352033254E-08
(PID.TID 0000.0001) %MON dynstat_wvel_del2            =   1.7100258000488E-10
(PID.TID 0000.0001) %MON dynstat_theta_max            =  -1.9000000000000E+00
(PID.TID 0000.0001) %MON dynstat_theta_min            =  -1.9115110184119E+00
(PID.TID 0000.0001) %MON dynstat_theta_mean           =  -1.9001930484465E+00
(PID.TID 0000.0001) %MON dynstat_theta_sd             =   8.9902575836330E-04
(PID.TID 0000.0001) %MON dynstat_theta_del2           =   9.4067322888901E-07
(PID.TID 0000.0001) %MON dynstat_salt_max             =   3.4400000000000E+01
(PID.TID 0000.0001) %MON dynstat_salt_min             =   3.4395302731743E+01
(PID.TID 0000.0001) %MON dynstat_salt_mean            =   3.4399922094039E+01
(PID.TID 0000.0001) %MON dynstat_salt_sd              =   3.6473108952153E-04
(PID.TID 0000.0001) %MON dynstat_salt_del2            =   3.8322527209726E-07
(PID.TID 0000.0001) %MON advcfl_uvel_max              =   7.0460511463854E-05
(PID.TID 0000.0001) %MON advcfl_vvel_max              =   1.2124442224822E-05
(PID.TID 0000.0001) %MON advcfl_wvel_max              =   6.7195966828743E-05
(PID.TID 0000.0001) %MON advcfl_W_hf_max              =   7.4106570499672E-05
(PID.TID 0000.0001) %MON pe_b_mean                    =  -4.9027792998084E-09
(PID.TID 0000.0001) %MON ke_max                       =   2.9210949618093E-08
(PID.TID 0000.0001) %MON ke_mean                      =   1.4387589589395E-10
(PID.TID 0000.0001) %MON ke_vol                       =   2.9241705273104E+14
(PID.TID 0000.0001) %MON vort_r_min                   =  -1.2679056137739E-08
(PID.TID 0000.0001) %MON vort_r_max                   =   1.2039211248722E-08
(PID.TID 0000.0001) %MON vort_a_mean                  =  -1.4007437277516E-04
(PID.TID 0000.0001) %MON vort_a_sd                    =   1.7682755281168E-06
(PID.TID 0000.0001) %MON vort_p_mean                  =  -1.5039772194526E-04
(PID.TID 0000.0001) %MON vort_p_sd                    =   8.7078795980331E-05
(PID.TID 0000.0001) %MON surfExpan_theta_mean         =   6.9609878240839E-14
(PID.TID 0000.0001) %MON surfExpan_salt_mean          =   2.8464619969012E-14
(PID.TID 0000.0001) // =======================================================
(PID.TID 0000.0001) // End MONITOR dynamic field statistics
(PID.TID 0000.0001) // =======================================================
 cg2d: Sum(rhs),rhsMax =  -3.55271367880050E-14  6.54978948979277E-06
(PID.TID 0000.0001)                    cg2d_init_res =    5.33911391078137E-01
(PID.TID 0000.0001)                       cg2d_iters =   211
(PID.TID 0000.0001)                         cg2d_res =    9.53184308022962E-14
(PID.TID 0000.0001) // =======================================================
(PID.TID 0000.0001) // Begin MONITOR dynamic field statistics
(PID.TID 0000.0001) // =======================================================
(PID.TID 0000.0001) %MON time_tsnumber                =                    18
(PID.TID 0000.0001) %MON time_secondsf                =   3.2400000000000E+04
(PID.TID 0000.0001) %MON dynstat_eta_max              =   1.5441005990710E-05
(PID.TID 0000.0001) %MON dynstat_eta_min              =  -1.2254817399999E-05
(PID.TID 0000.0001) %MON dynstat_eta_mean             =  -2.6618583211513E-22
(PID.TID 0000.0001) %MON dynstat_eta_sd               =   5.2779051577766E-06
(PID.TID 0000.0001) %MON dynstat_eta_del2             =   5.4737249639463E-09
(PID.TID 0000.0001) %MON dynstat_uvel_max             =   3.8427147395453E-05
(PID.TID 0000.0001) %MON dynstat_uvel_min             =  -2.4997950534394E-04
(PID.TID 0000.0001) %MON dynstat_uvel_mean            =   1.6166571571416E-08
(PID.TID 0000.0001) %MON dynstat_uvel_sd              =   1.7553465711658E-05
(PID.TID 0000.0001) %MON dynstat_uvel_del2            =   3.7523168161808E-08
(PID.TID 0000.0001) %MON dynstat_vvel_max             =   6.7979635827672E-05
(PID.TID 0000.0001) %MON dynstat_vvel_min             =  -1.2226718804269E-05
(PID.TID 0000.0001) %MON dynstat_vvel_mean            =   8.6041189545821E-09
(PID.TID 0000.0001) %MON dynstat_vvel_sd              =   3.5725759926797E-06
(PID.TID 0000.0001) %MON dynstat_vvel_del2            =   7.8364564034440E-09
(PID.TID 0000.0001) %MON dynstat_wvel_max             =   1.1803168491959E-06
(PID.TID 0000.0001) %MON dynstat_wvel_min             =  -1.1314978680446E-06
(PID.TID 0000.0001) %MON dynstat_wvel_mean            =   1.4637526887789E-12
(PID.TID 0000.0001) %MON dynstat_wvel_sd              =   3.7435441138404E-08
(PID.TID 0000.0001) %MON dynstat_wvel_del2            =   1.6943880880303E-10
(PID.TID 0000.0001) %MON dynstat_theta_max            =  -1.9000000000000E+00
(PID.TID 0000.0001) %MON dynstat_theta_min            =  -1.9121797692758E+00
(PID.TID 0000.0001) %MON dynstat_theta_mean           =  -1.9002042962777E+00
(PID.TID 0000.0001) %MON dynstat_theta_sd             =   9.5122430342203E-04
(PID.TID 0000.0001) %MON dynstat_theta_del2           =   9.9397503889632E-07
(PID.TID 0000.0001) %MON dynstat_salt_max             =   3.4400000000000E+01
(PID.TID 0000.0001) %MON dynstat_salt_min             =   3.4395029853065E+01
(PID.TID 0000.0001) %MON dynstat_salt_mean            =   3.4399917555584E+01
(PID.TID 0000.0001) %MON dynstat_salt_sd              =   3.8590491348482E-04
(PID.TID 0000.0001) %MON dynstat_salt_del2            =   4.0493801778439E-07
(PID.TID 0000.0001) %MON advcfl_uvel_max              =   7.4379914034967E-05
(PID.TID 0000.0001) %MON advcfl_vvel_max              =   1.1006127482530E-05
(PID.TID 0000.0001) %MON advcfl_wvel_max              =   7.0819010951753E-05
(PID.TID 0000.0001) %MON advcfl_W_hf_max              =   7.7256430556497E-05
(PID.TID 0000.0001) %MON pe_b_mean                    =  -4.9782606662946E-09
(PID.TID 0000.0001) %MON ke_max                       =   3.2135621638251E-08
(PID.TID 0000.0001) %MON ke_mean                      =   1.5722475628494E-10
(PID.TID 0000.0001) %MON ke_vol                       =   2.9241705273104E+14
(PID.TID 0000.0001) %MON vort_r_min                   =  -1.1509585812073E-08
(PID.TID 0000.0001) %MON vort_r_max                   =   1.2106951041477E-08
(PID.TID 0000.0001) %MON vort_a_mean                  =  -1.4007437278110E-04
(PID.TID 0000.0001) %MON vort_a_sd                    =   1.7682754256316E-06
(PID.TID 0000.0001) %MON vort_p_mean                  =  -1.5039772195163E-04
(PID.TID 0000.0001) %MON vort_p_sd                    =   8.7078660826162E-05
(PID.TID 0000.0001) %MON surfExpan_theta_mean         =   2.7060671969621E-14
(PID.TID 0000.0001) %MON surfExpan_salt_mean          =   1.0956724305740E-14
(PID.TID 0000.0001) // =======================================================
(PID.TID 0000.0001) // End MONITOR dynamic field statistics
(PID.TID 0000.0001) // =======================================================
 cg2d: Sum(rhs),rhsMax =   7.10542735760100E-15  6.89930781115192E-06
(PID.TID 0000.0001)                    cg2d_init_res =    4.99928104582050E-01
(PID.TID 0000.0001)                       cg2d_iters =   211
(PID.TID 0000.0001)                         cg2d_res =    8.93567038770256E-14
(PID.TID 0000.0001) // =======================================================
(PID.TID 0000.0001) // Begin MONITOR dynamic field statistics
(PID.TID 0000.0001) // =======================================================
(PID.TID 0000.0001) %MON time_tsnumber                =                    19
(PID.TID 0000.0001) %MON time_secondsf                =   3.4200000000000E+04
(PID.TID 0000.0001) %MON dynstat_eta_max              =   1.5622068969354E-05
(PID.TID 0000.0001) %MON dynstat_eta_min              =  -1.2822175446016E-05
(PID.TID 0000.0001) %MON dynstat_eta_mean             =   3.4604158174967E-21
(PID.TID 0000.0001) %MON dynstat_eta_sd               =   5.4364657605867E-06
(PID.TID 0000.0001) %MON dynstat_eta_del2             =   5.6940469948936E-09
(PID.TID 0000.0001) %MON dynstat_uvel_max             =   4.0131663573985E-05
(PID.TID 0000.0001) %MON dynstat_uvel_min             =  -2.6118066600257E-04
(PID.TID 0000.0001) %MON dynstat_uvel_mean            =   1.8827586214376E-08
(PID.TID 0000.0001) %MON dynstat_uvel_sd              =   1.8323339325029E-05
(PID.TID 0000.0001) %MON dynstat_uvel_del2            =   3.9360776571614E-08
(PID.TID 0000.0001) %MON dynstat_vvel_max             =   6.1220783177315E-05
(PID.TID 0000.0001) %MON dynstat_vvel_min             =  -1.1404304594681E-05
(PID.TID 0000.0001) %MON dynstat_vvel_mean            =  -4.9673742998404E-09
(PID.TID 0000.0001) %MON dynstat_vvel_sd              =   3.0533713542292E-06
(PID.TID 0000.0001) %MON dynstat_vvel_del2            =   7.0525396015849E-09
(PID.TID 0000.0001) %MON dynstat_wvel_max             =   1.2352065806049E-06
(PID.TID 0000.0001) %MON dynstat_wvel_min             =  -1.1899329577604E-06
(PID.TID 0000.0001) %MON dynstat_wvel_mean            =  -4.6876024801452E-12
(PID.TID 0000.0001) %MON dynstat_wvel_sd              =   3.8848710540197E-08
(PID.TID 0000.0001) %MON dynstat_wvel_del2            =   1.6861561628581E-10
(PID.TID 0000.0001) %MON dynstat_theta_max            =  -1.9000000000000E+00
(PID.TID 0000.0001) %MON dynstat_theta_min            =  -1.9128476088242E+00
(PID.TID 0000.0001) %MON dynstat_theta_mean           =  -1.9002155322744E+00
(PID.TID 0000.0001) %MON dynstat_theta_sd             =   1.0033479649080E-03
(PID.TID 0000.0001) %MON dynstat_theta_del2           =   1.0470587063580E-06
(PID.TID 0000.0001) %MON dynstat_salt_max             =   3.4400000000000E+01
(PID.TID 0000.0001) %MON dynstat_salt_min             =   3.4394757348055E+01
(PID.TID 0000.0001) %MON dynstat_salt_mean            =   3.4399913021980E+01
(PID.TID 0000.0001) %MON dynstat_salt_sd              =   4.0704804036892E-04
(PID.TID 0000.0001) %MON dynstat_salt_del2            =   4.2656167045884E-07
(PID.TID 0000.0001) %MON advcfl_uvel_max              =   7.7712752724020E-05
(PID.TID 0000.0001) %MON advcfl_vvel_max              =   9.9118469233629E-06
(PID.TID 0000.0001) %MON advcfl_wvel_max              =   7.4112394836295E-05
(PID.TID 0000.0001) %MON advcfl_W_hf_max              =   7.9964340918404E-05
(PID.TID 0000.0001) %MON pe_b_mean                    =  -5.0992732492246E-09
(PID.TID 0000.0001) %MON ke_max                       =   3.4760693050450E-08
(PID.TID 0000.0001) %MON ke_mean                      =   1.6905335198766E-10
(PID.TID 0000.0001) %MON ke_vol                       =   2.9241705273104E+14
(PID.TID 0000.0001) %MON vort_r_min                   =  -1.0365249076177E-08
(PID.TID 0000.0001) %MON vort_r_max                   =   1.2646144757476E-08
(PID.TID 0000.0001) %MON vort_a_mean                  =  -1.4007437278490E-04
(PID.TID 0000.0001) %MON vort_a_sd                    =   1.7682753463394E-06
(PID.TID 0000.0001) %MON vort_p_mean                  =  -1.5039772195572E-04
(PID.TID 0000.0001) %MON vort_p_sd                    =   8.7078547264528E-05
(PID.TID 0000.0001) %MON surfExpan_theta_mean         =  -4.7763721024595E-14
(PID.TID 0000.0001) %MON surfExpan_salt_mean          =  -1.9833701865836E-14
(PID.TID 0000.0001) // =======================================================
(PID.TID 0000.0001) // End MONITOR dynamic field statistics
(PID.TID 0000.0001) // =======================================================
 cg2d: Sum(rhs),rhsMax =  -1.35003119794419E-13  7.26625109375614E-06
(PID.TID 0000.0001)                    cg2d_init_res =    4.70327381227612E-01
(PID.TID 0000.0001)                       cg2d_iters =   211
(PID.TID 0000.0001)                         cg2d_res =    7.67304903156080E-14
(PID.TID 0000.0001) // =======================================================
(PID.TID 0000.0001) // Begin MONITOR dynamic field statistics
(PID.TID 0000.0001) // =======================================================
(PID.TID 0000.0001) %MON time_tsnumber                =                    20
(PID.TID 0000.0001) %MON time_secondsf                =   3.6000000000000E+04
(PID.TID 0000.0001) %MON dynstat_eta_max              =   1.5874534363805E-05
(PID.TID 0000.0001) %MON dynstat_eta_min              =  -1.3200351913759E-05
(PID.TID 0000.0001) %MON dynstat_eta_mean             =  -3.1942299853816E-21
(PID.TID 0000.0001) %MON dynstat_eta_sd               =   5.6396182020835E-06
(PID.TID 0000.0001) %MON dynstat_eta_del2             =   5.9071446007314E-09
(PID.TID 0000.0001) %MON dynstat_uvel_max             =   4.1534543475728E-05
(PID.TID 0000.0001) %MON dynstat_uvel_min             =  -2.7059347634920E-04
(PID.TID 0000.0001) %MON dynstat_uvel_mean            =   2.0756418381622E-08
(PID.TID 0000.0001) %MON dynstat_uvel_sd              =   1.8957959729632E-05
(PID.TID 0000.0001) %MON dynstat_uvel_del2            =   4.0968521813244E-08
(PID.TID 0000.0001) %MON dynstat_vvel_max             =   5.5464933101548E-05
(PID.TID 0000.0001) %MON dynstat_vvel_min             =  -1.0613196120518E-05
(PID.TID 0000.0001) %MON dynstat_vvel_mean            =  -2.2608221963429E-08
(PID.TID 0000.0001) %MON dynstat_vvel_sd              =   2.5821607160606E-06
(PID.TID 0000.0001) %MON dynstat_vvel_del2            =   6.3458093468484E-09
(PID.TID 0000.0001) %MON dynstat_wvel_max             =   1.2831910354721E-06
(PID.TID 0000.0001) %MON dynstat_wvel_min             =  -1.2411809864591E-06
(PID.TID 0000.0001) %MON dynstat_wvel_mean            =  -1.2383056475833E-11
(PID.TID 0000.0001) %MON dynstat_wvel_sd              =   4.0087293927538E-08
(PID.TID 0000.0001) %MON dynstat_wvel_del2            =   1.6881904527321E-10
(PID.TID 0000.0001) %MON dynstat_theta_max            =  -1.9000000000000E+00
(PID.TID 0000.0001) %MON dynstat_theta_min            =  -1.9135145386803E+00
(PID.TID 0000.0001) %MON dynstat_theta_mean           =  -1.9002267564543E+00
(PID.TID 0000.0001) %MON dynstat_theta_sd             =   1.0553968916122E-03
(PID.TID 0000.0001) %MON dynstat_theta_del2           =   1.0999252772198E-06
(PID.TID 0000.0001) %MON dynstat_salt_max             =   3.4400000000000E+01
(PID.TID 0000.0001) %MON dynstat_salt_min             =   3.4394485216045E+01
(PID.TID 0000.0001) %MON dynstat_salt_mean            =   3.4399908493219E+01
(PID.TID 0000.0001) %MON dynstat_salt_sd              =   4.2816053135314E-04
(PID.TID 0000.0001) %MON dynstat_salt_del2            =   4.4809665814122E-07
(PID.TID 0000.0001) %MON advcfl_uvel_max              =   8.0513478421299E-05
(PID.TID 0000.0001) %MON advcfl_vvel_max              =   8.9799557925423E-06
(PID.TID 0000.0001) %MON advcfl_wvel_max              =   7.6991462128327E-05
(PID.TID 0000.0001) %MON advcfl_W_hf_max              =   8.2329315149195E-05
(PID.TID 0000.0001) %MON pe_b_mean                    =  -5.2793087770553E-09
(PID.TID 0000.0001) %MON ke_max                       =   3.7079035234320E-08
(PID.TID 0000.0001) %MON ke_mean                      =   1.7932979439772E-10
(PID.TID 0000.0001) %MON ke_vol                       =   2.9241705273104E+14
(PID.TID 0000.0001) %MON vort_r_min                   =  -9.3274447920312E-09
(PID.TID 0000.0001) %MON vort_r_max                   =   1.3235016382347E-08
(PID.TID 0000.0001) %MON vort_a_mean                  =  -1.4007437278610E-04
(PID.TID 0000.0001) %MON vort_a_sd                    =   1.7682752918560E-06
(PID.TID 0000.0001) %MON vort_p_mean                  =  -1.5039772195700E-04
(PID.TID 0000.0001) %MON vort_p_sd                    =   8.7078453673469E-05
(PID.TID 0000.0001) %MON surfExpan_theta_mean         =  -1.5035783602026E-13
(PID.TID 0000.0001) %MON surfExpan_salt_mean          =  -6.2053300993015E-14
(PID.TID 0000.0001) // =======================================================
(PID.TID 0000.0001) // End MONITOR dynamic field statistics
(PID.TID 0000.0001) // =======================================================
(PID.TID 0000.0001) %CHECKPOINT        20 ckptA
(PID.TID 0000.0001)   Seconds in section "ALL                    [THE_MODEL_MAIN]":
(PID.TID 0000.0001)           User time:   14.140000000000001
(PID.TID 0000.0001)         System time:  5.00000000000000028E-002
(PID.TID 0000.0001)     Wall clock time:   14.495923042297363
(PID.TID 0000.0001)          No. starts:           1
(PID.TID 0000.0001)           No. stops:           1
(PID.TID 0000.0001)   Seconds in section "INITIALISE_FIXED       [THE_MODEL_MAIN]":
(PID.TID 0000.0001)           User time:  0.27000000000000002
(PID.TID 0000.0001)         System time:   0.0000000000000000
(PID.TID 0000.0001)     Wall clock time:  0.53485083580017090
(PID.TID 0000.0001)          No. starts:           1
(PID.TID 0000.0001)           No. stops:           1
(PID.TID 0000.0001)   Seconds in section "THE_MAIN_LOOP          [THE_MODEL_MAIN]":
(PID.TID 0000.0001)           User time:   13.870000000000001
(PID.TID 0000.0001)         System time:  5.00000000000000028E-002
(PID.TID 0000.0001)     Wall clock time:   13.960582971572876
(PID.TID 0000.0001)          No. starts:           1
(PID.TID 0000.0001)           No. stops:           1
(PID.TID 0000.0001)   Seconds in section "INITIALISE_VARIA    [THE_MAIN_LOOP]":
(PID.TID 0000.0001)           User time:  0.20999999999999996
(PID.TID 0000.0001)         System time:  2.00000000000000004E-002
(PID.TID 0000.0001)     Wall clock time:  0.22701597213745117
(PID.TID 0000.0001)          No. starts:           1
(PID.TID 0000.0001)           No. stops:           1
(PID.TID 0000.0001)   Seconds in section "MAIN LOOP           [THE_MAIN_LOOP]":
(PID.TID 0000.0001)           User time:   13.660000000000000
(PID.TID 0000.0001)         System time:  3.00000000000000024E-002
(PID.TID 0000.0001)     Wall clock time:   13.733541965484619
(PID.TID 0000.0001)          No. starts:           1
(PID.TID 0000.0001)           No. stops:           1
(PID.TID 0000.0001)   Seconds in section "FORWARD_STEP        [THE_MAIN_LOOP]":
(PID.TID 0000.0001)           User time:   13.660000000000000
(PID.TID 0000.0001)         System time:  2.99999999999999989E-002
(PID.TID 0000.0001)     Wall clock time:   13.733373403549194
(PID.TID 0000.0001)          No. starts:          20
(PID.TID 0000.0001)           No. stops:          20
(PID.TID 0000.0001)   Seconds in section "LOAD_FIELDS_DRIVER  [FORWARD_STEP]":
(PID.TID 0000.0001)           User time:   0.0000000000000000
(PID.TID 0000.0001)         System time:   0.0000000000000000
(PID.TID 0000.0001)     Wall clock time:  4.89950180053710938E-004
(PID.TID 0000.0001)          No. starts:          20
(PID.TID 0000.0001)           No. stops:          20
(PID.TID 0000.0001)   Seconds in section "EXTERNAL_FLDS_LOAD [LOAD_FLDS_DRIVER]":
(PID.TID 0000.0001)           User time:   0.0000000000000000
(PID.TID 0000.0001)         System time:   0.0000000000000000
(PID.TID 0000.0001)     Wall clock time:  1.69992446899414063E-004
(PID.TID 0000.0001)          No. starts:          20
(PID.TID 0000.0001)           No. stops:          20
(PID.TID 0000.0001)   Seconds in section "DO_ATMOSPHERIC_PHYS [FORWARD_STEP]":
(PID.TID 0000.0001)           User time:   0.0000000000000000
(PID.TID 0000.0001)         System time:   0.0000000000000000
(PID.TID 0000.0001)     Wall clock time:  1.59978866577148438E-004
(PID.TID 0000.0001)          No. starts:          20
(PID.TID 0000.0001)           No. stops:          20
(PID.TID 0000.0001)   Seconds in section "DO_OCEANIC_PHYS     [FORWARD_STEP]":
(PID.TID 0000.0001)           User time:  0.44000000000000128
(PID.TID 0000.0001)         System time:   0.0000000000000000
(PID.TID 0000.0001)     Wall clock time:  0.43631291389465332
(PID.TID 0000.0001)          No. starts:          20
(PID.TID 0000.0001)           No. stops:          20
(PID.TID 0000.0001)   Seconds in section "SHELFICE_THERMODYNAMICS [DO_OCEANIC_PHYS]":
(PID.TID 0000.0001)           User time:  5.99999999999987210E-002
(PID.TID 0000.0001)         System time:   0.0000000000000000
(PID.TID 0000.0001)     Wall clock time:  4.47454452514648438E-002
(PID.TID 0000.0001)          No. starts:          20
(PID.TID 0000.0001)           No. stops:          20
(PID.TID 0000.0001)   Seconds in section "THERMODYNAMICS      [FORWARD_STEP]":
(PID.TID 0000.0001)           User time:   2.1699999999999964
(PID.TID 0000.0001)         System time:   0.0000000000000000
(PID.TID 0000.0001)     Wall clock time:   2.1712508201599121
(PID.TID 0000.0001)          No. starts:          20
(PID.TID 0000.0001)           No. stops:          20
(PID.TID 0000.0001)   Seconds in section "DYNAMICS            [FORWARD_STEP]":
(PID.TID 0000.0001)           User time:   5.2999999999999989
(PID.TID 0000.0001)         System time:   0.0000000000000000
(PID.TID 0000.0001)     Wall clock time:   5.3048253059387207
(PID.TID 0000.0001)          No. starts:          20
(PID.TID 0000.0001)           No. stops:          20
(PID.TID 0000.0001)   Seconds in section "UPDATE_SURF_DR      [FORWARD_STEP]":
(PID.TID 0000.0001)           User time:  3.00000000000011369E-002
(PID.TID 0000.0001)         System time:   0.0000000000000000
(PID.TID 0000.0001)     Wall clock time:  5.73086738586425781E-002
(PID.TID 0000.0001)          No. starts:          20
(PID.TID 0000.0001)           No. stops:          20
(PID.TID 0000.0001)   Seconds in section "SOLVE_FOR_PRESSURE  [FORWARD_STEP]":
(PID.TID 0000.0001)           User time:   2.5900000000000034
(PID.TID 0000.0001)         System time:   0.0000000000000000
(PID.TID 0000.0001)     Wall clock time:   2.5824534893035889
(PID.TID 0000.0001)          No. starts:          20
(PID.TID 0000.0001)           No. stops:          20
(PID.TID 0000.0001)   Seconds in section "MOM_CORRECTION_STEP [FORWARD_STEP]":
(PID.TID 0000.0001)           User time:  0.17999999999999972
(PID.TID 0000.0001)         System time:   0.0000000000000000
(PID.TID 0000.0001)     Wall clock time:  0.17822813987731934
(PID.TID 0000.0001)          No. starts:          20
(PID.TID 0000.0001)           No. stops:          20
(PID.TID 0000.0001)   Seconds in section "INTEGR_CONTINUITY   [FORWARD_STEP]":
(PID.TID 0000.0001)           User time:  0.32000000000000028
(PID.TID 0000.0001)         System time:   0.0000000000000000
(PID.TID 0000.0001)     Wall clock time:  0.31131148338317871
(PID.TID 0000.0001)          No. starts:          20
(PID.TID 0000.0001)           No. stops:          20
(PID.TID 0000.0001)   Seconds in section "TRC_CORRECTION_STEP [FORWARD_STEP]":
(PID.TID 0000.0001)           User time:  0.98000000000000043
(PID.TID 0000.0001)         System time:   0.0000000000000000
(PID.TID 0000.0001)     Wall clock time:  0.98070430755615234
(PID.TID 0000.0001)          No. starts:          20
(PID.TID 0000.0001)           No. stops:          20
(PID.TID 0000.0001)   Seconds in section "BLOCKING_EXCHANGES  [FORWARD_STEP]":
(PID.TID 0000.0001)           User time:  7.99999999999982947E-002
(PID.TID 0000.0001)         System time:   0.0000000000000000
(PID.TID 0000.0001)     Wall clock time:  0.10008597373962402
(PID.TID 0000.0001)          No. starts:          20
(PID.TID 0000.0001)           No. stops:          20
(PID.TID 0000.0001)   Seconds in section "DO_STATEVARS_TAVE   [FORWARD_STEP]":
(PID.TID 0000.0001)           User time:   0.0000000000000000
(PID.TID 0000.0001)         System time:   0.0000000000000000
(PID.TID 0000.0001)     Wall clock time:  1.70469284057617188E-004
(PID.TID 0000.0001)          No. starts:          20
(PID.TID 0000.0001)           No. stops:          20
(PID.TID 0000.0001)   Seconds in section "MONITOR             [FORWARD_STEP]":
(PID.TID 0000.0001)           User time:   1.4499999999999993
(PID.TID 0000.0001)         System time:   0.0000000000000000
(PID.TID 0000.0001)     Wall clock time:   1.4783909320831299
(PID.TID 0000.0001)          No. starts:          20
(PID.TID 0000.0001)           No. stops:          20
(PID.TID 0000.0001)   Seconds in section "DO_THE_MODEL_IO     [FORWARD_STEP]":
(PID.TID 0000.0001)           User time:  3.99999999999991473E-002
(PID.TID 0000.0001)         System time:  1.00000000000000019E-002
(PID.TID 0000.0001)     Wall clock time:  4.92582321166992188E-002
(PID.TID 0000.0001)          No. starts:          20
(PID.TID 0000.0001)           No. stops:          20
(PID.TID 0000.0001)   Seconds in section "DO_WRITE_PICKUP     [FORWARD_STEP]":
(PID.TID 0000.0001)           User time:  7.00000000000002842E-002
(PID.TID 0000.0001)         System time:  1.00000000000000019E-002
(PID.TID 0000.0001)     Wall clock time:  7.97162055969238281E-002
(PID.TID 0000.0001)          No. starts:          20
(PID.TID 0000.0001)           No. stops:          20
(PID.TID 0000.0001) // ======================================================
(PID.TID 0000.0001) // Tile <-> Tile communication statistics
(PID.TID 0000.0001) // ======================================================
(PID.TID 0000.0001) // o Tile number: 000001
(PID.TID 0000.0001) //         No. X exchanges =              0
(PID.TID 0000.0001) //            Max. X spins =              0
(PID.TID 0000.0001) //            Min. X spins =     1000000000
(PID.TID 0000.0001) //          Total. X spins =              0
(PID.TID 0000.0001) //            Avg. X spins =       0.00E+00
(PID.TID 0000.0001) //         No. Y exchanges =              0
(PID.TID 0000.0001) //            Max. Y spins =              0
(PID.TID 0000.0001) //            Min. Y spins =     1000000000
(PID.TID 0000.0001) //          Total. Y spins =              0
(PID.TID 0000.0001) //            Avg. Y spins =       0.00E+00
(PID.TID 0000.0001) // o Tile number: 000002
(PID.TID 0000.0001) //         No. X exchanges =              0
(PID.TID 0000.0001) //            Max. X spins =              0
(PID.TID 0000.0001) //            Min. X spins =     1000000000
(PID.TID 0000.0001) //          Total. X spins =              0
(PID.TID 0000.0001) //            Avg. X spins =       0.00E+00
(PID.TID 0000.0001) //         No. Y exchanges =              0
(PID.TID 0000.0001) //            Max. Y spins =              0
(PID.TID 0000.0001) //            Min. Y spins =     1000000000
(PID.TID 0000.0001) //          Total. Y spins =              0
(PID.TID 0000.0001) //            Avg. Y spins =       0.00E+00
(PID.TID 0000.0001) // o Thread number: 000001
(PID.TID 0000.0001) //            No. barriers =          28854
(PID.TID 0000.0001) //      Max. barrier spins =              1
(PID.TID 0000.0001) //      Min. barrier spins =              1
(PID.TID 0000.0001) //     Total barrier spins =          28854
(PID.TID 0000.0001) //      Avg. barrier spins =       1.00E+00
PROGRAM MAIN: Execution ended Normally
