(PID.TID 0000.0001) 
(PID.TID 0000.0001) // ======================================================
(PID.TID 0000.0001) //                      MITgcm UV
(PID.TID 0000.0001) //                      =========
(PID.TID 0000.0001) // ======================================================
(PID.TID 0000.0001) // execution environment starting up...
(PID.TID 0000.0001) 
(PID.TID 0000.0001) // MITgcmUV version:  checkpoint57s_post
(PID.TID 0000.0001) // Build user:        jmc
(PID.TID 0000.0001) // Build host:        faulks
(PID.TID 0000.0001) // Build date:        Wed Sep 28 20:40:13 EDT 2005
(PID.TID 0000.0001) 
(PID.TID 0000.0001) // =======================================================
(PID.TID 0000.0001) // Execution Environment parameter file "eedata"
(PID.TID 0000.0001) // =======================================================
(PID.TID 0000.0001) ># Example "eedata" file
(PID.TID 0000.0001) ># Lines beginning "#" are comments
(PID.TID 0000.0001) ># nTx - No. threads per process in X
(PID.TID 0000.0001) ># nTy - No. threads per process in Y
(PID.TID 0000.0001) > &EEPARMS
(PID.TID 0000.0001) > &
(PID.TID 0000.0001) ># Note: Some systems use & as the
(PID.TID 0000.0001) ># namelist terminator. Other systems
(PID.TID 0000.0001) ># use a / character (as shown here).
(PID.TID 0000.0001) 
(PID.TID 0000.0001) // =======================================================
(PID.TID 0000.0001) // Computational Grid Specification ( see files "SIZE.h" )
(PID.TID 0000.0001) //                                  ( and "eedata"       )
(PID.TID 0000.0001) // =======================================================
(PID.TID 0000.0001)      nPx =    1 ; /* No. processes in X */
(PID.TID 0000.0001)      nPy =    1 ; /* No. processes in Y */
(PID.TID 0000.0001)      nSx =   10 ; /* No. tiles in X per process */
(PID.TID 0000.0001)      nSy =    3 ; /* No. tiles in Y per process */
(PID.TID 0000.0001)      sNx =   20 ; /* Tile size in X */
(PID.TID 0000.0001)      sNy =   15 ; /* Tile size in Y */
(PID.TID 0000.0001)      OLx =    3 ; /* Tile overlap distance in X */
(PID.TID 0000.0001)      OLy =    3 ; /* Tile overlap distance in Y */
(PID.TID 0000.0001)      nTx =    1 ; /* No. threads in X per process */
(PID.TID 0000.0001)      nTy =    1 ; /* No. threads in Y per process */
(PID.TID 0000.0001)       Nr =   25 ; /* No. levels in the vertical   */
(PID.TID 0000.0001)       nX =  200 ; /* Total domain size in X ( = nPx*nSx*sNx ) */
(PID.TID 0000.0001)       nY =   45 ; /* Total domain size in Y ( = nPy*nSy*sNy ) */
(PID.TID 0000.0001)   nTiles =   30 ; /* Total no. tiles per process ( = nSx*nSy ) */
(PID.TID 0000.0001)   nProcs =    1 ; /* Total no. processes ( = nPx*nPy ) */
(PID.TID 0000.0001) nThreads =    1 ; /* Total no. threads per process ( = nTx*nTy ) */
(PID.TID 0000.0001) usingMPI =    F ; /* Flag used to control whether MPI is in use */
(PID.TID 0000.0001)                   /*  note: To execute a program with MPI calls */
(PID.TID 0000.0001)                   /*  it must be launched appropriately e.g     */
(PID.TID 0000.0001)                   /*  "mpirun -np 64 ......"                    */
(PID.TID 0000.0001) useCoupler=   F ; /* Flag used to control communications with */
(PID.TID 0000.0001)                   /*  other model components, through a coupler */
(PID.TID 0000.0001) 
(PID.TID 0000.0001) // ======================================================
(PID.TID 0000.0001) // Mapping of tiles to threads
(PID.TID 0000.0001) // ======================================================
(PID.TID 0000.0001) // -o- Thread   1, tiles (   1:  10,   1:   3)
(PID.TID 0000.0001) 
(PID.TID 0000.0001) // ======================================================
(PID.TID 0000.0001) // Tile <-> Tile connectvity table
(PID.TID 0000.0001) // ======================================================
(PID.TID 0000.0001) // Tile number: 000001 (process no. = 000001)
(PID.TID 0000.0001) //        WEST: Tile = 000010, Process = 000001, Comm = put
(PID.TID 0000.0001) //                bi = 000010, bj = 000001
(PID.TID 0000.0001) //        EAST: Tile = 000002, Process = 000001, Comm = put
(PID.TID 0000.0001) //                bi = 000002, bj = 000001
(PID.TID 0000.0001) //       SOUTH: Tile = 000021, Process = 000001, Comm = put
(PID.TID 0000.0001) //                bi = 000001, bj = 000003
(PID.TID 0000.0001) //       NORTH: Tile = 000011, Process = 000001, Comm = put
(PID.TID 0000.0001) //                bi = 000001, bj = 000002
(PID.TID 0000.0001) // Tile number: 000002 (process no. = 000001)
(PID.TID 0000.0001) //        WEST: Tile = 000001, Process = 000001, Comm = put
(PID.TID 0000.0001) //                bi = 000001, bj = 000001
(PID.TID 0000.0001) //        EAST: Tile = 000003, Process = 000001, Comm = put
(PID.TID 0000.0001) //                bi = 000003, bj = 000001
(PID.TID 0000.0001) //       SOUTH: Tile = 000022, Process = 000001, Comm = put
(PID.TID 0000.0001) //                bi = 000002, bj = 000003
(PID.TID 0000.0001) //       NORTH: Tile = 000012, Process = 000001, Comm = put
(PID.TID 0000.0001) //                bi = 000002, bj = 000002
(PID.TID 0000.0001) // Tile number: 000003 (process no. = 000001)
(PID.TID 0000.0001) //        WEST: Tile = 000002, Process = 000001, Comm = put
(PID.TID 0000.0001) //                bi = 000002, bj = 000001
(PID.TID 0000.0001) //        EAST: Tile = 000004, Process = 000001, Comm = put
(PID.TID 0000.0001) //                bi = 000004, bj = 000001
(PID.TID 0000.0001) //       SOUTH: Tile = 000023, Process = 000001, Comm = put
(PID.TID 0000.0001) //                bi = 000003, bj = 000003
(PID.TID 0000.0001) //       NORTH: Tile = 000013, Process = 000001, Comm = put
(PID.TID 0000.0001) //                bi = 000003, bj = 000002
(PID.TID 0000.0001) // Tile number: 000004 (process no. = 000001)
(PID.TID 0000.0001) //        WEST: Tile = 000003, Process = 000001, Comm = put
(PID.TID 0000.0001) //                bi = 000003, bj = 000001
(PID.TID 0000.0001) //        EAST: Tile = 000005, Process = 000001, Comm = put
(PID.TID 0000.0001) //                bi = 000005, bj = 000001
(PID.TID 0000.0001) //       SOUTH: Tile = 000024, Process = 000001, Comm = put
(PID.TID 0000.0001) //                bi = 000004, bj = 000003
(PID.TID 0000.0001) //       NORTH: Tile = 000014, Process = 000001, Comm = put
(PID.TID 0000.0001) //                bi = 000004, bj = 000002
(PID.TID 0000.0001) // Tile number: 000005 (process no. = 000001)
(PID.TID 0000.0001) //        WEST: Tile = 000004, Process = 000001, Comm = put
(PID.TID 0000.0001) //                bi = 000004, bj = 000001
(PID.TID 0000.0001) //        EAST: Tile = 000006, Process = 000001, Comm = put
(PID.TID 0000.0001) //                bi = 000006, bj = 000001
(PID.TID 0000.0001) //       SOUTH: Tile = 000025, Process = 000001, Comm = put
(PID.TID 0000.0001) //                bi = 000005, bj = 000003
(PID.TID 0000.0001) //       NORTH: Tile = 000015, Process = 000001, Comm = put
(PID.TID 0000.0001) //                bi = 000005, bj = 000002
(PID.TID 0000.0001) // Tile number: 000006 (process no. = 000001)
(PID.TID 0000.0001) //        WEST: Tile = 000005, Process = 000001, Comm = put
(PID.TID 0000.0001) //                bi = 000005, bj = 000001
(PID.TID 0000.0001) //        EAST: Tile = 000007, Process = 000001, Comm = put
(PID.TID 0000.0001) //                bi = 000007, bj = 000001
(PID.TID 0000.0001) //       SOUTH: Tile = 000026, Process = 000001, Comm = put
(PID.TID 0000.0001) //                bi = 000006, bj = 000003
(PID.TID 0000.0001) //       NORTH: Tile = 000016, Process = 000001, Comm = put
(PID.TID 0000.0001) //                bi = 000006, bj = 000002
(PID.TID 0000.0001) // Tile number: 000007 (process no. = 000001)
(PID.TID 0000.0001) //        WEST: Tile = 000006, Process = 000001, Comm = put
(PID.TID 0000.0001) //                bi = 000006, bj = 000001
(PID.TID 0000.0001) //        EAST: Tile = 000008, Process = 000001, Comm = put
(PID.TID 0000.0001) //                bi = 000008, bj = 000001
(PID.TID 0000.0001) //       SOUTH: Tile = 000027, Process = 000001, Comm = put
(PID.TID 0000.0001) //                bi = 000007, bj = 000003
(PID.TID 0000.0001) //       NORTH: Tile = 000017, Process = 000001, Comm = put
(PID.TID 0000.0001) //                bi = 000007, bj = 000002
(PID.TID 0000.0001) // Tile number: 000008 (process no. = 000001)
(PID.TID 0000.0001) //        WEST: Tile = 000007, Process = 000001, Comm = put
(PID.TID 0000.0001) //                bi = 000007, bj = 000001
(PID.TID 0000.0001) //        EAST: Tile = 000009, Process = 000001, Comm = put
(PID.TID 0000.0001) //                bi = 000009, bj = 000001
(PID.TID 0000.0001) //       SOUTH: Tile = 000028, Process = 000001, Comm = put
(PID.TID 0000.0001) //                bi = 000008, bj = 000003
(PID.TID 0000.0001) //       NORTH: Tile = 000018, Process = 000001, Comm = put
(PID.TID 0000.0001) //                bi = 000008, bj = 000002
(PID.TID 0000.0001) // Tile number: 000009 (process no. = 000001)
(PID.TID 0000.0001) //        WEST: Tile = 000008, Process = 000001, Comm = put
(PID.TID 0000.0001) //                bi = 000008, bj = 000001
(PID.TID 0000.0001) //        EAST: Tile = 000010, Process = 000001, Comm = put
(PID.TID 0000.0001) //                bi = 000010, bj = 000001
(PID.TID 0000.0001) //       SOUTH: Tile = 000029, Process = 000001, Comm = put
(PID.TID 0000.0001) //                bi = 000009, bj = 000003
(PID.TID 0000.0001) //       NORTH: Tile = 000019, Process = 000001, Comm = put
(PID.TID 0000.0001) //                bi = 000009, bj = 000002
(PID.TID 0000.0001) // Tile number: 000010 (process no. = 000001)
(PID.TID 0000.0001) //        WEST: Tile = 000009, Process = 000001, Comm = put
(PID.TID 0000.0001) //                bi = 000009, bj = 000001
(PID.TID 0000.0001) //        EAST: Tile = 000001, Process = 000001, Comm = put
(PID.TID 0000.0001) //                bi = 000001, bj = 000001
(PID.TID 0000.0001) //       SOUTH: Tile = 000030, Process = 000001, Comm = put
(PID.TID 0000.0001) //                bi = 000010, bj = 000003
(PID.TID 0000.0001) //       NORTH: Tile = 000020, Process = 000001, Comm = put
(PID.TID 0000.0001) //                bi = 000010, bj = 000002
(PID.TID 0000.0001) // Tile number: 000011 (process no. = 000001)
(PID.TID 0000.0001) //        WEST: Tile = 000020, Process = 000001, Comm = put
(PID.TID 0000.0001) //                bi = 000010, bj = 000002
(PID.TID 0000.0001) //        EAST: Tile = 000012, Process = 000001, Comm = put
(PID.TID 0000.0001) //                bi = 000002, bj = 000002
(PID.TID 0000.0001) //       SOUTH: Tile = 000001, Process = 000001, Comm = put
(PID.TID 0000.0001) //                bi = 000001, bj = 000001
(PID.TID 0000.0001) //       NORTH: Tile = 000021, Process = 000001, Comm = put
(PID.TID 0000.0001) //                bi = 000001, bj = 000003
(PID.TID 0000.0001) // Tile number: 000012 (process no. = 000001)
(PID.TID 0000.0001) //        WEST: Tile = 000011, Process = 000001, Comm = put
(PID.TID 0000.0001) //                bi = 000001, bj = 000002
(PID.TID 0000.0001) //        EAST: Tile = 000013, Process = 000001, Comm = put
(PID.TID 0000.0001) //                bi = 000003, bj = 000002
(PID.TID 0000.0001) //       SOUTH: Tile = 000002, Process = 000001, Comm = put
(PID.TID 0000.0001) //                bi = 000002, bj = 000001
(PID.TID 0000.0001) //       NORTH: Tile = 000022, Process = 000001, Comm = put
(PID.TID 0000.0001) //                bi = 000002, bj = 000003
(PID.TID 0000.0001) // Tile number: 000013 (process no. = 000001)
(PID.TID 0000.0001) //        WEST: Tile = 000012, Process = 000001, Comm = put
(PID.TID 0000.0001) //                bi = 000002, bj = 000002
(PID.TID 0000.0001) //        EAST: Tile = 000014, Process = 000001, Comm = put
(PID.TID 0000.0001) //                bi = 000004, bj = 000002
(PID.TID 0000.0001) //       SOUTH: Tile = 000003, Process = 000001, Comm = put
(PID.TID 0000.0001) //                bi = 000003, bj = 000001
(PID.TID 0000.0001) //       NORTH: Tile = 000023, Process = 000001, Comm = put
(PID.TID 0000.0001) //                bi = 000003, bj = 000003
(PID.TID 0000.0001) // Tile number: 000014 (process no. = 000001)
(PID.TID 0000.0001) //        WEST: Tile = 000013, Process = 000001, Comm = put
(PID.TID 0000.0001) //                bi = 000003, bj = 000002
(PID.TID 0000.0001) //        EAST: Tile = 000015, Process = 000001, Comm = put
(PID.TID 0000.0001) //                bi = 000005, bj = 000002
(PID.TID 0000.0001) //       SOUTH: Tile = 000004, Process = 000001, Comm = put
(PID.TID 0000.0001) //                bi = 000004, bj = 000001
(PID.TID 0000.0001) //       NORTH: Tile = 000024, Process = 000001, Comm = put
(PID.TID 0000.0001) //                bi = 000004, bj = 000003
(PID.TID 0000.0001) // Tile number: 000015 (process no. = 000001)
(PID.TID 0000.0001) //        WEST: Tile = 000014, Process = 000001, Comm = put
(PID.TID 0000.0001) //                bi = 000004, bj = 000002
(PID.TID 0000.0001) //        EAST: Tile = 000016, Process = 000001, Comm = put
(PID.TID 0000.0001) //                bi = 000006, bj = 000002
(PID.TID 0000.0001) //       SOUTH: Tile = 000005, Process = 000001, Comm = put
(PID.TID 0000.0001) //                bi = 000005, bj = 000001
(PID.TID 0000.0001) //       NORTH: Tile = 000025, Process = 000001, Comm = put
(PID.TID 0000.0001) //                bi = 000005, bj = 000003
(PID.TID 0000.0001) // Tile number: 000016 (process no. = 000001)
(PID.TID 0000.0001) //        WEST: Tile = 000015, Process = 000001, Comm = put
(PID.TID 0000.0001) //                bi = 000005, bj = 000002
(PID.TID 0000.0001) //        EAST: Tile = 000017, Process = 000001, Comm = put
(PID.TID 0000.0001) //                bi = 000007, bj = 000002
(PID.TID 0000.0001) //       SOUTH: Tile = 000006, Process = 000001, Comm = put
(PID.TID 0000.0001) //                bi = 000006, bj = 000001
(PID.TID 0000.0001) //       NORTH: Tile = 000026, Process = 000001, Comm = put
(PID.TID 0000.0001) //                bi = 000006, bj = 000003
(PID.TID 0000.0001) // Tile number: 000017 (process no. = 000001)
(PID.TID 0000.0001) //        WEST: Tile = 000016, Process = 000001, Comm = put
(PID.TID 0000.0001) //                bi = 000006, bj = 000002
(PID.TID 0000.0001) //        EAST: Tile = 000018, Process = 000001, Comm = put
(PID.TID 0000.0001) //                bi = 000008, bj = 000002
(PID.TID 0000.0001) //       SOUTH: Tile = 000007, Process = 000001, Comm = put
(PID.TID 0000.0001) //                bi = 000007, bj = 000001
(PID.TID 0000.0001) //       NORTH: Tile = 000027, Process = 000001, Comm = put
(PID.TID 0000.0001) //                bi = 000007, bj = 000003
(PID.TID 0000.0001) // Tile number: 000018 (process no. = 000001)
(PID.TID 0000.0001) //        WEST: Tile = 000017, Process = 000001, Comm = put
(PID.TID 0000.0001) //                bi = 000007, bj = 000002
(PID.TID 0000.0001) //        EAST: Tile = 000019, Process = 000001, Comm = put
(PID.TID 0000.0001) //                bi = 000009, bj = 000002
(PID.TID 0000.0001) //       SOUTH: Tile = 000008, Process = 000001, Comm = put
(PID.TID 0000.0001) //                bi = 000008, bj = 000001
(PID.TID 0000.0001) //       NORTH: Tile = 000028, Process = 000001, Comm = put
(PID.TID 0000.0001) //                bi = 000008, bj = 000003
(PID.TID 0000.0001) // Tile number: 000019 (process no. = 000001)
(PID.TID 0000.0001) //        WEST: Tile = 000018, Process = 000001, Comm = put
(PID.TID 0000.0001) //                bi = 000008, bj = 000002
(PID.TID 0000.0001) //        EAST: Tile = 000020, Process = 000001, Comm = put
(PID.TID 0000.0001) //                bi = 000010, bj = 000002
(PID.TID 0000.0001) //       SOUTH: Tile = 000009, Process = 000001, Comm = put
(PID.TID 0000.0001) //                bi = 000009, bj = 000001
(PID.TID 0000.0001) //       NORTH: Tile = 000029, Process = 000001, Comm = put
(PID.TID 0000.0001) //                bi = 000009, bj = 000003
(PID.TID 0000.0001) // Tile number: 000020 (process no. = 000001)
(PID.TID 0000.0001) //        WEST: Tile = 000019, Process = 000001, Comm = put
(PID.TID 0000.0001) //                bi = 000009, bj = 000002
(PID.TID 0000.0001) //        EAST: Tile = 000011, Process = 000001, Comm = put
(PID.TID 0000.0001) //                bi = 000001, bj = 000002
(PID.TID 0000.0001) //       SOUTH: Tile = 000010, Process = 000001, Comm = put
(PID.TID 0000.0001) //                bi = 000010, bj = 000001
(PID.TID 0000.0001) //       NORTH: Tile = 000030, Process = 000001, Comm = put
(PID.TID 0000.0001) //                bi = 000010, bj = 000003
(PID.TID 0000.0001) // Tile number: 000021 (process no. = 000001)
(PID.TID 0000.0001) //        WEST: Tile = 000030, Process = 000001, Comm = put
(PID.TID 0000.0001) //                bi = 000010, bj = 000003
(PID.TID 0000.0001) //        EAST: Tile = 000022, Process = 000001, Comm = put
(PID.TID 0000.0001) //                bi = 000002, bj = 000003
(PID.TID 0000.0001) //       SOUTH: Tile = 000011, Process = 000001, Comm = put
(PID.TID 0000.0001) //                bi = 000001, bj = 000002
(PID.TID 0000.0001) //       NORTH: Tile = 000001, Process = 000001, Comm = put
(PID.TID 0000.0001) //                bi = 000001, bj = 000001
(PID.TID 0000.0001) // Tile number: 000022 (process no. = 000001)
(PID.TID 0000.0001) //        WEST: Tile = 000021, Process = 000001, Comm = put
(PID.TID 0000.0001) //                bi = 000001, bj = 000003
(PID.TID 0000.0001) //        EAST: Tile = 000023, Process = 000001, Comm = put
(PID.TID 0000.0001) //                bi = 000003, bj = 000003
(PID.TID 0000.0001) //       SOUTH: Tile = 000012, Process = 000001, Comm = put
(PID.TID 0000.0001) //                bi = 000002, bj = 000002
(PID.TID 0000.0001) //       NORTH: Tile = 000002, Process = 000001, Comm = put
(PID.TID 0000.0001) //                bi = 000002, bj = 000001
(PID.TID 0000.0001) // Tile number: 000023 (process no. = 000001)
(PID.TID 0000.0001) //        WEST: Tile = 000022, Process = 000001, Comm = put
(PID.TID 0000.0001) //                bi = 000002, bj = 000003
(PID.TID 0000.0001) //        EAST: Tile = 000024, Process = 000001, Comm = put
(PID.TID 0000.0001) //                bi = 000004, bj = 000003
(PID.TID 0000.0001) //       SOUTH: Tile = 000013, Process = 000001, Comm = put
(PID.TID 0000.0001) //                bi = 000003, bj = 000002
(PID.TID 0000.0001) //       NORTH: Tile = 000003, Process = 000001, Comm = put
(PID.TID 0000.0001) //                bi = 000003, bj = 000001
(PID.TID 0000.0001) // Tile number: 000024 (process no. = 000001)
(PID.TID 0000.0001) //        WEST: Tile = 000023, Process = 000001, Comm = put
(PID.TID 0000.0001) //                bi = 000003, bj = 000003
(PID.TID 0000.0001) //        EAST: Tile = 000025, Process = 000001, Comm = put
(PID.TID 0000.0001) //                bi = 000005, bj = 000003
(PID.TID 0000.0001) //       SOUTH: Tile = 000014, Process = 000001, Comm = put
(PID.TID 0000.0001) //                bi = 000004, bj = 000002
(PID.TID 0000.0001) //       NORTH: Tile = 000004, Process = 000001, Comm = put
(PID.TID 0000.0001) //                bi = 000004, bj = 000001
(PID.TID 0000.0001) // Tile number: 000025 (process no. = 000001)
(PID.TID 0000.0001) //        WEST: Tile = 000024, Process = 000001, Comm = put
(PID.TID 0000.0001) //                bi = 000004, bj = 000003
(PID.TID 0000.0001) //        EAST: Tile = 000026, Process = 000001, Comm = put
(PID.TID 0000.0001) //                bi = 000006, bj = 000003
(PID.TID 0000.0001) //       SOUTH: Tile = 000015, Process = 000001, Comm = put
(PID.TID 0000.0001) //                bi = 000005, bj = 000002
(PID.TID 0000.0001) //       NORTH: Tile = 000005, Process = 000001, Comm = put
(PID.TID 0000.0001) //                bi = 000005, bj = 000001
(PID.TID 0000.0001) // Tile number: 000026 (process no. = 000001)
(PID.TID 0000.0001) //        WEST: Tile = 000025, Process = 000001, Comm = put
(PID.TID 0000.0001) //                bi = 000005, bj = 000003
(PID.TID 0000.0001) //        EAST: Tile = 000027, Process = 000001, Comm = put
(PID.TID 0000.0001) //                bi = 000007, bj = 000003
(PID.TID 0000.0001) //       SOUTH: Tile = 000016, Process = 000001, Comm = put
(PID.TID 0000.0001) //                bi = 000006, bj = 000002
(PID.TID 0000.0001) //       NORTH: Tile = 000006, Process = 000001, Comm = put
(PID.TID 0000.0001) //                bi = 000006, bj = 000001
(PID.TID 0000.0001) // Tile number: 000027 (process no. = 000001)
(PID.TID 0000.0001) //        WEST: Tile = 000026, Process = 000001, Comm = put
(PID.TID 0000.0001) //                bi = 000006, bj = 000003
(PID.TID 0000.0001) //        EAST: Tile = 000028, Process = 000001, Comm = put
(PID.TID 0000.0001) //                bi = 000008, bj = 000003
(PID.TID 0000.0001) //       SOUTH: Tile = 000017, Process = 000001, Comm = put
(PID.TID 0000.0001) //                bi = 000007, bj = 000002
(PID.TID 0000.0001) //       NORTH: Tile = 000007, Process = 000001, Comm = put
(PID.TID 0000.0001) //                bi = 000007, bj = 000001
(PID.TID 0000.0001) // Tile number: 000028 (process no. = 000001)
(PID.TID 0000.0001) //        WEST: Tile = 000027, Process = 000001, Comm = put
(PID.TID 0000.0001) //                bi = 000007, bj = 000003
(PID.TID 0000.0001) //        EAST: Tile = 000029, Process = 000001, Comm = put
(PID.TID 0000.0001) //                bi = 000009, bj = 000003
(PID.TID 0000.0001) //       SOUTH: Tile = 000018, Process = 000001, Comm = put
(PID.TID 0000.0001) //                bi = 000008, bj = 000002
(PID.TID 0000.0001) //       NORTH: Tile = 000008, Process = 000001, Comm = put
(PID.TID 0000.0001) //                bi = 000008, bj = 000001
(PID.TID 0000.0001) // Tile number: 000029 (process no. = 000001)
(PID.TID 0000.0001) //        WEST: Tile = 000028, Process = 000001, Comm = put
(PID.TID 0000.0001) //                bi = 000008, bj = 000003
(PID.TID 0000.0001) //        EAST: Tile = 000030, Process = 000001, Comm = put
(PID.TID 0000.0001) //                bi = 000010, bj = 000003
(PID.TID 0000.0001) //       SOUTH: Tile = 000019, Process = 000001, Comm = put
(PID.TID 0000.0001) //                bi = 000009, bj = 000002
(PID.TID 0000.0001) //       NORTH: Tile = 000009, Process = 000001, Comm = put
(PID.TID 0000.0001) //                bi = 000009, bj = 000001
(PID.TID 0000.0001) // Tile number: 000030 (process no. = 000001)
(PID.TID 0000.0001) //        WEST: Tile = 000029, Process = 000001, Comm = put
(PID.TID 0000.0001) //                bi = 000009, bj = 000003
(PID.TID 0000.0001) //        EAST: Tile = 000021, Process = 000001, Comm = put
(PID.TID 0000.0001) //                bi = 000001, bj = 000003
(PID.TID 0000.0001) //       SOUTH: Tile = 000020, Process = 000001, Comm = put
(PID.TID 0000.0001) //                bi = 000010, bj = 000002
(PID.TID 0000.0001) //       NORTH: Tile = 000010, Process = 000001, Comm = put
(PID.TID 0000.0001) //                bi = 000010, bj = 000001
(PID.TID 0000.0001) 
(PID.TID 0000.0001) // =======================================================
(PID.TID 0000.0001) // Model parameter file "data"
(PID.TID 0000.0001) // =======================================================
(PID.TID 0000.0001) ># ====================
(PID.TID 0000.0001) ># | Model parameters |
(PID.TID 0000.0001) ># ====================
(PID.TID 0000.0001) >#
(PID.TID 0000.0001) ># Continuous equation parameters
(PID.TID 0000.0001) > &PARM01
(PID.TID 0000.0001) > Tref = -0.194175, -0.582524, -0.970874, -1.35922, -1.74757,
(PID.TID 0000.0001) >        -2.13592, -2.52427, -2.91262, -3.30097, -3.68932,
(PID.TID 0000.0001) >	-4.07767, -4.46602, -4.85437, -5.24272, -5.63107,
(PID.TID 0000.0001) >	-6.01942, -6.40777, -6.79612, -7.18447, -7.57282,
(PID.TID 0000.0001) >	-7.96117, -8.34951, -8.73786, -9.12621, -9.51456,
(PID.TID 0000.0001) > sRef= 25*1.,
(PID.TID 0000.0001) > viscAz=5.E-1,
(PID.TID 0000.0001) > viscAh=0.0E0,
(PID.TID 0000.0001) > no_slip_sides=.TRUE.,
(PID.TID 0000.0001) > no_slip_bottom=.TRUE.,
(PID.TID 0000.0001) >#- a trick to recover old version of side-drag:
(PID.TID 0000.0001) >#sideDragFactor=0.,
(PID.TID 0000.0001) >#-
(PID.TID 0000.0001) > bottomDragQuadratic=2.E-3,
(PID.TID 0000.0001) > viscA4=0.E12,
(PID.TID 0000.0001) > viscC4Leith=1.458198138065,
(PID.TID 0000.0001) > useAreaViscLength=.TRUE.,
(PID.TID 0000.0001) > diffKhT=0.0E0
(PID.TID 0000.0001) > diffKzT=0.E-2,
(PID.TID 0000.0001) > diffKhS=0.E0,
(PID.TID 0000.0001) > diffKzS=0.E-2,
(PID.TID 0000.0001) > f0=1.0e-4,
(PID.TID 0000.0001) > beta=0.E-11,
(PID.TID 0000.0001) > tAlpha=2.E-4,
(PID.TID 0000.0001) > sBeta =0.E-4,
(PID.TID 0000.0001) > gravity=9.81,
(PID.TID 0000.0001) > rhonil=1030.0,
(PID.TID 0000.0001) > rigidLid=.FALSE.,
(PID.TID 0000.0001) > implicitFreeSurface=.TRUE.,
(PID.TID 0000.0001) > eosType='LINEAR',
(PID.TID 0000.0001) > hFacMin=0.2,
(PID.TID 0000.0001) > nonHydrostatic=.FALSE.,
(PID.TID 0000.0001) > multiDimAdvection=.TRUE.,
(PID.TID 0000.0001) > tempAdvScheme=77,
(PID.TID 0000.0001) > saltAdvScheme=77,
(PID.TID 0000.0001) > readBinaryPrec=64,
(PID.TID 0000.0001) > writeBinaryPrec=64,
(PID.TID 0000.0001) > writeStatePrec=64,
(PID.TID 0000.0001) > globalFiles=.TRUE.,
(PID.TID 0000.0001) > staggerTimeStep=.TRUE.,
(PID.TID 0000.0001) > vectorInvariantMomentum=.TRUE.,
(PID.TID 0000.0001) > &
(PID.TID 0000.0001) >
(PID.TID 0000.0001) ># Elliptic solver parameters
(PID.TID 0000.0001) > &PARM02
(PID.TID 0000.0001) > cg2dMaxIters=1000,
(PID.TID 0000.0001) > cg2dTargetResidual=1.E-11,
(PID.TID 0000.0001) > cg3dMaxIters=10,
(PID.TID 0000.0001) > cg3dTargetResidual=1.E-13,
(PID.TID 0000.0001) > &
(PID.TID 0000.0001) >
(PID.TID 0000.0001) ># Time stepping parameters
(PID.TID 0000.0001) > &PARM03
(PID.TID 0000.0001) > niter0=0,
(PID.TID 0000.0001) >#nTimeSteps=12000,
(PID.TID 0000.0001) > nTimeSteps=20,
(PID.TID 0000.0001) > deltaT=300.,
(PID.TID 0000.0001) > abEps=0.1,
(PID.TID 0000.0001) > pChkptFreq=0.0,
(PID.TID 0000.0001) > chkptFreq=100000.0,
(PID.TID 0000.0001) > dumpFreq=30000.,
(PID.TID 0000.0001) >#cAdjFreq=30.,
(PID.TID 0000.0001) >#monitorFreq=6000.,
(PID.TID 0000.0001) > monitorFreq=300.,
(PID.TID 0000.0001) > &
(PID.TID 0000.0001) >
(PID.TID 0000.0001) ># Gridding parameters
(PID.TID 0000.0001) > &PARM04
(PID.TID 0000.0001) > usingCartesianGrid=.TRUE.,
(PID.TID 0000.0001) > usingSphericalPolarGrid=.FALSE.,
(PID.TID 0000.0001) ># delXfile='delXvar'
(PID.TID 0000.0001) > delX=200*10000.0,
(PID.TID 0000.0001) > delYfile='delYvar',
(PID.TID 0000.0001) > delZ = 25*144.0,
(PID.TID 0000.0001) > &
(PID.TID 0000.0001) >
(PID.TID 0000.0001) ># Input datasets
(PID.TID 0000.0001) > &PARM05
(PID.TID 0000.0001) > hydrogThetaFile='T.init',
(PID.TID 0000.0001) > bathyFile='topog.slope',
(PID.TID 0000.0001) > &
(PID.TID 0000.0001) 
(PID.TID 0000.0001) S/R INI_PARMS ; starts to read PARM01
(PID.TID 0000.0001) S/R INI_PARMS ; read PARM01 : OK
(PID.TID 0000.0001) S/R INI_PARMS ; starts to read PARM02
(PID.TID 0000.0001) S/R INI_PARMS ; read PARM02 : OK
(PID.TID 0000.0001) S/R INI_PARMS ; starts to read PARM03
(PID.TID 0000.0001) S/R INI_PARMS ; read PARM03 : OK
(PID.TID 0000.0001) S/R INI_PARMS ; starts to read PARM04
(PID.TID 0000.0001) S/R INI_PARMS ; read PARM04 : OK
(PID.TID 0000.0001) S/R INI_PARMS ; starts to read PARM05
(PID.TID 0000.0001) S/R INI_PARMS ; read PARM05 : OK
(PID.TID 0000.0001)  PACKAGES_BOOT: opening data.pkg
(PID.TID 0000.0001)  OPEN_COPY_DATA_FILE: opening file data.pkg
(PID.TID 0000.0001) // =======================================================
(PID.TID 0000.0001) // Parameter file "data.pkg"
(PID.TID 0000.0001) // =======================================================
(PID.TID 0000.0001) ># Packages
(PID.TID 0000.0001) > &PACKAGES
(PID.TID 0000.0001) > useOBCS=.TRUE.,
(PID.TID 0000.0001) > useDiagnostics=.TRUE.,
(PID.TID 0000.0001) > &
(PID.TID 0000.0001) 
(PID.TID 0000.0001)  PACKAGES_BOOT: finished reading data.pkg
(PID.TID 0000.0001)  OBCS_READPARMS: opening data.obcs
(PID.TID 0000.0001)  OPEN_COPY_DATA_FILE: opening file data.obcs
(PID.TID 0000.0001) // =======================================================
(PID.TID 0000.0001) // Parameter file "data.obcs"
(PID.TID 0000.0001) // =======================================================
(PID.TID 0000.0001) ># Open-boundaries
(PID.TID 0000.0001) > &OBCS_PARM01
(PID.TID 0000.0001) ># OB_Ieast=30*-1,
(PID.TID 0000.0001) > OB_Iwest=45*1,
(PID.TID 0000.0001) > OB_Jnorth=200*-1,
(PID.TID 0000.0001) ># OB_Jsouth=100*1
(PID.TID 0000.0001) ># useOrlanskiEast=.TRUE.,
(PID.TID 0000.0001) > useOrlanskiWest=.TRUE.,
(PID.TID 0000.0001) > useOrlanskiNorth=.FALSE.,
(PID.TID 0000.0001) ># useOrlanskiSouth=.TRUE.,
(PID.TID 0000.0001) > &
(PID.TID 0000.0001) >
(PID.TID 0000.0001) > &OBCS_PARM02
(PID.TID 0000.0001) > CMAX=0.5,
(PID.TID 0000.0001) ># CMAX=2.0,
(PID.TID 0000.0001) > cvelTimeScale=10000.,
(PID.TID 0000.0001) ># CFIX=0.2,
(PID.TID 0000.0001) > useFixedCEast=.FALSE.,
(PID.TID 0000.0001) > useFixedCWest=.FALSE.,
(PID.TID 0000.0001) > &
(PID.TID 0000.0001) 
 OB Jn = 45 45 45 45 45 45 45 45 45 45 45 45 45 45 45 45 45 45 45 45 45 45 45 45
 45 45 45 45 45 45 45 45 45 45 45 45 45 45 45 45 45 45 45 45 45 45 45 45 45 45
 45 45 45 45 45 45 45 45 45 45 45 45 45 45 45 45 45 45 45 45 45 45 45 45 45 45
 45 45 45 45 45 45 45 45 45 45 45 45 45 45 45 45 45 45 45 45 45 45 45 45 45 45
 45 45 45 45 45 45 45 45 45 45 45 45 45 45 45 45 45 45 45 45 45 45 45 45 45 45
 45 45 45 45 45 45 45 45 45 45 45 45 45 45 45 45 45 45 45 45 45 45 45 45 45 45
 45 45 45 45 45 45 45 45 45 45 45 45 45 45 45 45 45 45 45 45 45 45 45 45 45 45
 45 45 45 45 45 45 45 45 45 45 45 45 45 45 45 45 45 45 45 45
 OB Js = 0 0 0 0 0 0 0 0 0 0 0 0 0 0 0 0 0 0 0 0 0 0 0 0 0 0 0 0 0 0 0 0 0 0 0 0
 0 0 0 0 0 0 0 0 0 0 0 0 0 0 0 0 0 0 0 0 0 0 0 0 0 0 0 0 0 0 0 0 0 0 0 0 0 0 0 0
 0 0 0 0 0 0 0 0 0 0 0 0 0 0 0 0 0 0 0 0 0 0 0 0 0 0 0 0 0 0 0 0 0 0 0 0 0 0 0 0
 0 0 0 0 0 0 0 0 0 0 0 0 0 0 0 0 0 0 0 0 0 0 0 0 0 0 0 0 0 0 0 0 0 0 0 0 0 0 0 0
 0 0 0 0 0 0 0 0 0 0 0 0 0 0 0 0 0 0 0 0 0 0 0 0 0 0 0 0 0 0 0 0 0 0 0 0 0 0 0 0
 0 0 0 0
 OB Ie = 0 0 0 0 0 0 0 0 0 0 0 0 0 0 0 0 0 0 0 0 0 0 0 0 0 0 0 0 0 0 0 0 0 0 0 0
 0 0 0 0 0 0 0 0 0
 OB Iw = 1 1 1 1 1 1 1 1 1 1 1 1 1 1 1 1 1 1 1 1 1 1 1 1 1 1 1 1 1 1 1 1 1 1 1 1
 1 1 1 1 1 1 1 1 1
(PID.TID 0000.0001)  OBCS_READPARMS: finished reading data.obcs
(PID.TID 0000.0001)  DIAGNOSTICS_READPARMS: opening data.diagnostics
(PID.TID 0000.0001)  OPEN_COPY_DATA_FILE: opening file data.diagnostics
(PID.TID 0000.0001) // =======================================================
(PID.TID 0000.0001) // Parameter file "data.diagnostics"
(PID.TID 0000.0001) // =======================================================
(PID.TID 0000.0001) ># Diagnostic Package Choices
(PID.TID 0000.0001) >#-----------------
(PID.TID 0000.0001) ># for each output-stream:
(PID.TID 0000.0001) >#  filename(n) : prefix of the output file name (only 8.c long) for outp.stream n
(PID.TID 0000.0001) >#  frequency(n):< 0 : write snap-shot output every |frequency| seconds
(PID.TID 0000.0001) >#               > 0 : write time-average output every frequency seconds
(PID.TID 0000.0001) >#  timePhase(n)     : write at time = timePhase + multiple of |frequency|
(PID.TID 0000.0001) >#  levels(:,n) : list of levels to write to file (Notes: declared as REAL)
(PID.TID 0000.0001) >#                 when this entry is missing, select all common levels of this list
(PID.TID 0000.0001) >#  fields(:,n) : list of diagnostics fields (8.c) (see "available_diagnostics" file
(PID.TID 0000.0001) >#                 for the list of all available diag. in this particular config)
(PID.TID 0000.0001) >#-----------------
(PID.TID 0000.0001) > &diagnostics_list
(PID.TID 0000.0001) >  frequency(1) = 3000.,
(PID.TID 0000.0001) ># Omit level(1,1) to diagnose ALL levels otherwise list individual levels here
(PID.TID 0000.0001) >#  levels(1,1) = 1.,3.,5.,
(PID.TID 0000.0001) >   fields(1,1) = 'VISCA4D ',
(PID.TID 0000.0001) >   filename(1) = 'visc',
(PID.TID 0000.0001) > &end
(PID.TID 0000.0001) >
(PID.TID 0000.0001) ># Parameter for Diagnostics of per level statistics:
(PID.TID 0000.0001) >#-----------------
(PID.TID 0000.0001) ># for each output-stream:
(PID.TID 0000.0001) >#  stat_fname(n) : prefix of the output file name (only 8.c long) for outp.stream n
(PID.TID 0000.0001) >#  stat_freq(n):< 0 : write snap-shot output every |stat_freq| seconds
(PID.TID 0000.0001) >#               > 0 : write time-average output every stat_freq seconds
(PID.TID 0000.0001) >#  stat_phase(n)    : write at time = stat_phase + multiple of |stat_freq|
(PID.TID 0000.0001) >#  stat_region(:,n) : list of "regions" (default: 1 region only=global)
(PID.TID 0000.0001) >#  stat_fields(:,n) : list of diagnostics fields (8.c) (see "available_diagnostics.log"
(PID.TID 0000.0001) >#                 file for the list of all available diag. in this particular config)
(PID.TID 0000.0001) >#-----------------
(PID.TID 0000.0001) > &DIAG_STATIS_PARMS
(PID.TID 0000.0001) >#- an example just to check the agreement with MONITOR output:
(PID.TID 0000.0001) >#stat_fields(1,1)= 'ETAN    ','UVEL    ','VVEL    ','WVEL    ', 'THETA   ',
(PID.TID 0000.0001) >#   stat_fname(1)= 'dynStDiag',
(PID.TID 0000.0001) >#    stat_freq(1)= -864000.,
(PID.TID 0000.0001) >#   stat_phase(1)= 0.,
(PID.TID 0000.0001) > &
(PID.TID 0000.0001) >
(PID.TID 0000.0001) 
(PID.TID 0000.0001) S/R DIAGNOSTICS_READPARMS, read namelist "diagnostics_list": start
(PID.TID 0000.0001) S/R DIAGNOSTICS_READPARMS, read namelist "diagnostics_list": OK
(PID.TID 0000.0001) S/R DIAGNOSTICS_READPARMS, read namelist "DIAG_STATIS_PARMS": start
(PID.TID 0000.0001) S/R DIAGNOSTICS_READPARMS, read namelist "DIAG_STATIS_PARMS": OK
(PID.TID 0000.0001) -----------------------------------------------------
(PID.TID 0000.0001)  DIAGNOSTICS_READPARMS: active diagnostics summary:
(PID.TID 0000.0001) -----------------------------------------------------
(PID.TID 0000.0001) Creating Output Stream: visc
(PID.TID 0000.0001) Frequency :       3000.000000 ; Phase:          0.000000
(PID.TID 0000.0001)  Levels:    will be set later
(PID.TID 0000.0001)  Fields:    VISCA4D
(PID.TID 0000.0001) -----------------------------------------------------
(PID.TID 0000.0001)  DIAGNOSTICS_READPARMS: statistics diags. summary:
(PID.TID 0000.0001) -----------------------------------------------------
(PID.TID 0000.0001) 
(PID.TID 0000.0001) S/R LOAD_GRID_SPACING: delY loaded from file: delYvar
(PID.TID 0000.0001) %MON XC_max                       =   1.9950000000000E+06
(PID.TID 0000.0001) %MON XC_min                       =   5.0000000000000E+03
(PID.TID 0000.0001) %MON XC_mean                      =   1.0000000000000E+06
(PID.TID 0000.0001) %MON XC_sd                        =   5.7734305226615E+05
(PID.TID 0000.0001) %MON XG_max                       =   1.9900000000000E+06
(PID.TID 0000.0001) %MON XG_min                       =   1.0000000000000E+04
(PID.TID 0000.0001) %MON XG_mean                      =   1.0000000000000E+06
(PID.TID 0000.0001) %MON XG_sd                        =   5.7445626465380E+05
(PID.TID 0000.0001) %MON DXC_max                      =   1.0000000000000E+04
(PID.TID 0000.0001) %MON DXC_min                      =   1.0000000000000E+04
(PID.TID 0000.0001) %MON DXC_mean                     =   1.0000000000000E+04
(PID.TID 0000.0001) %MON DXC_sd                       =   0.0000000000000E+00
(PID.TID 0000.0001) %MON DXF_max                      =   1.0000000000000E+04
(PID.TID 0000.0001) %MON DXF_min                      =   1.0000000000000E+04
(PID.TID 0000.0001) %MON DXF_mean                     =   1.0000000000000E+04
(PID.TID 0000.0001) %MON DXF_sd                       =   0.0000000000000E+00
(PID.TID 0000.0001) %MON DXG_max                      =   1.0000000000000E+04
(PID.TID 0000.0001) %MON DXG_min                      =   1.0000000000000E+04
(PID.TID 0000.0001) %MON DXG_mean                     =   1.0000000000000E+04
(PID.TID 0000.0001) %MON DXG_sd                       =   0.0000000000000E+00
(PID.TID 0000.0001) %MON DXV_max                      =   1.0000000000000E+04
(PID.TID 0000.0001) %MON DXV_min                      =   1.0000000000000E+04
(PID.TID 0000.0001) %MON DXV_mean                     =   1.0000000000000E+04
(PID.TID 0000.0001) %MON DXV_sd                       =   0.0000000000000E+00
(PID.TID 0000.0001) %MON YC_max                       =   5.9499999998863E+05
(PID.TID 0000.0001) %MON YC_min                       =   2.1773852061364E+04
(PID.TID 0000.0001) %MON YC_mean                      =   3.6568248764828E+05
(PID.TID 0000.0001) %MON YC_sd                        =   1.4616293187418E+05
(PID.TID 0000.0001) %MON YG_max                       =   5.8999999997725E+05
(PID.TID 0000.0001) %MON YG_min                       =  -1.8189894035459E-12
(PID.TID 0000.0001) %MON YG_mean                      =   3.5901582098162E+05
(PID.TID 0000.0001) %MON YG_sd                        =   1.4918819495542E+05
(PID.TID 0000.0001) %MON DYC_max                      =   4.1655495879012E+04
(PID.TID 0000.0001) %MON DYC_min                      =   1.0000000030126E+04
(PID.TID 0000.0001) %MON DYC_mean                     =   1.3333333333333E+04
(PID.TID 0000.0001) %MON DYC_sd                       =   7.9859471312509E+03
(PID.TID 0000.0001) %MON DYF_max                      =   4.3547704122728E+04
(PID.TID 0000.0001) %MON DYF_min                      =   1.0000000022748E+04
(PID.TID 0000.0001) %MON DYF_mean                     =   1.3333333333333E+04
(PID.TID 0000.0001) %MON DYF_sd                       =   8.4257600310479E+03
(PID.TID 0000.0001) %MON DYG_max                      =   4.3547704122728E+04
(PID.TID 0000.0001) %MON DYG_min                      =   1.0000000022748E+04
(PID.TID 0000.0001) %MON DYG_mean                     =   1.3333333333333E+04
(PID.TID 0000.0001) %MON DYG_sd                       =   8.4257600310479E+03
(PID.TID 0000.0001) %MON DYU_max                      =   4.1655495879012E+04
(PID.TID 0000.0001) %MON DYU_min                      =   1.0000000030126E+04
(PID.TID 0000.0001) %MON DYU_mean                     =   1.3333333333333E+04
(PID.TID 0000.0001) %MON DYU_sd                       =   7.9859471312509E+03
(PID.TID 0000.0001) %MON RA_max                       =   4.3547704122728E+08
(PID.TID 0000.0001) %MON RA_min                       =   1.0000000022748E+08
(PID.TID 0000.0001) %MON RA_mean                      =   1.3333333333333E+08
(PID.TID 0000.0001) %MON RA_sd                        =   8.4257600310479E+07
(PID.TID 0000.0001) %MON RAW_max                      =   4.3547704122728E+08
(PID.TID 0000.0001) %MON RAW_min                      =   1.0000000022748E+08
(PID.TID 0000.0001) %MON RAW_mean                     =   1.3333333333333E+08
(PID.TID 0000.0001) %MON RAW_sd                       =   8.4257600310479E+07
(PID.TID 0000.0001) %MON RAS_max                      =   4.1655495879012E+08
(PID.TID 0000.0001) %MON RAS_min                      =   1.0000000030126E+08
(PID.TID 0000.0001) %MON RAS_mean                     =   1.3333333333333E+08
(PID.TID 0000.0001) %MON RAS_sd                       =   7.9859471312509E+07
(PID.TID 0000.0001) %MON RAZ_max                      =   4.1655495879012E+08
(PID.TID 0000.0001) %MON RAZ_min                      =   1.0000000030126E+08
(PID.TID 0000.0001) %MON RAZ_mean                     =   1.3333333333333E+08
(PID.TID 0000.0001) %MON RAZ_sd                       =   7.9859471312509E+07
(PID.TID 0000.0001) %MON AngleCS_max                  =   1.0000000000000E+00
(PID.TID 0000.0001) %MON AngleCS_min                  =   1.0000000000000E+00
(PID.TID 0000.0001) %MON AngleCS_mean                 =   1.0000000000000E+00
(PID.TID 0000.0001) %MON AngleCS_sd                   =   0.0000000000000E+00
(PID.TID 0000.0001) %MON AngleSN_max                  =   0.0000000000000E+00
(PID.TID 0000.0001) %MON AngleSN_min                  =   0.0000000000000E+00
(PID.TID 0000.0001) %MON AngleSN_mean                 =   0.0000000000000E+00
(PID.TID 0000.0001) %MON AngleSN_sd                   =   0.0000000000000E+00
(PID.TID 0000.0001)  MDSREADFIELD: opening global file: topog.slope
(PID.TID 0000.0001) // =======================================================
(PID.TID 0000.0001) // Field Model R_low (ini_masks_etc) at iteration          1
(PID.TID 0000.0001) // CMIN =         -3.600000000000000E+03
(PID.TID 0000.0001) // CMAX =         -6.048000000000000E+02
(PID.TID 0000.0001) // CINT =          1.109333333333333E+02
(PID.TID 0000.0001) // SYMBOLS (CMIN->CMAX): -abcdefghijklmnopqrstuvwxyz+
(PID.TID 0000.0001) //                  0.0: .
(PID.TID 0000.0001) // RANGE I (Lo:Hi:Step):(  -2: 203:   1)
(PID.TID 0000.0001) // RANGE J (Lo:Hi:Step):(  48:  -2:  -1)
(PID.TID 0000.0001) // RANGE K (Lo:Hi:Step):(   1:   1:   1)
(PID.TID 0000.0001) // =======================================================
(PID.TID 0000.0001) K =   1
(PID.TID 0000.0001) //                I=7       I=17      I=21      I=31      I=41      I=45      I=55      I=59      I=69      I=79      I=83      I=93      I=103     I=107     I=117     I=121     I=131     I=141     I=145     I=155     I=159     I=169     I=179     I=183     I=193     I=203
(PID.TID 0000.0001) // |--J--|**0123456|890123456|890123890|234567890|234567890|238901234|678901234|678901238|012345678|012345678|012389012|456789012|456789012|890123456|890123456|890123890|234567890|234567890|238901234|678901234|678901238|012345678|012345678|012389012|456789012|456789012|
(PID.TID 0000.0001) //     48 --.-------------------------------------------------------------------------------------------------------------------------------------------------------------------------------------------------------------------------------------------------------------.---
(PID.TID 0000.0001) //     47 --.-------------------------------------------------------------------------------------------------------------------------------------------------------------------------------------------------------------------------------------------------------------.---
(PID.TID 0000.0001) //     46 ....................................................................................................................................................................................................................................................................
(PID.TID 0000.0001) //     45 ........................................................................................................................................................................................................................++++++++++..................................
(PID.TID 0000.0001) //     44 ........................................................................................................................................................................................................................++++++++++..................................
(PID.TID 0000.0001) //     43 ........................................................................................................................................................................................................................++++++++++..................................
(PID.TID 0000.0001) //     42 ........................................................................................................................................................................................................................++++++++++..................................
(PID.TID 0000.0001) //     41 ........................................................................................................................................................................................................................++++++++++..................................
(PID.TID 0000.0001) //     40 ++.+++++++++++++++++++++++++++++++++++++++++++++++++++++++++++++++++++++++++++++++++++++++++++++++++++++++++++++++++++++++++++++++++++++++++++++++++++++++++++++++++++++++++++++++++++++++++++++++++++++++++++++++++++++++++++++++++++++++++++++++++++++++++++++.+++
(PID.TID 0000.0001) //     39 zz.zzzzzzzzzzzzzzzzzzzzzzzzzzzzzzzzzzzzzzzzzzzzzzzzzzzzzzzzzzzzzzzzzzzzzzzzzzzzzzzzzzzzzzzzzzzzzzzzzzzzzzzzzzzzzzzzzzzzzzzzzzzzzzzzzzzzzzzzzzzzzzzzzzzzzzzzzzzzzzzzzzzzzzzzzzzzzzzzzzzzzzzzzzzzzzzzzzzzzzzzzzzzzzzzzzzzzzzzzzzzzzzzzzzzzzzzzzzzzzzzzzzzzzzzzzzzz.zzz
(PID.TID 0000.0001) //     38 yy.yyyyyyyyyyyyyyyyyyyyyyyyyyyyyyyyyyyyyyyyyyyyyyyyyyyyyyyyyyyyyyyyyyyyyyyyyyyyyyyyyyyyyyyyyyyyyyyyyyyyyyyyyyyyyyyyyyyyyyyyyyyyyyyyyyyyyyyyyyyyyyyyyyyyyyyyyyyyyyyyyyyyyyyyyyyyyyyyyyyyyyyyyyyyyyyyyyyyyyyyyyyyyyyyyyyyyyyyyyyyyyyyyyyyyyyyyyyyyyyyyyyyyyyyyyyyy.yyy
(PID.TID 0000.0001) //     37 xx.xxxxxxxxxxxxxxxxxxxxxxxxxxxxxxxxxxxxxxxxxxxxxxxxxxxxxxxxxxxxxxxxxxxxxxxxxxxxxxxxxxxxxxxxxxxxxxxxxxxxxxxxxxxxxxxxxxxxxxxxxxxxxxxxxxxxxxxxxxxxxxxxxxxxxxxxxxxxxxxxxxxxxxxxxxxxxxxxxxxxxxxxxxxxxxxxxxxxxxxxxxxxxxxxxxxxxxxxxxxxxxxxxxxxxxxxxxxxxxxxxxxxxxxxxxxxx.xxx
(PID.TID 0000.0001) //     36 ww.wwwwwwwwwwwwwwwwwwwwwwwwwwwwwwwwwwwwwwwwwwwwwwwwwwwwwwwwwwwwwwwwwwwwwwwwwwwwwwwwwwwwwwwwwwwwwwwwwwwwwwwwwwwwwwwwwwwwwwwwwwwwwwwwwwwwwwwwwwwwwwwwwwwwwwwwwwwwwwwwwwwwwwwwwwwwwwwwwwwwwwwwwwwwwwwwwwwwwwwwwwwwwwwwwwwwwwwwwwwwwwwwwwwwwwwwwwwwwwwwwwwwwwwwwwwww.www
(PID.TID 0000.0001) //     35 ww.wwwwwwwwwwwwwwwwwwwwwwwwwwwwwwwwwwwwwwwwwwwwwwwwwwwwwwwwwwwwwwwwwwwwwwwwwwwwwwwwwwwwwwwwwwwwwwwwwwwwwwwwwwwwwwwwwwwwwwwwwwwwwwwwwwwwwwwwwwwwwwwwwwwwwwwwwwwwwwwwwwwwwwwwwwwwwwwwwwwwwwwwwwwwwwwwwwwwwwwwwwwwwwwwwwwwwwwwwwwwwwwwwwwwwwwwwwwwwwwwwwwwwwwwwwwww.www
(PID.TID 0000.0001) //     34 vv.vvvvvvvvvvvvvvvvvvvvvvvvvvvvvvvvvvvvvvvvvvvvvvvvvvvvvvvvvvvvvvvvvvvvvvvvvvvvvvvvvvvvvvvvvvvvvvvvvvvvvvvvvvvvvvvvvvvvvvvvvvvvvvvvvvvvvvvvvvvvvvvvvvvvvvvvvvvvvvvvvvvvvvvvvvvvvvvvvvvvvvvvvvvvvvvvvvvvvvvvvvvvvvvvvvvvvvvvvvvvvvvvvvvvvvvvvvvvvvvvvvvvvvvvvvvvv.vvv
(PID.TID 0000.0001) //     33 uu.uuuuuuuuuuuuuuuuuuuuuuuuuuuuuuuuuuuuuuuuuuuuuuuuuuuuuuuuuuuuuuuuuuuuuuuuuuuuuuuuuuuuuuuuuuuuuuuuuuuuuuuuuuuuuuuuuuuuuuuuuuuuuuuuuuuuuuuuuuuuuuuuuuuuuuuuuuuuuuuuuuuuuuuuuuuuuuuuuuuuuuuuuuuuuuuuuuuuuuuuuuuuuuuuuuuuuuuuuuuuuuuuuuuuuuuuuuuuuuuuuuuuuuuuuuuuu.uuu
(PID.TID 0000.0001) //     32 tt.ttttttttttttttttttttttttttttttttttttttttttttttttttttttttttttttttttttttttttttttttttttttttttttttttttttttttttttttttttttttttttttttttttttttttttttttttttttttttttttttttttttttttttttttttttttttttttttttttttttttttttttttttttttttttttttttttttttttttttttttttttttttttttttt.ttt
(PID.TID 0000.0001) //     31 ss.sssssssssssssssssssssssssssssssssssssssssssssssssssssssssssssssssssssssssssssssssssssssssssssssssssssssssssssssssssssssssssssssssssssssssssssssssssssssssssssssssssssssssssssssssssssssssssssssssssssssssssssssssssssssssssssssssssssssssssssssssssssssssssss.sss
(PID.TID 0000.0001) //     30 rr.rrrrrrrrrrrrrrrrrrrrrrrrrrrrrrrrrrrrrrrrrrrrrrrrrrrrrrrrrrrrrrrrrrrrrrrrrrrrrrrrrrrrrrrrrrrrrrrrrrrrrrrrrrrrrrrrrrrrrrrrrrrrrrrrrrrrrrrrrrrrrrrrrrrrrrrrrrrrrrrrrrrrrrrrrrrrrrrrrrrrrrrrrrrrrrrrrrrrrrrrrrrrrrrrrrrrrrrrrrrrrrrrrrrrrrrrrrrrrrrrrrrrrrrrrrrrr.rrr
(PID.TID 0000.0001) //     29 qq.qqqqqqqqqqqqqqqqqqqqqqqqqqqqqqqqqqqqqqqqqqqqqqqqqqqqqqqqqqqqqqqqqqqqqqqqqqqqqqqqqqqqqqqqqqqqqqqqqqqqqqqqqqqqqqqqqqqqqqqqqqqqqqqqqqqqqqqqqqqqqqqqqqqqqqqqqqqqqqqqqqqqqqqqqqqqqqqqqqqqqqqqqqqqqqqqqqqqqqqqqqqqqqqqqqqqqqqqqqqqqqqqqqqqqqqqqqqqqqqqqqqqqqqqqqqqq.qqq
(PID.TID 0000.0001) //     28 pp.ppppppppppppppppppppppppppppppppppppppppppppppppppppppppppppppppppppppppppppppppppppppppppppppppppppppppppppppppppppppppppppppppppppppppppppppppppppppppppppppppppppppppppppppppppppppppppppppppppppppppppppppppppppppppppppppppppppppppppppppppppppppppppppp.ppp
(PID.TID 0000.0001) //     33 uu.uuuuuuuuuuuuuuuuuuuuuuuuuuuuuuuuuuuuuuuuuuuuuuuuuuuuuuuuuuuuuuuuuuuuuuuuuuuuuuuuuuuuuuuuuuuuuuuuuuuuuuuuuuuuuuuuuuuuuuuuuuuuuuuuuuuuuuuuuuuuuuuuuuuuuuuuuuuuuuuuuuuuuuuuuuuuuuuuuuuuuuuuuuuuuuuuuuuuuuuuuuuuuuuuuuuuuuuuuuuuuuuuuuuuuuuuuuuuuuuuuuuuuuuuuuuuu.uuu
(PID.TID 0000.0001) //     32 tt.ttttttttttttttttttttttttttttttttttttttttttttttttttttttttttttttttttttttttttttttttttttttttttttttttttttttttttttttttttttttttttttttttttttttttttttttttttttttttttttttttttttttttttttttttttttttttttttttttttttttttttttttttttttttttttttttttttttttttttttttttttttttttttttt.ttt
(PID.TID 0000.0001) //     31 ss.sssssssssssssssssssssssssssssssssssssssssssssssssssssssssssssssssssssssssssssssssssssssssssssssssssssssssssssssssssssssssssssssssssssssssssssssssssssssssssssssssssssssssssssssssssssssssssssssssssssssssssssssssssssssssssssssssssssssssssssssssssssssssssss.sss
(PID.TID 0000.0001) //     30 rr.rrrrrrrrrrrrrrrrrrrrrrrrrrrrrrrrrrrrrrrrrrrrrrrrrrrrrrrrrrrrrrrrrrrrrrrrrrrrrrrrrrrrrrrrrrrrrrrrrrrrrrrrrrrrrrrrrrrrrrrrrrrrrrrrrrrrrrrrrrrrrrrrrrrrrrrrrrrrrrrrrrrrrrrrrrrrrrrrrrrrrrrrrrrrrrrrrrrrrrrrrrrrrrrrrrrrrrrrrrrrrrrrrrrrrrrrrrrrrrrrrrrrrrrrrrrrr.rrr
(PID.TID 0000.0001) //     29 qq.qqqqqqqqqqqqqqqqqqqqqqqqqqqqqqqqqqqqqqqqqqqqqqqqqqqqqqqqqqqqqqqqqqqqqqqqqqqqqqqqqqqqqqqqqqqqqqqqqqqqqqqqqqqqqqqqqqqqqqqqqqqqqqqqqqqqqqqqqqqqqqqqqqqqqqqqqqqqqqqqqqqqqqqqqqqqqqqqqqqqqqqqqqqqqqqqqqqqqqqqqqqqqqqqqqqqqqqqqqqqqqqqqqqqqqqqqqqqqqqqqqqqqqqqqqqqq.qqq
(PID.TID 0000.0001) //     28 pp.ppppppppppppppppppppppppppppppppppppppppppppppppppppppppppppppppppppppppppppppppppppppppppppppppppppppppppppppppppppppppppppppppppppppppppppppppppppppppppppppppppppppppppppppppppppppppppppppppppppppppppppppppppppppppppppppppppppppppppppppppppppppppppppp.ppp
(PID.TID 0000.0001) //     27 oo.ooooooooooooooooooooooooooooooooooooooooooooooooooooooooooooooooooooooooooooooooooooooooooooooooooooooooooooooooooooooooooooooooooooooooooooooooooooooooooooooooooooooooooooooooooooooooooooooooooooooooooooooooooooooooooooooooooooooooooooooooooooooooooooo.ooo
(PID.TID 0000.0001) //     26 nn.nnnnnnnnnnnnnnnnnnnnnnnnnnnnnnnnnnnnnnnnnnnnnnnnnnnnnnnnnnnnnnnnnnnnnnnnnnnnnnnnnnnnnnnnnnnnnnnnnnnnnnnnnnnnnnnnnnnnnnnnnnnnnnnnnnnnnnnnnnnnnnnnnnnnnnnnnnnnnnnnnnnnnnnnnnnnnnnnnnnnnnnnnnnnnnnnnnnnnnnnnnnnnnnnnnnnnnnnnnnnnnnnnnnnnnnnnnnnnnnnnnnnnnnnnnnnn.nnn
(PID.TID 0000.0001) //     25 nn.nnnnnnnnnnnnnnnnnnnnnnnnnnnnnnnnnnnnnnnnnnnnnnnnnnnnnnnnnnnnnnnnnnnnnnnnnnnnnnnnnnnnnnnnnnnnnnnnnnnnnnnnnnnnnnnnnnnnnnnnnnnnnnnnnnnnnnnnnnnnnnnnnnnnnnnnnnnnnnnnnnnnnnnnnnnnnnnnnnnnnnnnnnnnnnnnnnnnnnnnnnnnnnnnnnnnnnnnnnnnnnnnnnnnnnnnnnnnnnnnnnnnnnnnnnnnn.nnn
(PID.TID 0000.0001) //     24 mm.mmmmmmmmmmmmmmmmmmmmmmmmmmmmmmmmmmmmmmmmmmmmmmmmmmmmmmmmmmmmmmmmmmmmmmmmmmmmmmmmmmmmmmmmmmmmmmmmmmmmmmmmmmmmmmmmmmmmmmmmmmmmmmmmmmmmmmmmmmmmmmmmmmmmmmmmmmmmmmmmmmmmmmmmmmmmmmmmmmmmmmmmmmmmmmmmmmmmmmmmmmmmmmmmmmmmmmmmmmmmmmmmmmmmmmmmmmmmmmmmmmmmmmmmmmmmm.mmm
(PID.TID 0000.0001) //     23 ll.lllllllllllllllllllllllllllllllllllllllllllllllllllllllllllllllllllllllllllllllllllllllllllllllllllllllllllllllllllllllllllllllllllllllllllllllllllllllllllllllllllllllllllllllllllllllllllllllllllllllllllllllllllllllllllllllllllllllllllllllllllllllllllll.lll
(PID.TID 0000.0001) //     22 kk.kkkkkkkkkkkkkkkkkkkkkkkkkkkkkkkkkkkkkkkkkkkkkkkkkkkkkkkkkkkkkkkkkkkkkkkkkkkkkkkkkkkkkkkkkkkkkkkkkkkkkkkkkkkkkkkkkkkkkkkkkkkkkkkkkkkkkkkkkkkkkkkkkkkkkkkkkkkkkkkkkkkkkkkkkkkkkkkkkkkkkkkkkkkkkkkkkkkkkkkkkkkkkkkkkkkkkkkkkkkkkkkkkkkkkkkkkkkkkkkkkkkkkkkkkkkkk.kkk
(PID.TID 0000.0001) //     21 jj.jjjjjjjjjjjjjjjjjjjjjjjjjjjjjjjjjjjjjjjjjjjjjjjjjjjjjjjjjjjjjjjjjjjjjjjjjjjjjjjjjjjjjjjjjjjjjjjjjjjjjjjjjjjjjjjjjjjjjjjjjjjjjjjjjjjjjjjjjjjjjjjjjjjjjjjjjjjjjjjjjjjjjjjjjjjjjjjjjjjjjjjjjjjjjjjjjjjjjjjjjjjjjjjjjjjjjjjjjjjjjjjjjjjjjjjjjjjjjjjjjjjjjjjjjjjjj.jjj
(PID.TID 0000.0001) //     20 ii.iiiiiiiiiiiiiiiiiiiiiiiiiiiiiiiiiiiiiiiiiiiiiiiiiiiiiiiiiiiiiiiiiiiiiiiiiiiiiiiiiiiiiiiiiiiiiiiiiiiiiiiiiiiiiiiiiiiiiiiiiiiiiiiiiiiiiiiiiiiiiiiiiiiiiiiiiiiiiiiiiiiiiiiiiiiiiiiiiiiiiiiiiiiiiiiiiiiiiiiiiiiiiiiiiiiiiiiiiiiiiiiiiiiiiiiiiiiiiiiiiiiiiiiiiiiii.iii
(PID.TID 0000.0001) //     19 hh.hhhhhhhhhhhhhhhhhhhhhhhhhhhhhhhhhhhhhhhhhhhhhhhhhhhhhhhhhhhhhhhhhhhhhhhhhhhhhhhhhhhhhhhhhhhhhhhhhhhhhhhhhhhhhhhhhhhhhhhhhhhhhhhhhhhhhhhhhhhhhhhhhhhhhhhhhhhhhhhhhhhhhhhhhhhhhhhhhhhhhhhhhhhhhhhhhhhhhhhhhhhhhhhhhhhhhhhhhhhhhhhhhhhhhhhhhhhhhhhhhhhhhhhhhhhhh.hhh
(PID.TID 0000.0001) //     18 gg.ggggggggggggggggggggggggggggggggggggggggggggggggggggggggggggggggggggggggggggggggggggggggggggggggggggggggggggggggggggggggggggggggggggggggggggggggggggggggggggggggggggggggggggggggggggggggggggggggggggggggggggggggggggggggggggggggggggggggggggggggggggggggggggg.ggg
(PID.TID 0000.0001) //     17 ff.fffffffffffffffffffffffffffffffffffffffffffffffffffffffffffffffffffffffffffffffffffffffffffffffffffffffffffffffffffffffffffffffffffffffffffffffffffffffffffffffffffffffffffffffffffffffffffffffffffffffffffffffffffffffffffffffffffffffffffffffffffffffffffff.fff
(PID.TID 0000.0001) //     16 ee.eeeeeeeeeeeeeeeeeeeeeeeeeeeeeeeeeeeeeeeeeeeeeeeeeeeeeeeeeeeeeeeeeeeeeeeeeeeeeeeeeeeeeeeeeeeeeeeeeeeeeeeeeeeeeeeeeeeeeeeeeeeeeeeeeeeeeeeeeeeeeeeeeeeeeeeeeeeeeeeeeeeeeeeeeeeeeeeeeeeeeeeeeeeeeeeeeeeeeeeeeeeeeeeeeeeeeeeeeeeeeeeeeeeeeeeeeeeeeeeeeeeeeeeeeeeee.eee
(PID.TID 0000.0001) //     15 dd.ddddddddddddddddddddddddddddddddddddddddddddddddddddddddddddddddddddddddddddddddddddddddddddddddddddddddddddddddddddddddddddddddddddddddddddddddddddddddddddddddddddddddddddddddddddddddddddddddddddddddddddddddddddddddddddddddddddddddddddddddddddddddddddd.ddd
(PID.TID 0000.0001) //     14 dd.ddddddddddddddddddddddddddddddddddddddddddddddddddddddddddddddddddddddddddddddddddddddddddddddddddddddddddddddddddddddddddddddddddddddddddddddddddddddddddddddddddddddddddddddddddddddddddddddddddddddddddddddddddddddddddddddddddddddddddddddddddddddddddddd.ddd
(PID.TID 0000.0001) //     13 cc.ccccccccccccccccccccccccccccccccccccccccccccccccccccccccccccccccccccccccccccccccccccccccccccccccccccccccccccccccccccccccccccccccccccccccccccccccccccccccccccccccccccccccccccccccccccccccccccccccccccccccccccccccccccccccccccccccccccccccccccccccccccccccccccc.ccc
(PID.TID 0000.0001) //     18 gg.ggggggggggggggggggggggggggggggggggggggggggggggggggggggggggggggggggggggggggggggggggggggggggggggggggggggggggggggggggggggggggggggggggggggggggggggggggggggggggggggggggggggggggggggggggggggggggggggggggggggggggggggggggggggggggggggggggggggggggggggggggggggggggggg.ggg
(PID.TID 0000.0001) //     17 ff.fffffffffffffffffffffffffffffffffffffffffffffffffffffffffffffffffffffffffffffffffffffffffffffffffffffffffffffffffffffffffffffffffffffffffffffffffffffffffffffffffffffffffffffffffffffffffffffffffffffffffffffffffffffffffffffffffffffffffffffffffffffffffffff.fff
(PID.TID 0000.0001) //     16 ee.eeeeeeeeeeeeeeeeeeeeeeeeeeeeeeeeeeeeeeeeeeeeeeeeeeeeeeeeeeeeeeeeeeeeeeeeeeeeeeeeeeeeeeeeeeeeeeeeeeeeeeeeeeeeeeeeeeeeeeeeeeeeeeeeeeeeeeeeeeeeeeeeeeeeeeeeeeeeeeeeeeeeeeeeeeeeeeeeeeeeeeeeeeeeeeeeeeeeeeeeeeeeeeeeeeeeeeeeeeeeeeeeeeeeeeeeeeeeeeeeeeeeeeeeeeeee.eee
(PID.TID 0000.0001) //     15 dd.ddddddddddddddddddddddddddddddddddddddddddddddddddddddddddddddddddddddddddddddddddddddddddddddddddddddddddddddddddddddddddddddddddddddddddddddddddddddddddddddddddddddddddddddddddddddddddddddddddddddddddddddddddddddddddddddddddddddddddddddddddddddddddddd.ddd
(PID.TID 0000.0001) //     14 dd.ddddddddddddddddddddddddddddddddddddddddddddddddddddddddddddddddddddddddddddddddddddddddddddddddddddddddddddddddddddddddddddddddddddddddddddddddddddddddddddddddddddddddddddddddddddddddddddddddddddddddddddddddddddddddddddddddddddddddddddddddddddddddddddd.ddd
(PID.TID 0000.0001) //     13 cc.ccccccccccccccccccccccccccccccccccccccccccccccccccccccccccccccccccccccccccccccccccccccccccccccccccccccccccccccccccccccccccccccccccccccccccccccccccccccccccccccccccccccccccccccccccccccccccccccccccccccccccccccccccccccccccccccccccccccccccccccccccccccccccccc.ccc
(PID.TID 0000.0001) //     12 bb.bbbbbbbbbbbbbbbbbbbbbbbbbbbbbbbbbbbbbbbbbbbbbbbbbbbbbbbbbbbbbbbbbbbbbbbbbbbbbbbbbbbbbbbbbbbbbbbbbbbbbbbbbbbbbbbbbbbbbbbbbbbbbbbbbbbbbbbbbbbbbbbbbbbbbbbbbbbbbbbbbbbbbbbbbbbbbbbbbbbbbbbbbbbbbbbbbbbbbbbbbbbbbbbbbbbbbbbbbbbbbbbbbbbbbbbbbbbbbbbbbbbbbbbbbbbbb.bbb
(PID.TID 0000.0001) //     11 aa.aaaaaaaaaaaaaaaaaaaaaaaaaaaaaaaaaaaaaaaaaaaaaaaaaaaaaaaaaaaaaaaaaaaaaaaaaaaaaaaaaaaaaaaaaaaaaaaaaaaaaaaaaaaaaaaaaaaaaaaaaaaaaaaaaaaaaaaaaaaaaaaaaaaaaaaaaaaaaaaaaaaaaaaaaaaaaaaaaaaaaaaaaaaaaaaaaaaaaaaaaaaaaaaaaaaaaaaaaaaaaaaaaaaaaaaaaaaaaaaaaaaaaaaaaaaaa.aaa
(PID.TID 0000.0001) //     10 --.-------------------------------------------------------------------------------------------------------------------------------------------------------------------------------------------------------------------------------------------------------------.---
(PID.TID 0000.0001) //      9 --.-------------------------------------------------------------------------------------------------------------------------------------------------------------------------------------------------------------------------------------------------------------.---
(PID.TID 0000.0001) //      8 --.-------------------------------------------------------------------------------------------------------------------------------------------------------------------------------------------------------------------------------------------------------------.---
(PID.TID 0000.0001) //      7 --.-------------------------------------------------------------------------------------------------------------------------------------------------------------------------------------------------------------------------------------------------------------.---
(PID.TID 0000.0001) //      6 --.-------------------------------------------------------------------------------------------------------------------------------------------------------------------------------------------------------------------------------------------------------------.---
(PID.TID 0000.0001) //      5 --.-------------------------------------------------------------------------------------------------------------------------------------------------------------------------------------------------------------------------------------------------------------.---
(PID.TID 0000.0001) //      4 --.-------------------------------------------------------------------------------------------------------------------------------------------------------------------------------------------------------------------------------------------------------------.---
(PID.TID 0000.0001) //      3 --.-------------------------------------------------------------------------------------------------------------------------------------------------------------------------------------------------------------------------------------------------------------.---
(PID.TID 0000.0001) //      2 --.-------------------------------------------------------------------------------------------------------------------------------------------------------------------------------------------------------------------------------------------------------------.---
(PID.TID 0000.0001) //      1 ....................................................................................................................................................................................................................................................................
(PID.TID 0000.0001) //      0 ........................................................................................................................................................................................................................++++++++++..................................
(PID.TID 0000.0001) //     -1 ........................................................................................................................................................................................................................++++++++++..................................
(PID.TID 0000.0001) //     -2 ........................................................................................................................................................................................................................++++++++++..................................
(PID.TID 0000.0001) // =======================================================
(PID.TID 0000.0001) // END OF FIELD                                          =
(PID.TID 0000.0001) // =======================================================
(PID.TID 0000.0001) 
(PID.TID 0000.0001) // =======================================================
(PID.TID 0000.0001) // Field Model Ro_surf (ini_masks_etc) at iteration          1
(PID.TID 0000.0001) // CMIN =          1.000000000000000E+32
(PID.TID 0000.0001) // CMAX =         -1.000000000000000E+32
(PID.TID 0000.0001) // CINT =          0.000000000000000E+00
(PID.TID 0000.0001) // SYMBOLS (CMIN->CMAX): -abcdefghijklmnopqrstuvwxyz+
(PID.TID 0000.0001) //                  0.0: .
(PID.TID 0000.0001) // RANGE I (Lo:Hi:Step):(  -2: 203:   1)
(PID.TID 0000.0001) // RANGE J (Lo:Hi:Step):(  48:  -2:  -1)
(PID.TID 0000.0001) // RANGE K (Lo:Hi:Step):(   1:   1:   1)
(PID.TID 0000.0001) // =======================================================
(PID.TID 0000.0001) // =======================================================
(PID.TID 0000.0001) // END OF FIELD                                          =
(PID.TID 0000.0001) // =======================================================
(PID.TID 0000.0001) 
(PID.TID 0000.0001) // =======================================================
(PID.TID 0000.0001) // Field hFacC at iteration          1
(PID.TID 0000.0001) // CMIN =          1.000000000000000E+00
(PID.TID 0000.0001) // CMAX =          1.000000000000000E+00
(PID.TID 0000.0001) // CINT =          0.000000000000000E+00
(PID.TID 0000.0001) // SYMBOLS (CMIN->CMAX): -abcdefghijklmnopqrstuvwxyz+
(PID.TID 0000.0001) //                  0.0: .
(PID.TID 0000.0001) // RANGE I (Lo:Hi:Step):(  -2: 203:   1)
(PID.TID 0000.0001) // RANGE J (Lo:Hi:Step):(  48:  -2:  -1)
(PID.TID 0000.0001) // RANGE K (Lo:Hi:Step):(   1:   1:   1)
(PID.TID 0000.0001) // =======================================================
(PID.TID 0000.0001) // =======================================================
(PID.TID 0000.0001) // END OF FIELD                                          =
(PID.TID 0000.0001) // =======================================================
(PID.TID 0000.0001) 
(PID.TID 0000.0001) // =======================================================
(PID.TID 0000.0001) // Field hFacW at iteration          1
(PID.TID 0000.0001) // CMIN =          1.000000000000000E+00
(PID.TID 0000.0001) // CMAX =          1.000000000000000E+00
(PID.TID 0000.0001) // CINT =          0.000000000000000E+00
(PID.TID 0000.0001) // SYMBOLS (CMIN->CMAX): -abcdefghijklmnopqrstuvwxyz+
(PID.TID 0000.0001) //                  0.0: .
(PID.TID 0000.0001) // RANGE I (Lo:Hi:Step):(  -2: 203:   1)
(PID.TID 0000.0001) // RANGE J (Lo:Hi:Step):(  48:  -2:  -1)
(PID.TID 0000.0001) // RANGE K (Lo:Hi:Step):(   1:   1:   1)
(PID.TID 0000.0001) // =======================================================
(PID.TID 0000.0001) // =======================================================
(PID.TID 0000.0001) // END OF FIELD                                          =
(PID.TID 0000.0001) // =======================================================
(PID.TID 0000.0001) 
(PID.TID 0000.0001) // =======================================================
(PID.TID 0000.0001) // Field hFacS at iteration          1
(PID.TID 0000.0001) // CMIN =          1.000000000000000E+00
(PID.TID 0000.0001) // CMAX =          1.000000000000000E+00
(PID.TID 0000.0001) // CINT =          0.000000000000000E+00
(PID.TID 0000.0001) // SYMBOLS (CMIN->CMAX): -abcdefghijklmnopqrstuvwxyz+
(PID.TID 0000.0001) //                  0.0: .
(PID.TID 0000.0001) // RANGE I (Lo:Hi:Step):(  -2: 203:   1)
(PID.TID 0000.0001) // RANGE J (Lo:Hi:Step):(  48:  -2:  -1)
(PID.TID 0000.0001) // RANGE K (Lo:Hi:Step):(   1:   1:   1)
(PID.TID 0000.0001) // =======================================================
(PID.TID 0000.0001) // =======================================================
(PID.TID 0000.0001) // END OF FIELD                                          =
(PID.TID 0000.0001) // =======================================================
(PID.TID 0000.0001) 
(PID.TID 0000.0001) 
(PID.TID 0000.0001) // ===================================
(PID.TID 0000.0001) // GAD parameters :
(PID.TID 0000.0001) // ===================================
(PID.TID 0000.0001) tempAdvScheme =   /* Temp. Horiz.Advection scheme selector */
(PID.TID 0000.0001)                      77
(PID.TID 0000.0001)     ;
(PID.TID 0000.0001) tempVertAdvScheme =   /* Temp. Vert. Advection scheme selector */
(PID.TID 0000.0001)                      77
(PID.TID 0000.0001)     ;
(PID.TID 0000.0001) tempMultiDimAdvec =   /* use Muti-Dim Advec method for Temp */
(PID.TID 0000.0001)                   T
(PID.TID 0000.0001)     ;
(PID.TID 0000.0001) tempAdamsBashforth =   /* use Adams-Bashforth time-stepping for Temp */
(PID.TID 0000.0001)                   F
(PID.TID 0000.0001)     ;
(PID.TID 0000.0001) saltAdvScheme =   /* Salt. Horiz.advection scheme selector */
(PID.TID 0000.0001)                      77
(PID.TID 0000.0001)     ;
(PID.TID 0000.0001) saltVertAdvScheme =   /* Salt. Vert. Advection scheme selector */
(PID.TID 0000.0001)                      77
(PID.TID 0000.0001)     ;
(PID.TID 0000.0001) saltMultiDimAdvec =   /* use Muti-Dim Advec method for Salt */
(PID.TID 0000.0001)                   T
(PID.TID 0000.0001)     ;
(PID.TID 0000.0001) saltAdamsBashforth =   /* use Adams-Bashforth time-stepping for Salt */
(PID.TID 0000.0001)                   F
(PID.TID 0000.0001)     ;
(PID.TID 0000.0001) // ===================================
(PID.TID 0000.0001) ------------------------------------------------------------
(PID.TID 0000.0001) DIAGNOSTICS_SET_LEVELS: done
(PID.TID 0000.0001)  Total Nb of available Diagnostics: ndiagt= 150
(PID.TID 0000.0001)  write list of available Diagnostics to file: available_diagnostics.log
(PID.TID 0000.0001) SETDIAG: Allocate 25 Levels for Diagnostic #  95 VISCA4D
(PID.TID 0000.0001)   space allocated for all diagnostics:    25 levels
(PID.TID 0000.0001) DIAGNOSTICS_SET_POINTERS: Set levels for Outp.Stream: visc
(PID.TID 0000.0001)  Levels:       1.   2.   3.   4.   5.   6.   7.   8.   9.  10.  11.  12.  13.  14.  15.  16.  17.  18.  19.  20.
(PID.TID 0000.0001)  Levels:      21.  22.  23.  24.  25.
(PID.TID 0000.0001) DIAGNOSTICS_SET_POINTERS: done
(PID.TID 0000.0001) ------------------------------------------------------------
(PID.TID 0000.0001)   space allocated for all stats-diags:     0 levels
(PID.TID 0000.0001) DIAGSTATS_SET_POINTERS: done
(PID.TID 0000.0001) ------------------------------------------------------------
(PID.TID 0000.0001) OBCS_CHECK: #define ALLOW_OBCS
(PID.TID 0000.0001) OBCS_CHECK: #define ALLOW_ORLANSKI
(PID.TID 0000.0001) OBCS_CHECK: OK
(PID.TID 0000.0001) %MON fCori_max                    =   1.0000000000000E-04
(PID.TID 0000.0001) %MON fCori_min                    =   1.0000000000000E-04
(PID.TID 0000.0001) %MON fCori_mean                   =   1.0000000000000E-04
(PID.TID 0000.0001) %MON fCori_sd                     =   3.7947076036993E-19
(PID.TID 0000.0001) %MON fCoriG_max                   =   1.0000000000000E-04
(PID.TID 0000.0001) %MON fCoriG_min                   =   1.0000000000000E-04
(PID.TID 0000.0001) %MON fCoriG_mean                  =   1.0000000000000E-04
(PID.TID 0000.0001) %MON fCoriG_sd                    =   3.7947076036993E-19
(PID.TID 0000.0001) %MON fCoriCos_max                 =   0.0000000000000E+00
(PID.TID 0000.0001) %MON fCoriCos_min                 =   0.0000000000000E+00
(PID.TID 0000.0001) %MON fCoriCos_mean                =   0.0000000000000E+00
(PID.TID 0000.0001) %MON fCoriCos_sd                  =   0.0000000000000E+00
(PID.TID 0000.0001) INI_CG2D: CG2D normalisation factor =  6.9857849865313112E-05
(PID.TID 0000.0001) 
(PID.TID 0000.0001) // CG3D normalisation factor =          0.3621430937017830315629414E-06
(PID.TID 0000.0001) 
(PID.TID 0000.0001) CONFIG_CHECK: OK
(PID.TID 0000.0001) // =======================================================
(PID.TID 0000.0001) // Model configuration
(PID.TID 0000.0001) // =======================================================
(PID.TID 0000.0001) //
(PID.TID 0000.0001) // "Physical" paramters ( PARM01 in namelist )
(PID.TID 0000.0001) //
(PID.TID 0000.0001) buoyancyRelation = OCEANIC
(PID.TID 0000.0001) fluidIsAir  =  /* fluid major constituent is Air */
(PID.TID 0000.0001)                   F
(PID.TID 0000.0001)     ;
(PID.TID 0000.0001) fluidIsWater=  /* fuild major constituent is Water */
(PID.TID 0000.0001)                   T
(PID.TID 0000.0001)     ;
(PID.TID 0000.0001) usingPCoords =  /* use p (or p*) vertical coordinate */
(PID.TID 0000.0001)                   F
(PID.TID 0000.0001)     ;
(PID.TID 0000.0001) usingZCoords =  /* use z (or z*) vertical coordinate */
(PID.TID 0000.0001)                   T
(PID.TID 0000.0001)     ;
(PID.TID 0000.0001) tRef =   /* Reference temperature profile ( oC or oK ) */
(PID.TID 0000.0001)                -1.941750000000000E-01,      /* K =  1 */
(PID.TID 0000.0001)                -5.825240000000000E-01,      /* K =  2 */
(PID.TID 0000.0001)                -9.708740000000000E-01,      /* K =  3 */
(PID.TID 0000.0001)                -1.359220000000000E+00,      /* K =  4 */
(PID.TID 0000.0001)                -1.747570000000000E+00,      /* K =  5 */
(PID.TID 0000.0001)                -2.135920000000000E+00,      /* K =  6 */
(PID.TID 0000.0001)                -2.524270000000000E+00,      /* K =  7 */
(PID.TID 0000.0001)                -2.912620000000000E+00,      /* K =  8 */
(PID.TID 0000.0001)                -3.300970000000000E+00,      /* K =  9 */
(PID.TID 0000.0001)                -3.689320000000000E+00,      /* K = 10 */
(PID.TID 0000.0001)                -4.077670000000000E+00,      /* K = 11 */
(PID.TID 0000.0001)                -4.466020000000000E+00,      /* K = 12 */
(PID.TID 0000.0001)                -4.854370000000000E+00,      /* K = 13 */
(PID.TID 0000.0001)                -5.242720000000000E+00,      /* K = 14 */
(PID.TID 0000.0001)                -5.631070000000000E+00,      /* K = 15 */
(PID.TID 0000.0001)                -6.019420000000000E+00,      /* K = 16 */
(PID.TID 0000.0001)                -6.407770000000000E+00,      /* K = 17 */
(PID.TID 0000.0001)                -6.796120000000000E+00,      /* K = 18 */
(PID.TID 0000.0001)                -7.184470000000000E+00,      /* K = 19 */
(PID.TID 0000.0001)                -7.572820000000000E+00,      /* K = 20 */
(PID.TID 0000.0001)                -7.961170000000000E+00,      /* K = 21 */
(PID.TID 0000.0001)                -8.349510000000000E+00,      /* K = 22 */
(PID.TID 0000.0001)                -8.737860000000000E+00,      /* K = 23 */
(PID.TID 0000.0001)                -9.126210000000000E+00,      /* K = 24 */
(PID.TID 0000.0001)                -9.514559999999999E+00       /* K = 25 */
(PID.TID 0000.0001)     ;
(PID.TID 0000.0001) sRef =   /* Reference salinity profile ( ppt ) */
(PID.TID 0000.0001)    25 @  1.000000000000000E+00              /* K =  1: 25 */
(PID.TID 0000.0001)     ;
(PID.TID 0000.0001) viscAh =   /* Lateral eddy viscosity ( m^2/s ) */
(PID.TID 0000.0001)                 0.000000000000000E+00
(PID.TID 0000.0001)     ;
(PID.TID 0000.0001) viscAhMax =   /* Maximum lateral eddy viscosity ( m^2/s ) */
(PID.TID 0000.0001)                 1.000000000000000E+21
(PID.TID 0000.0001)     ;
(PID.TID 0000.0001) viscAhGrid =   /* Grid dependent lateral eddy viscosity ( non-dim. ) */
(PID.TID 0000.0001)                 0.000000000000000E+00
(PID.TID 0000.0001)     ;
(PID.TID 0000.0001) useFullLeith =   /* Use Full Form of Leith Viscosity on/off flag*/
(PID.TID 0000.0001)                   F
(PID.TID 0000.0001)     ;
(PID.TID 0000.0001) useStrainTensionVisc =   /* Use StrainTension Form of Viscous Operator on/off flag*/
(PID.TID 0000.0001)                   F
(PID.TID 0000.0001)     ;
(PID.TID 0000.0001) useAreaViscLength =   /* Use area for visc length instead of geom. mean*/
(PID.TID 0000.0001)                   T
(PID.TID 0000.0001)     ;
(PID.TID 0000.0001) viscC2leith = /* Leith harmonic visc. factor (on grad(vort),non-dim.) */
(PID.TID 0000.0001)                 0.000000000000000E+00
(PID.TID 0000.0001)     ;
(PID.TID 0000.0001) viscC2leithD = /* Leith harmonic viscosity factor (on grad(div),non-dim.) */
(PID.TID 0000.0001)                 0.000000000000000E+00
(PID.TID 0000.0001)     ;
(PID.TID 0000.0001) viscC2smag =   /* Smagorinsky harmonic viscosity factor (non-dim.) */
(PID.TID 0000.0001)                 0.000000000000000E+00
(PID.TID 0000.0001)     ;
(PID.TID 0000.0001) viscA4 =   /* Lateral biharmonic viscosity ( m^4/s ) */
(PID.TID 0000.0001)                 0.000000000000000E+00
(PID.TID 0000.0001)     ;
(PID.TID 0000.0001) viscA4Max =   /* Maximum biharmonic viscosity ( m^2/s ) */
(PID.TID 0000.0001)                 1.000000000000000E+21
(PID.TID 0000.0001)     ;
(PID.TID 0000.0001) viscA4Grid =   /* Grid dependent biharmonic viscosity ( non-dim. ) */
(PID.TID 0000.0001)                 0.000000000000000E+00
(PID.TID 0000.0001)     ;
(PID.TID 0000.0001) viscC4leith = /* Leith biharm viscosity factor (on grad(vort), non-dim.) */
(PID.TID 0000.0001)                 1.458198138065000E+00
(PID.TID 0000.0001)     ;
(PID.TID 0000.0001) viscC4leithD = /* Leith biharm viscosity factor (on grad(div), non-dim.) */
(PID.TID 0000.0001)                 0.000000000000000E+00
(PID.TID 0000.0001)     ;
(PID.TID 0000.0001) viscC4Smag = /* Smagorinsky biharm viscosity factor (non-dim) */
(PID.TID 0000.0001)                 0.000000000000000E+00
(PID.TID 0000.0001)     ;
(PID.TID 0000.0001) no_slip_sides =  /* Viscous BCs: No-slip sides */
(PID.TID 0000.0001)                   T
(PID.TID 0000.0001)     ;
(PID.TID 0000.0001) sideDragFactor = /* side-drag scaling factor (non-dim) */
(PID.TID 0000.0001)                 2.000000000000000E+00
(PID.TID 0000.0001)     ;
(PID.TID 0000.0001) viscAr =   /* Vertical eddy viscosity ( units of r^2/s ) */
(PID.TID 0000.0001)                 5.000000000000000E-01
(PID.TID 0000.0001)     ;
(PID.TID 0000.0001) no_slip_bottom =  /* Viscous BCs: No-slip bottom */
(PID.TID 0000.0001)                   T
(PID.TID 0000.0001)     ;
(PID.TID 0000.0001) bottomDragLinear = /* linear bottom-drag coefficient ( 1/s ) */
(PID.TID 0000.0001)                 0.000000000000000E+00
(PID.TID 0000.0001)     ;
(PID.TID 0000.0001) bottomDragQuadratic = /* quadratic bottom-drag coeff. ( 1/m ) */
(PID.TID 0000.0001)                 2.000000000000000E-03
(PID.TID 0000.0001)     ;
(PID.TID 0000.0001) diffKhT =   /* Laplacian diffusion of heat laterally ( m^2/s ) */
(PID.TID 0000.0001)                 0.000000000000000E+00
(PID.TID 0000.0001)     ;
(PID.TID 0000.0001) diffK4T =   /* Bihaarmonic diffusion of heat laterally ( m^4/s ) */
(PID.TID 0000.0001)                 0.000000000000000E+00
(PID.TID 0000.0001)     ;
(PID.TID 0000.0001) diffKhS =   /* Laplacian diffusion of salt laterally ( m^2/s ) */
(PID.TID 0000.0001)                 0.000000000000000E+00
(PID.TID 0000.0001)     ;
(PID.TID 0000.0001) diffK4S =   /* Bihaarmonic diffusion of salt laterally ( m^4/s ) */
(PID.TID 0000.0001)                 0.000000000000000E+00
(PID.TID 0000.0001)     ;
(PID.TID 0000.0001) diffKrNrT = /* vertical profile of vertical diffusion of Temp ( m^2/s )*/
(PID.TID 0000.0001)    25 @  0.000000000000000E+00              /* K =  1: 25 */
(PID.TID 0000.0001)     ;
(PID.TID 0000.0001) diffKrNrS = /* vertical profile of vertical diffusion of Salt ( m^2/s )*/
(PID.TID 0000.0001)    25 @  0.000000000000000E+00              /* K =  1: 25 */
(PID.TID 0000.0001)     ;
(PID.TID 0000.0001) diffKrBL79surf =   /* Surface diffusion for Bryan and Lewis 1979 ( m^2/s ) */
(PID.TID 0000.0001)                 0.000000000000000E+00
(PID.TID 0000.0001)     ;
(PID.TID 0000.0001) diffKrBL79deep =   /* Deep diffusion for Bryan and Lewis 1979 ( m^2/s ) */
(PID.TID 0000.0001)                 0.000000000000000E+00
(PID.TID 0000.0001)     ;
(PID.TID 0000.0001) diffKrBL79scl =   /* Depth scale for Bryan and Lewis 1979 ( m ) */
(PID.TID 0000.0001)                 2.000000000000000E+02
(PID.TID 0000.0001)     ;
(PID.TID 0000.0001) diffKrBL79Ho =   /* Turning depth for Bryan and Lewis 1979 ( m ) */
(PID.TID 0000.0001)                -2.000000000000000E+03
(PID.TID 0000.0001)     ;
(PID.TID 0000.0001)  Equation of State : eosType = LINEAR
(PID.TID 0000.0001) tAlpha =   /* Linear EOS thermal expansion coefficient ( 1/degree ) */
(PID.TID 0000.0001)                 2.000000000000000E-04
(PID.TID 0000.0001)     ;
(PID.TID 0000.0001) sBeta =   /* Linear EOS haline contraction coefficient ( 1/ppt ) */
(PID.TID 0000.0001)                 0.000000000000000E+00
(PID.TID 0000.0001)     ;
(PID.TID 0000.0001) rhonil =   /* Reference density ( kg/m^3 ) */
(PID.TID 0000.0001)                 1.030000000000000E+03
(PID.TID 0000.0001)     ;
(PID.TID 0000.0001) rhoConst =   /* Reference density ( kg/m^3 ) */
(PID.TID 0000.0001)                 1.030000000000000E+03
(PID.TID 0000.0001)     ;
(PID.TID 0000.0001) rhoConstFresh =   /* Reference density ( kg/m^3 ) */
(PID.TID 0000.0001)                 1.030000000000000E+03
(PID.TID 0000.0001)     ;
(PID.TID 0000.0001) gravity =   /* Gravitational acceleration ( m/s^2 ) */
(PID.TID 0000.0001)                 9.810000000000000E+00
(PID.TID 0000.0001)     ;
(PID.TID 0000.0001) gBaro =   /* Barotropic gravity ( m/s^2 ) */
(PID.TID 0000.0001)                 9.810000000000000E+00
(PID.TID 0000.0001)     ;
(PID.TID 0000.0001) rotationPeriod =   /* Rotation Period ( s ) */
(PID.TID 0000.0001)                 8.640000000000000E+04
(PID.TID 0000.0001)     ;
(PID.TID 0000.0001) omega =   /* Angular velocity ( rad/s ) */
(PID.TID 0000.0001)                 7.272205216643040E-05
(PID.TID 0000.0001)     ;
(PID.TID 0000.0001) f0 =   /* Reference coriolis parameter ( 1/s ) */
(PID.TID 0000.0001)                 1.000000000000000E-04
(PID.TID 0000.0001)     ;
(PID.TID 0000.0001) beta =   /* Beta ( 1/(m.s) ) */
(PID.TID 0000.0001)                 0.000000000000000E+00
(PID.TID 0000.0001)     ;
(PID.TID 0000.0001) freeSurfFac =   /* Implicit free surface factor */
(PID.TID 0000.0001)                 1.000000000000000E+00
(PID.TID 0000.0001)     ;
(PID.TID 0000.0001) implicitFreeSurface =   /* Implicit free surface on/off flag */
(PID.TID 0000.0001)                   T
(PID.TID 0000.0001)     ;
(PID.TID 0000.0001) rigidLid =   /* Rigid lid on/off flag */
(PID.TID 0000.0001)                   F
(PID.TID 0000.0001)     ;
(PID.TID 0000.0001) implicSurfPress =   /* Surface Pressure implicit factor (0-1)*/
(PID.TID 0000.0001)                 1.000000000000000E+00
(PID.TID 0000.0001)     ;
(PID.TID 0000.0001) implicDiv2Dflow =   /* Barot. Flow Div. implicit factor (0-1)*/
(PID.TID 0000.0001)                 1.000000000000000E+00
(PID.TID 0000.0001)     ;
(PID.TID 0000.0001) exactConserv =   /* Exact Volume Conservation on/off flag*/
(PID.TID 0000.0001)                   F
(PID.TID 0000.0001)     ;
(PID.TID 0000.0001) uniformLin_PhiSurf =   /* use uniform Bo_surf on/off flag*/
(PID.TID 0000.0001)                   T
(PID.TID 0000.0001)     ;
(PID.TID 0000.0001) nonlinFreeSurf =   /* Non-linear Free Surf. options (-1,0,1,2,3)*/
(PID.TID 0000.0001)                       0
(PID.TID 0000.0001)     ;
(PID.TID 0000.0001)      -1,0= Off ; 1,2,3= On, 2=+rescale gU,gV, 3=+update cg2d solv.
(PID.TID 0000.0001) hFacInf =   /* lower threshold for hFac (nonlinFreeSurf only)*/
(PID.TID 0000.0001)                 2.000000000000000E-01
(PID.TID 0000.0001)     ;
(PID.TID 0000.0001) hFacSup =   /* upper threshold for hFac (nonlinFreeSurf only)*/
(PID.TID 0000.0001)                 2.000000000000000E+00
(PID.TID 0000.0001)     ;
(PID.TID 0000.0001) select_rStar =   /* r* Coordinate options (not yet implemented)*/
(PID.TID 0000.0001)                       0
(PID.TID 0000.0001)     ;
(PID.TID 0000.0001) useRealFreshWaterFlux =   /* Real Fresh Water Flux on/off flag*/
(PID.TID 0000.0001)                   F
(PID.TID 0000.0001)     ;
(PID.TID 0000.0001) convertFW2Salt = /* convert F.W. Flux to Salt Flux (-1=use local S)(ppt)*/
(PID.TID 0000.0001)                 3.500000000000000E+01
(PID.TID 0000.0001)     ;
(PID.TID 0000.0001) nonHydrostatic =  /* Non-Hydrostatic on/off flag */
(PID.TID 0000.0001)                   F
(PID.TID 0000.0001)     ;
(PID.TID 0000.0001) nh_Am2 = /* Non-Hydrostatic terms scaling factor */
(PID.TID 0000.0001)                 1.000000000000000E+00
(PID.TID 0000.0001)     ;
(PID.TID 0000.0001) momStepping =  /* Momentum equation on/off flag */
(PID.TID 0000.0001)                   T
(PID.TID 0000.0001)     ;
(PID.TID 0000.0001) momAdvection =  /* Momentum advection on/off flag */
(PID.TID 0000.0001)                   T
(PID.TID 0000.0001)     ;
(PID.TID 0000.0001) momViscosity =  /* Momentum viscosity on/off flag */
(PID.TID 0000.0001)                   T
(PID.TID 0000.0001)     ;
(PID.TID 0000.0001) momImplVertAdv =/* Momentum implicit vert. advection on/off*/
(PID.TID 0000.0001)                   F
(PID.TID 0000.0001)     ;
(PID.TID 0000.0001) implicitViscosity = /* Implicit viscosity on/off flag */
(PID.TID 0000.0001)                   F
(PID.TID 0000.0001)     ;
(PID.TID 0000.0001) useCoriolis =  /* Coriolis on/off flag */
(PID.TID 0000.0001)                   T
(PID.TID 0000.0001)     ;
(PID.TID 0000.0001) useCDscheme =  /* CD scheme on/off flag */
(PID.TID 0000.0001)                   F
(PID.TID 0000.0001)     ;
(PID.TID 0000.0001) useJamartWetPoints= /* Coriolis WetPoints method flag */
(PID.TID 0000.0001)                   F
(PID.TID 0000.0001)     ;
(PID.TID 0000.0001) useJamartMomAdv= /* V.I. Non-linear terms Jamart flag */
(PID.TID 0000.0001)                   F
(PID.TID 0000.0001)     ;
(PID.TID 0000.0001) SadournyCoriolis= /* Sadourny Coriolis discr. flag */
(PID.TID 0000.0001)                   F
(PID.TID 0000.0001)     ;
(PID.TID 0000.0001) upwindVorticity= /* Upwind bias vorticity flag */
(PID.TID 0000.0001)                   F
(PID.TID 0000.0001)     ;
(PID.TID 0000.0001) useAbsVorticity= /* Work with f+zeta in Coriolis */
(PID.TID 0000.0001)                   F
(PID.TID 0000.0001)     ;
(PID.TID 0000.0001) highOrderVorticity= /* High order interp. of vort. flag */
(PID.TID 0000.0001)                   F
(PID.TID 0000.0001)     ;
(PID.TID 0000.0001) upwindShear= /* Upwind vertical Shear advection flag */
(PID.TID 0000.0001)                   F
(PID.TID 0000.0001)     ;
(PID.TID 0000.0001) selectKEscheme= /* Kinetic Energy scheme selector */
(PID.TID 0000.0001)                       0
(PID.TID 0000.0001)     ;
(PID.TID 0000.0001) momForcing =  /* Momentum forcing on/off flag */
(PID.TID 0000.0001)                   T
(PID.TID 0000.0001)     ;
(PID.TID 0000.0001) momPressureForcing =  /* Momentum pressure term on/off flag */
(PID.TID 0000.0001)                   T
(PID.TID 0000.0001)     ;
(PID.TID 0000.0001) staggerTimeStep =   /* Stagger time stepping on/off flag */
(PID.TID 0000.0001)                   T
(PID.TID 0000.0001)     ;
(PID.TID 0000.0001) multiDimAdvection =   /* enable/disable Multi-Dim Advection */
(PID.TID 0000.0001)                   T
(PID.TID 0000.0001)     ;
(PID.TID 0000.0001) useMultiDimAdvec =   /* Multi-Dim Advection is/is-not used */
(PID.TID 0000.0001)                   T
(PID.TID 0000.0001)     ;
(PID.TID 0000.0001) implicitDiffusion =/* Implicit Diffusion on/off flag */
(PID.TID 0000.0001)                   F
(PID.TID 0000.0001)     ;
(PID.TID 0000.0001) tempStepping =  /* Temperature equation on/off flag */
(PID.TID 0000.0001)                   T
(PID.TID 0000.0001)     ;
(PID.TID 0000.0001) tempAdvection=  /* Temperature advection on/off flag */
(PID.TID 0000.0001)                   T
(PID.TID 0000.0001)     ;
(PID.TID 0000.0001) tempImplVertAdv =/* Temp. implicit vert. advection on/off */
(PID.TID 0000.0001)                   F
(PID.TID 0000.0001)     ;
(PID.TID 0000.0001) tempForcing  =  /* Temperature forcing on/off flag */
(PID.TID 0000.0001)                   T
(PID.TID 0000.0001)     ;
(PID.TID 0000.0001) saltStepping =  /* Salinity equation on/off flag */
(PID.TID 0000.0001)                   T
(PID.TID 0000.0001)     ;
(PID.TID 0000.0001) saltAdvection=  /* Salinity advection on/off flag */
(PID.TID 0000.0001)                   T
(PID.TID 0000.0001)     ;
(PID.TID 0000.0001) saltImplVertAdv =/* Sali. implicit vert. advection on/off */
(PID.TID 0000.0001)                   F
(PID.TID 0000.0001)     ;
(PID.TID 0000.0001) saltForcing  =  /* Salinity forcing on/off flag */
(PID.TID 0000.0001)                   T
(PID.TID 0000.0001)     ;
(PID.TID 0000.0001)  debugMode  =  /* Debug Mode on/off flag */
(PID.TID 0000.0001)                   F
(PID.TID 0000.0001)     ;
(PID.TID 0000.0001)    debLevA  =  /* 1rst level of debugging */
(PID.TID 0000.0001)                       1
(PID.TID 0000.0001)     ;
(PID.TID 0000.0001)    debLevB  =  /* 2nd  level of debugging */
(PID.TID 0000.0001)                       2
(PID.TID 0000.0001)     ;
(PID.TID 0000.0001)  debugLevel =  /* select debugging level */
(PID.TID 0000.0001)                       1
(PID.TID 0000.0001)     ;
(PID.TID 0000.0001) //
(PID.TID 0000.0001) // Elliptic solver(s) paramters ( PARM02 in namelist )
(PID.TID 0000.0001) //
(PID.TID 0000.0001) cg2dMaxIters =   /* Upper limit on 2d con. grad iterations  */
(PID.TID 0000.0001)                    1000
(PID.TID 0000.0001)     ;
(PID.TID 0000.0001) cg2dChkResFreq =   /* 2d con. grad convergence test frequency */
(PID.TID 0000.0001)                       1
(PID.TID 0000.0001)     ;
(PID.TID 0000.0001) cg2dTargetResidual =   /* 2d con. grad target residual  */
(PID.TID 0000.0001)                 9.999999999999999E-12
(PID.TID 0000.0001)     ;
(PID.TID 0000.0001) cg2dTargetResWunit =   /* CG2d target residual [W units] */
(PID.TID 0000.0001)                -1.000000000000000E+00
(PID.TID 0000.0001)     ;
(PID.TID 0000.0001) cg2dPreCondFreq =   /* Freq. for updating cg2d preconditioner */
(PID.TID 0000.0001)                       1
(PID.TID 0000.0001)     ;
(PID.TID 0000.0001) //
(PID.TID 0000.0001) // Time stepping paramters ( PARM03 in namelist )
(PID.TID 0000.0001) //
(PID.TID 0000.0001) nIter0 =   /* Run starting timestep number  */
(PID.TID 0000.0001)                       0
(PID.TID 0000.0001)     ;
(PID.TID 0000.0001) nTimeSteps =   /* Number of timesteps */
(PID.TID 0000.0001)                      20
(PID.TID 0000.0001)     ;
(PID.TID 0000.0001) deltatTmom =   /* Momentum equation timestep ( s ) */
(PID.TID 0000.0001)                 3.000000000000000E+02
(PID.TID 0000.0001)     ;
(PID.TID 0000.0001) deltaTfreesurf =   /* FreeSurface equation timestep ( s ) */
(PID.TID 0000.0001)                 3.000000000000000E+02
(PID.TID 0000.0001)     ;
(PID.TID 0000.0001) dTtracerLev =   /* Tracer equation timestep ( s ) */
(PID.TID 0000.0001)    25 @  3.000000000000000E+02              /* K =  1: 25 */
(PID.TID 0000.0001)     ;
(PID.TID 0000.0001) deltatTClock  =   /* Model clock timestep ( s ) */
(PID.TID 0000.0001)                 3.000000000000000E+02
(PID.TID 0000.0001)     ;
(PID.TID 0000.0001) cAdjFreq =   /* Convective adjustment interval ( s ) */
(PID.TID 0000.0001)                 0.000000000000000E+00
(PID.TID 0000.0001)     ;
(PID.TID 0000.0001) forcing_In_AB =   /* put T,S Forcing in Adams-Bash. stepping */
(PID.TID 0000.0001)                   T
(PID.TID 0000.0001)     ;
(PID.TID 0000.0001) abEps =   /* Adams-Bashforth-2 stabilizing weight */
(PID.TID 0000.0001)                 1.000000000000000E-01
(PID.TID 0000.0001)     ;
(PID.TID 0000.0001) baseTime =   /* Model base time ( s ). */
(PID.TID 0000.0001)                 0.000000000000000E+00
(PID.TID 0000.0001)     ;
(PID.TID 0000.0001) startTime =   /* Run start time ( s ). */
(PID.TID 0000.0001)                 0.000000000000000E+00
(PID.TID 0000.0001)     ;
(PID.TID 0000.0001) endTime =   /* Integration ending time ( s ). */
(PID.TID 0000.0001)                 6.000000000000000E+03
(PID.TID 0000.0001)     ;
(PID.TID 0000.0001) pChkPtFreq =   /* Permanent restart/checkpoint file interval ( s ). */
(PID.TID 0000.0001)                 0.000000000000000E+00
(PID.TID 0000.0001)     ;
(PID.TID 0000.0001) chkPtFreq =   /* Rolling restart/checkpoint file interval ( s ). */
(PID.TID 0000.0001)                 1.000000000000000E+05
(PID.TID 0000.0001)     ;
(PID.TID 0000.0001) pickup_write_mdsio =   /* Model IO flag. */
(PID.TID 0000.0001)                   T
(PID.TID 0000.0001)     ;
(PID.TID 0000.0001) pickup_read_mdsio =   /* Model IO flag. */
(PID.TID 0000.0001)                   T
(PID.TID 0000.0001)     ;
(PID.TID 0000.0001) pickup_write_immed =   /* Model IO flag. */
(PID.TID 0000.0001)                   F
(PID.TID 0000.0001)     ;
(PID.TID 0000.0001) dumpFreq =   /* Model state write out interval ( s ). */
(PID.TID 0000.0001)                 3.000000000000000E+04
(PID.TID 0000.0001)     ;
(PID.TID 0000.0001) dumpInitAndLast= /* write out Initial & Last iter. model state */
(PID.TID 0000.0001)                   T
(PID.TID 0000.0001)     ;
(PID.TID 0000.0001) snapshot_mdsio =   /* Model IO flag. */
(PID.TID 0000.0001)                   T
(PID.TID 0000.0001)     ;
(PID.TID 0000.0001) monitorFreq =   /* Monitor output interval ( s ). */
(PID.TID 0000.0001)                 3.000000000000000E+02
(PID.TID 0000.0001)     ;
(PID.TID 0000.0001) monitor_stdio =   /* Model IO flag. */
(PID.TID 0000.0001)                   T
(PID.TID 0000.0001)     ;
(PID.TID 0000.0001) externForcingPeriod =   /* forcing period (s) */
(PID.TID 0000.0001)                 0.000000000000000E+00
(PID.TID 0000.0001)     ;
(PID.TID 0000.0001) externForcingCycle =   /* period of the cyle (s). */
(PID.TID 0000.0001)                 0.000000000000000E+00
(PID.TID 0000.0001)     ;
(PID.TID 0000.0001) tauThetaClimRelax =   /* relaxation time scale (s) */
(PID.TID 0000.0001)                 0.000000000000000E+00
(PID.TID 0000.0001)     ;
(PID.TID 0000.0001) tauSaltClimRelax =   /* relaxation time scale (s) */
(PID.TID 0000.0001)                 0.000000000000000E+00
(PID.TID 0000.0001)     ;
(PID.TID 0000.0001) latBandClimRelax =   /* max. Lat. where relaxation */
(PID.TID 0000.0001)                 1.800000000000000E+06
(PID.TID 0000.0001)     ;
(PID.TID 0000.0001) //
(PID.TID 0000.0001) // Gridding paramters ( PARM04 in namelist )
(PID.TID 0000.0001) //
(PID.TID 0000.0001) usingCartesianGrid =   /* Cartesian coordinates flag ( True / False ) */
(PID.TID 0000.0001)                   T
(PID.TID 0000.0001)     ;
(PID.TID 0000.0001) usingSphericalPolarGrid =   /* Spherical coordinates flag ( True / False ) */
(PID.TID 0000.0001)                   F
(PID.TID 0000.0001)     ;
(PID.TID 0000.0001) usingCylindricalGrid =   /* Spherical coordinates flag ( True / False ) */
(PID.TID 0000.0001)                   F
(PID.TID 0000.0001)     ;
(PID.TID 0000.0001) Ro_SeaLevel =   /* r(1) ( units of r ) */
(PID.TID 0000.0001)                 0.000000000000000E+00
(PID.TID 0000.0001)     ;
(PID.TID 0000.0001) rkSign =   /* index orientation relative to vertical coordinate */
(PID.TID 0000.0001)                -1.000000000000000E+00
(PID.TID 0000.0001)     ;
(PID.TID 0000.0001) horiVertRatio =   /* Ratio on units : Horiz - Vertical */
(PID.TID 0000.0001)                 1.000000000000000E+00
(PID.TID 0000.0001)     ;
(PID.TID 0000.0001) drC =   /* C spacing ( units of r ) */
(PID.TID 0000.0001)                 7.200000000000000E+01,      /* K =  1 */
(PID.TID 0000.0001)    24 @  1.440000000000000E+02              /* K =  2: 25 */
(PID.TID 0000.0001)     ;
(PID.TID 0000.0001) drF =   /* W spacing ( units of r ) */
(PID.TID 0000.0001)    25 @  1.440000000000000E+02              /* K =  1: 25 */
(PID.TID 0000.0001)     ;
(PID.TID 0000.0001) delX =   /* U spacing ( m - cartesian, degrees - spherical ) */
(PID.TID 0000.0001)   200 @  1.000000000000000E+04              /* I =  1:200 */
(PID.TID 0000.0001)     ;
(PID.TID 0000.0001) delY =   /* V spacing ( m - cartesian, degrees - spherical ) */
(PID.TID 0000.0001)                 4.354770412272808E+04,      /* J =  1 */
(PID.TID 0000.0001)                 3.976328763529614E+04,      /* J =  2 */
(PID.TID 0000.0001)                 3.845253979986927E+04,      /* J =  3 */
(PID.TID 0000.0001)                 3.330179774422351E+04,      /* J =  4 */
(PID.TID 0000.0001)                 2.498218561664100E+04,      /* J =  5 */
(PID.TID 0000.0001)                 1.850347835747289E+04,      /* J =  6 */
(PID.TID 0000.0001)                 1.476940894853175E+04,      /* J =  7 */
(PID.TID 0000.0001)                 1.272781949244290E+04,      /* J =  8 */
(PID.TID 0000.0001)                 1.159189758968330E+04,      /* J =  9 */
(PID.TID 0000.0001)                 1.094219501627191E+04,      /* J = 10 */
(PID.TID 0000.0001)                 1.056279034603045E+04,      /* J = 11 */
(PID.TID 0000.0001)                 1.033823866459392E+04,      /* J = 12 */
(PID.TID 0000.0001)                 1.020398171822501E+04,      /* J = 13 */
(PID.TID 0000.0001)                 1.012328472029299E+04,      /* J = 14 */
(PID.TID 0000.0001)                 1.007461407944328E+04,      /* J = 15 */
(PID.TID 0000.0001)                 1.004519587625975E+04,      /* J = 16 */
(PID.TID 0000.0001)                 1.002739060034890E+04,      /* J = 17 */
(PID.TID 0000.0001)                 1.001660509967246E+04,      /* J = 18 */
(PID.TID 0000.0001)                 1.001006850448283E+04,      /* J = 19 */
(PID.TID 0000.0001)                 1.000610575317793E+04,      /* J = 20 */
(PID.TID 0000.0001)                 1.000370292038679E+04,      /* J = 21 */
(PID.TID 0000.0001)                 1.000224578530626E+04,      /* J = 22 */
(PID.TID 0000.0001)                 1.000136208265968E+04,      /* J = 23 */
(PID.TID 0000.0001)                 1.000082612466494E+04,      /* J = 24 */
(PID.TID 0000.0001)                 1.000050106249572E+04,      /* J = 25 */
(PID.TID 0000.0001)                 1.000030390702810E+04,      /* J = 26 */
(PID.TID 0000.0001)                 1.000018432792299E+04,      /* J = 27 */
(PID.TID 0000.0001)                 1.000011180016617E+04,      /* J = 28 */
(PID.TID 0000.0001)                 1.000006781009222E+04,      /* J = 29 */
(PID.TID 0000.0001)                 1.000004112884983E+04,      /* J = 30 */
(PID.TID 0000.0001)                 1.000002494588998E+04,      /* J = 31 */
(PID.TID 0000.0001)                 1.000001513044032E+04,      /* J = 32 */
(PID.TID 0000.0001)                 1.000000917707345E+04,      /* J = 33 */
(PID.TID 0000.0001)                 1.000000556617549E+04,      /* J = 34 */
(PID.TID 0000.0001)                 1.000000337605576E+04,      /* J = 35 */
(PID.TID 0000.0001)                 1.000000204768121E+04,      /* J = 36 */
(PID.TID 0000.0001)                 1.000000124198138E+04,      /* J = 37 */
(PID.TID 0000.0001)                 1.000000075329977E+04,      /* J = 38 */
(PID.TID 0000.0001)                 1.000000045689940E+04,      /* J = 39 */
(PID.TID 0000.0001)                 1.000000027712349E+04,      /* J = 40 */
(PID.TID 0000.0001)                 1.000000016808389E+04,      /* J = 41 */
(PID.TID 0000.0001)                 1.000000010194804E+04,      /* J = 42 */
(PID.TID 0000.0001)                 1.000000006183461E+04,      /* J = 43 */
(PID.TID 0000.0001)                 1.000000003750459E+04,      /* J = 44 */
(PID.TID 0000.0001)                 1.000000002274768E+04       /* J = 45 */
(PID.TID 0000.0001)     ;
(PID.TID 0000.0001) phiMin =    /* South edge (ignored - cartesian, degrees - spherical ) */
(PID.TID 0000.0001)                 0.000000000000000E+00
(PID.TID 0000.0001)     ;
(PID.TID 0000.0001) thetaMin =    /* West edge ( ignored - cartesian, degrees - spherical ) */
(PID.TID 0000.0001)                 0.000000000000000E+00
(PID.TID 0000.0001)     ;
(PID.TID 0000.0001) rSphere =    /* Radius ( ignored - cartesian, m - spherical ) */
(PID.TID 0000.0001)                 6.370000000000000E+06
(PID.TID 0000.0001)     ;
(PID.TID 0000.0001) xcoord =   /* P-point X coord ( m - cartesian, degrees - spherical ) */
(PID.TID 0000.0001)                 5.000000000000000E+03,      /* I =  1 */
(PID.TID 0000.0001)                 1.500000000000000E+04,      /* I =  2 */
(PID.TID 0000.0001)                 2.500000000000000E+04,      /* I =  3 */
(PID.TID 0000.0001)                 3.500000000000000E+04,      /* I =  4 */
(PID.TID 0000.0001)                 4.500000000000000E+04,      /* I =  5 */
(PID.TID 0000.0001)                 5.500000000000000E+04,      /* I =  6 */
(PID.TID 0000.0001)                 6.500000000000000E+04,      /* I =  7 */
(PID.TID 0000.0001)                 7.500000000000000E+04,      /* I =  8 */
(PID.TID 0000.0001)                 8.500000000000000E+04,      /* I =  9 */
(PID.TID 0000.0001)                 9.500000000000000E+04,      /* I = 10 */
(PID.TID 0000.0001)                 1.050000000000000E+05,      /* I = 11 */
(PID.TID 0000.0001)                 1.150000000000000E+05,      /* I = 12 */
(PID.TID 0000.0001)                 1.250000000000000E+05,      /* I = 13 */
(PID.TID 0000.0001)                 1.350000000000000E+05,      /* I = 14 */
(PID.TID 0000.0001)                 1.450000000000000E+05,      /* I = 15 */
(PID.TID 0000.0001)                 1.550000000000000E+05,      /* I = 16 */
(PID.TID 0000.0001)                 1.650000000000000E+05,      /* I = 17 */
(PID.TID 0000.0001)                 1.750000000000000E+05,      /* I = 18 */
(PID.TID 0000.0001)                 1.850000000000000E+05,      /* I = 19 */
(PID.TID 0000.0001)                 1.950000000000000E+05,      /* I = 20 */
(PID.TID 0000.0001)                 2.050000000000000E+05,      /* I = 21 */
(PID.TID 0000.0001)                 2.150000000000000E+05,      /* I = 22 */
(PID.TID 0000.0001)                 2.250000000000000E+05,      /* I = 23 */
(PID.TID 0000.0001)                 2.350000000000000E+05,      /* I = 24 */
(PID.TID 0000.0001)                 2.450000000000000E+05,      /* I = 25 */
(PID.TID 0000.0001)                 2.550000000000000E+05,      /* I = 26 */
(PID.TID 0000.0001)                 2.650000000000000E+05,      /* I = 27 */
(PID.TID 0000.0001)                 2.750000000000000E+05,      /* I = 28 */
(PID.TID 0000.0001)                 2.850000000000000E+05,      /* I = 29 */
(PID.TID 0000.0001)                 2.950000000000000E+05,      /* I = 30 */
(PID.TID 0000.0001)                 3.050000000000000E+05,      /* I = 31 */
(PID.TID 0000.0001)                 3.150000000000000E+05,      /* I = 32 */
(PID.TID 0000.0001)                 3.250000000000000E+05,      /* I = 33 */
(PID.TID 0000.0001)                 3.350000000000000E+05,      /* I = 34 */
(PID.TID 0000.0001)                 3.450000000000000E+05,      /* I = 35 */
(PID.TID 0000.0001)                 3.550000000000000E+05,      /* I = 36 */
(PID.TID 0000.0001)                 3.650000000000000E+05,      /* I = 37 */
(PID.TID 0000.0001)                 3.750000000000000E+05,      /* I = 38 */
(PID.TID 0000.0001)                 3.850000000000000E+05,      /* I = 39 */
(PID.TID 0000.0001)                 3.950000000000000E+05,      /* I = 40 */
(PID.TID 0000.0001)                 4.050000000000000E+05,      /* I = 41 */
(PID.TID 0000.0001)                 4.150000000000000E+05,      /* I = 42 */
(PID.TID 0000.0001)                 4.250000000000000E+05,      /* I = 43 */
(PID.TID 0000.0001)                 4.350000000000000E+05,      /* I = 44 */
(PID.TID 0000.0001)                 4.450000000000000E+05,      /* I = 45 */
(PID.TID 0000.0001)                 4.550000000000000E+05,      /* I = 46 */
(PID.TID 0000.0001)                 4.650000000000000E+05,      /* I = 47 */
(PID.TID 0000.0001)                 4.750000000000000E+05,      /* I = 48 */
(PID.TID 0000.0001)                 4.850000000000000E+05,      /* I = 49 */
(PID.TID 0000.0001)                 4.950000000000000E+05,      /* I = 50 */
(PID.TID 0000.0001)                 5.050000000000000E+05,      /* I = 51 */
(PID.TID 0000.0001)                 5.150000000000000E+05,      /* I = 52 */
(PID.TID 0000.0001)                 5.250000000000000E+05,      /* I = 53 */
(PID.TID 0000.0001)                 5.350000000000000E+05,      /* I = 54 */
(PID.TID 0000.0001)                 5.450000000000000E+05,      /* I = 55 */
(PID.TID 0000.0001)                 5.550000000000000E+05,      /* I = 56 */
(PID.TID 0000.0001)                 5.650000000000000E+05,      /* I = 57 */
(PID.TID 0000.0001)                 5.750000000000000E+05,      /* I = 58 */
(PID.TID 0000.0001)                 5.850000000000000E+05,      /* I = 59 */
(PID.TID 0000.0001)                 5.950000000000000E+05,      /* I = 60 */
(PID.TID 0000.0001)                 6.050000000000000E+05,      /* I = 61 */
(PID.TID 0000.0001)                 6.150000000000000E+05,      /* I = 62 */
(PID.TID 0000.0001)                 6.250000000000000E+05,      /* I = 63 */
(PID.TID 0000.0001)                 6.350000000000000E+05,      /* I = 64 */
(PID.TID 0000.0001)                 6.450000000000000E+05,      /* I = 65 */
(PID.TID 0000.0001)                 6.550000000000000E+05,      /* I = 66 */
(PID.TID 0000.0001)                 6.650000000000000E+05,      /* I = 67 */
(PID.TID 0000.0001)                 6.750000000000000E+05,      /* I = 68 */
(PID.TID 0000.0001)                 6.850000000000000E+05,      /* I = 69 */
(PID.TID 0000.0001)                 6.950000000000000E+05,      /* I = 70 */
(PID.TID 0000.0001)                 7.050000000000000E+05,      /* I = 71 */
(PID.TID 0000.0001)                 7.150000000000000E+05,      /* I = 72 */
(PID.TID 0000.0001)                 7.250000000000000E+05,      /* I = 73 */
(PID.TID 0000.0001)                 7.350000000000000E+05,      /* I = 74 */
(PID.TID 0000.0001)                 7.450000000000000E+05,      /* I = 75 */
(PID.TID 0000.0001)                 7.550000000000000E+05,      /* I = 76 */
(PID.TID 0000.0001)                 7.650000000000000E+05,      /* I = 77 */
(PID.TID 0000.0001)                 7.750000000000000E+05,      /* I = 78 */
(PID.TID 0000.0001)                 7.850000000000000E+05,      /* I = 79 */
(PID.TID 0000.0001)                 7.950000000000000E+05,      /* I = 80 */
(PID.TID 0000.0001)                 8.050000000000000E+05,      /* I = 81 */
(PID.TID 0000.0001)                 8.150000000000000E+05,      /* I = 82 */
(PID.TID 0000.0001)                 8.250000000000000E+05,      /* I = 83 */
(PID.TID 0000.0001)                 8.350000000000000E+05,      /* I = 84 */
(PID.TID 0000.0001)                 8.450000000000000E+05,      /* I = 85 */
(PID.TID 0000.0001)                 8.550000000000000E+05,      /* I = 86 */
(PID.TID 0000.0001)                 8.650000000000000E+05,      /* I = 87 */
(PID.TID 0000.0001)                 8.750000000000000E+05,      /* I = 88 */
(PID.TID 0000.0001)                 8.850000000000000E+05,      /* I = 89 */
(PID.TID 0000.0001)                 8.950000000000000E+05,      /* I = 90 */
(PID.TID 0000.0001)                 9.050000000000000E+05,      /* I = 91 */
(PID.TID 0000.0001)                 9.150000000000000E+05,      /* I = 92 */
(PID.TID 0000.0001)                 9.250000000000000E+05,      /* I = 93 */
(PID.TID 0000.0001)                 9.350000000000000E+05,      /* I = 94 */
(PID.TID 0000.0001)                 9.450000000000000E+05,      /* I = 95 */
(PID.TID 0000.0001)                 9.550000000000000E+05,      /* I = 96 */
(PID.TID 0000.0001)                 9.650000000000000E+05,      /* I = 97 */
(PID.TID 0000.0001)                 9.750000000000000E+05,      /* I = 98 */
(PID.TID 0000.0001)                 9.850000000000000E+05,      /* I = 99 */
(PID.TID 0000.0001)                 9.950000000000000E+05,      /* I =100 */
(PID.TID 0000.0001)                 1.005000000000000E+06,      /* I =101 */
(PID.TID 0000.0001)                 1.015000000000000E+06,      /* I =102 */
(PID.TID 0000.0001)                 1.025000000000000E+06,      /* I =103 */
(PID.TID 0000.0001)                 1.035000000000000E+06,      /* I =104 */
(PID.TID 0000.0001)                 1.045000000000000E+06,      /* I =105 */
(PID.TID 0000.0001)                 1.055000000000000E+06,      /* I =106 */
(PID.TID 0000.0001)                 1.065000000000000E+06,      /* I =107 */
(PID.TID 0000.0001)                 1.075000000000000E+06,      /* I =108 */
(PID.TID 0000.0001)                 1.085000000000000E+06,      /* I =109 */
(PID.TID 0000.0001)                 1.095000000000000E+06,      /* I =110 */
(PID.TID 0000.0001)                 1.105000000000000E+06,      /* I =111 */
(PID.TID 0000.0001)                 1.115000000000000E+06,      /* I =112 */
(PID.TID 0000.0001)                 1.125000000000000E+06,      /* I =113 */
(PID.TID 0000.0001)                 1.135000000000000E+06,      /* I =114 */
(PID.TID 0000.0001)                 1.145000000000000E+06,      /* I =115 */
(PID.TID 0000.0001)                 1.155000000000000E+06,      /* I =116 */
(PID.TID 0000.0001)                 1.165000000000000E+06,      /* I =117 */
(PID.TID 0000.0001)                 1.175000000000000E+06,      /* I =118 */
(PID.TID 0000.0001)                 1.185000000000000E+06,      /* I =119 */
(PID.TID 0000.0001)                 1.195000000000000E+06,      /* I =120 */
(PID.TID 0000.0001)                 1.205000000000000E+06,      /* I =121 */
(PID.TID 0000.0001)                 1.215000000000000E+06,      /* I =122 */
(PID.TID 0000.0001)                 1.225000000000000E+06,      /* I =123 */
(PID.TID 0000.0001)                 1.235000000000000E+06,      /* I =124 */
(PID.TID 0000.0001)                 1.245000000000000E+06,      /* I =125 */
(PID.TID 0000.0001)                 1.255000000000000E+06,      /* I =126 */
(PID.TID 0000.0001)                 1.265000000000000E+06,      /* I =127 */
(PID.TID 0000.0001)                 1.275000000000000E+06,      /* I =128 */
(PID.TID 0000.0001)                 1.285000000000000E+06,      /* I =129 */
(PID.TID 0000.0001)                 1.295000000000000E+06,      /* I =130 */
(PID.TID 0000.0001)                 1.305000000000000E+06,      /* I =131 */
(PID.TID 0000.0001)                 1.315000000000000E+06,      /* I =132 */
(PID.TID 0000.0001)                 1.325000000000000E+06,      /* I =133 */
(PID.TID 0000.0001)                 1.335000000000000E+06,      /* I =134 */
(PID.TID 0000.0001)                 1.345000000000000E+06,      /* I =135 */
(PID.TID 0000.0001)                 1.355000000000000E+06,      /* I =136 */
(PID.TID 0000.0001)                 1.365000000000000E+06,      /* I =137 */
(PID.TID 0000.0001)                 1.375000000000000E+06,      /* I =138 */
(PID.TID 0000.0001)                 1.385000000000000E+06,      /* I =139 */
(PID.TID 0000.0001)                 1.395000000000000E+06,      /* I =140 */
(PID.TID 0000.0001)                 1.405000000000000E+06,      /* I =141 */
(PID.TID 0000.0001)                 1.415000000000000E+06,      /* I =142 */
(PID.TID 0000.0001)                 1.425000000000000E+06,      /* I =143 */
(PID.TID 0000.0001)                 1.435000000000000E+06,      /* I =144 */
(PID.TID 0000.0001)                 1.445000000000000E+06,      /* I =145 */
(PID.TID 0000.0001)                 1.455000000000000E+06,      /* I =146 */
(PID.TID 0000.0001)                 1.465000000000000E+06,      /* I =147 */
(PID.TID 0000.0001)                 1.475000000000000E+06,      /* I =148 */
(PID.TID 0000.0001)                 1.485000000000000E+06,      /* I =149 */
(PID.TID 0000.0001)                 1.495000000000000E+06,      /* I =150 */
(PID.TID 0000.0001)                 1.505000000000000E+06,      /* I =151 */
(PID.TID 0000.0001)                 1.515000000000000E+06,      /* I =152 */
(PID.TID 0000.0001)                 1.525000000000000E+06,      /* I =153 */
(PID.TID 0000.0001)                 1.535000000000000E+06,      /* I =154 */
(PID.TID 0000.0001)                 1.545000000000000E+06,      /* I =155 */
(PID.TID 0000.0001)                 1.555000000000000E+06,      /* I =156 */
(PID.TID 0000.0001)                 1.565000000000000E+06,      /* I =157 */
(PID.TID 0000.0001)                 1.575000000000000E+06,      /* I =158 */
(PID.TID 0000.0001)                 1.585000000000000E+06,      /* I =159 */
(PID.TID 0000.0001)                 1.595000000000000E+06,      /* I =160 */
(PID.TID 0000.0001)                 1.605000000000000E+06,      /* I =161 */
(PID.TID 0000.0001)                 1.615000000000000E+06,      /* I =162 */
(PID.TID 0000.0001)                 1.625000000000000E+06,      /* I =163 */
(PID.TID 0000.0001)                 1.635000000000000E+06,      /* I =164 */
(PID.TID 0000.0001)                 1.645000000000000E+06,      /* I =165 */
(PID.TID 0000.0001)                 1.655000000000000E+06,      /* I =166 */
(PID.TID 0000.0001)                 1.665000000000000E+06,      /* I =167 */
(PID.TID 0000.0001)                 1.675000000000000E+06,      /* I =168 */
(PID.TID 0000.0001)                 1.685000000000000E+06,      /* I =169 */
(PID.TID 0000.0001)                 1.695000000000000E+06,      /* I =170 */
(PID.TID 0000.0001)                 1.705000000000000E+06,      /* I =171 */
(PID.TID 0000.0001)                 1.715000000000000E+06,      /* I =172 */
(PID.TID 0000.0001)                 1.725000000000000E+06,      /* I =173 */
(PID.TID 0000.0001)                 1.735000000000000E+06,      /* I =174 */
(PID.TID 0000.0001)                 1.745000000000000E+06,      /* I =175 */
(PID.TID 0000.0001)                 1.755000000000000E+06,      /* I =176 */
(PID.TID 0000.0001)                 1.765000000000000E+06,      /* I =177 */
(PID.TID 0000.0001)                 1.775000000000000E+06,      /* I =178 */
(PID.TID 0000.0001)                 1.785000000000000E+06,      /* I =179 */
(PID.TID 0000.0001)                 1.795000000000000E+06,      /* I =180 */
(PID.TID 0000.0001)                 1.805000000000000E+06,      /* I =181 */
(PID.TID 0000.0001)                 1.815000000000000E+06,      /* I =182 */
(PID.TID 0000.0001)                 1.825000000000000E+06,      /* I =183 */
(PID.TID 0000.0001)                 1.835000000000000E+06,      /* I =184 */
(PID.TID 0000.0001)                 1.845000000000000E+06,      /* I =185 */
(PID.TID 0000.0001)                 1.855000000000000E+06,      /* I =186 */
(PID.TID 0000.0001)                 1.865000000000000E+06,      /* I =187 */
(PID.TID 0000.0001)                 1.875000000000000E+06,      /* I =188 */
(PID.TID 0000.0001)                 1.885000000000000E+06,      /* I =189 */
(PID.TID 0000.0001)                 1.895000000000000E+06,      /* I =190 */
(PID.TID 0000.0001)                 1.905000000000000E+06,      /* I =191 */
(PID.TID 0000.0001)                 1.915000000000000E+06,      /* I =192 */
(PID.TID 0000.0001)                 1.925000000000000E+06,      /* I =193 */
(PID.TID 0000.0001)                 1.935000000000000E+06,      /* I =194 */
(PID.TID 0000.0001)                 1.945000000000000E+06,      /* I =195 */
(PID.TID 0000.0001)                 1.955000000000000E+06,      /* I =196 */
(PID.TID 0000.0001)                 1.965000000000000E+06,      /* I =197 */
(PID.TID 0000.0001)                 1.975000000000000E+06,      /* I =198 */
(PID.TID 0000.0001)                 1.985000000000000E+06,      /* I =199 */
(PID.TID 0000.0001)                 1.995000000000000E+06       /* I =200 */
(PID.TID 0000.0001)     ;
(PID.TID 0000.0001) ycoord =   /* P-point Y coord ( m - cartesian, degrees - spherical ) */
(PID.TID 0000.0001)                 2.177385206136404E+04,      /* J =  1 */
(PID.TID 0000.0001)                 6.342934794037614E+04,      /* J =  2 */
(PID.TID 0000.0001)                 1.025372616579589E+05,      /* J =  3 */
(PID.TID 0000.0001)                 1.384144304300052E+05,      /* J =  4 */
(PID.TID 0000.0001)                 1.675564221104375E+05,      /* J =  5 */
(PID.TID 0000.0001)                 1.892992540974944E+05,      /* J =  6 */
(PID.TID 0000.0001)                 2.059356977504968E+05,      /* J =  7 */
(PID.TID 0000.0001)                 2.196843119709841E+05,      /* J =  8 */
(PID.TID 0000.0001)                 2.318441705120472E+05,      /* J =  9 */
(PID.TID 0000.0001)                 2.431112168150248E+05,      /* J = 10 */
(PID.TID 0000.0001)                 2.538637094961760E+05,      /* J = 11 */
(PID.TID 0000.0001)                 2.643142240014882E+05,      /* J = 12 */
(PID.TID 0000.0001)                 2.745853341928977E+05,      /* J = 13 */
(PID.TID 0000.0001)                 2.847489674121566E+05,      /* J = 14 */
(PID.TID 0000.0001)                 2.948479168120248E+05,      /* J = 15 */
(PID.TID 0000.0001)                 3.049078217898763E+05,      /* J = 16 */
(PID.TID 0000.0001)                 3.149441150281806E+05,      /* J = 17 */
(PID.TID 0000.0001)                 3.249661128781913E+05,      /* J = 18 */
(PID.TID 0000.0001)                 3.349794496802689E+05,      /* J = 19 */
(PID.TID 0000.0001)                 3.449875368090993E+05,      /* J = 20 */
(PID.TID 0000.0001)                 3.549924411458817E+05,      /* J = 21 */
(PID.TID 0000.0001)                 3.649954154987283E+05,      /* J = 22 */
(PID.TID 0000.0001)                 3.749972194327112E+05,      /* J = 23 */
(PID.TID 0000.0001)                 3.849983135363735E+05,      /* J = 24 */
(PID.TID 0000.0001)                 3.949989771299539E+05,      /* J = 25 */
(PID.TID 0000.0001)                 4.049993796147157E+05,      /* J = 26 */
(PID.TID 0000.0001)                 4.149996237321913E+05,      /* J = 27 */
(PID.TID 0000.0001)                 4.249997717962359E+05,      /* J = 28 */
(PID.TID 0000.0001)                 4.349998616013651E+05,      /* J = 29 */
(PID.TID 0000.0001)                 4.449999160708361E+05,      /* J = 30 */
(PID.TID 0000.0001)                 4.549999491082060E+05,      /* J = 31 */
(PID.TID 0000.0001)                 4.649999691463711E+05,      /* J = 32 */
(PID.TID 0000.0001)                 4.749999813001280E+05,      /* J = 33 */
(PID.TID 0000.0001)                 4.849999886717524E+05,      /* J = 34 */
(PID.TID 0000.0001)                 4.949999931428681E+05,      /* J = 35 */
(PID.TID 0000.0001)                 5.049999958547366E+05,      /* J = 36 */
(PID.TID 0000.0001)                 5.149999974995678E+05,      /* J = 37 */
(PID.TID 0000.0001)                 5.249999984972085E+05,      /* J = 38 */
(PID.TID 0000.0001)                 5.349999991023081E+05,      /* J = 39 */
(PID.TID 0000.0001)                 5.449999994693196E+05,      /* J = 40 */
(PID.TID 0000.0001)                 5.549999996919233E+05,      /* J = 41 */
(PID.TID 0000.0001)                 5.649999998269393E+05,      /* J = 42 */
(PID.TID 0000.0001)                 5.749999999088305E+05,      /* J = 43 */
(PID.TID 0000.0001)                 5.849999999585001E+05,      /* J = 44 */
(PID.TID 0000.0001)                 5.949999999886262E+05       /* J = 45 */
(PID.TID 0000.0001)     ;
(PID.TID 0000.0001) rcoord =   /* P-point R coordinate (  units of r ) */
(PID.TID 0000.0001)                -7.200000000000000E+01,      /* K =  1 */
(PID.TID 0000.0001)                -2.160000000000000E+02,      /* K =  2 */
(PID.TID 0000.0001)                -3.600000000000000E+02,      /* K =  3 */
(PID.TID 0000.0001)                -5.040000000000000E+02,      /* K =  4 */
(PID.TID 0000.0001)                -6.480000000000000E+02,      /* K =  5 */
(PID.TID 0000.0001)                -7.920000000000000E+02,      /* K =  6 */
(PID.TID 0000.0001)                -9.360000000000000E+02,      /* K =  7 */
(PID.TID 0000.0001)                -1.080000000000000E+03,      /* K =  8 */
(PID.TID 0000.0001)                -1.224000000000000E+03,      /* K =  9 */
(PID.TID 0000.0001)                -1.368000000000000E+03,      /* K = 10 */
(PID.TID 0000.0001)                -1.512000000000000E+03,      /* K = 11 */
(PID.TID 0000.0001)                -1.656000000000000E+03,      /* K = 12 */
(PID.TID 0000.0001)                -1.800000000000000E+03,      /* K = 13 */
(PID.TID 0000.0001)                -1.944000000000000E+03,      /* K = 14 */
(PID.TID 0000.0001)                -2.088000000000000E+03,      /* K = 15 */
(PID.TID 0000.0001)                -2.232000000000000E+03,      /* K = 16 */
(PID.TID 0000.0001)                -2.376000000000000E+03,      /* K = 17 */
(PID.TID 0000.0001)                -2.520000000000000E+03,      /* K = 18 */
(PID.TID 0000.0001)                -2.664000000000000E+03,      /* K = 19 */
(PID.TID 0000.0001)                -2.808000000000000E+03,      /* K = 20 */
(PID.TID 0000.0001)                -2.952000000000000E+03,      /* K = 21 */
(PID.TID 0000.0001)                -3.096000000000000E+03,      /* K = 22 */
(PID.TID 0000.0001)                -3.240000000000000E+03,      /* K = 23 */
(PID.TID 0000.0001)                -3.384000000000000E+03,      /* K = 24 */
(PID.TID 0000.0001)                -3.528000000000000E+03       /* K = 25 */
(PID.TID 0000.0001)     ;
(PID.TID 0000.0001) rF =   /* W-Interf. R coordinate (  units of r ) */
(PID.TID 0000.0001)                 0.000000000000000E+00,      /* K =  1 */
(PID.TID 0000.0001)                -1.440000000000000E+02,      /* K =  2 */
(PID.TID 0000.0001)                -2.880000000000000E+02,      /* K =  3 */
(PID.TID 0000.0001)                -4.320000000000000E+02,      /* K =  4 */
(PID.TID 0000.0001)                -5.760000000000000E+02,      /* K =  5 */
(PID.TID 0000.0001)                -7.200000000000000E+02,      /* K =  6 */
(PID.TID 0000.0001)                -8.640000000000000E+02,      /* K =  7 */
(PID.TID 0000.0001)                -1.008000000000000E+03,      /* K =  8 */
(PID.TID 0000.0001)                -1.152000000000000E+03,      /* K =  9 */
(PID.TID 0000.0001)                -1.296000000000000E+03,      /* K = 10 */
(PID.TID 0000.0001)                -1.440000000000000E+03,      /* K = 11 */
(PID.TID 0000.0001)                -1.584000000000000E+03,      /* K = 12 */
(PID.TID 0000.0001)                -1.728000000000000E+03,      /* K = 13 */
(PID.TID 0000.0001)                -1.872000000000000E+03,      /* K = 14 */
(PID.TID 0000.0001)                -2.016000000000000E+03,      /* K = 15 */
(PID.TID 0000.0001)                -2.160000000000000E+03,      /* K = 16 */
(PID.TID 0000.0001)                -2.304000000000000E+03,      /* K = 17 */
(PID.TID 0000.0001)                -2.448000000000000E+03,      /* K = 18 */
(PID.TID 0000.0001)                -2.592000000000000E+03,      /* K = 19 */
(PID.TID 0000.0001)                -2.736000000000000E+03,      /* K = 20 */
(PID.TID 0000.0001)                -2.880000000000000E+03,      /* K = 21 */
(PID.TID 0000.0001)                -3.024000000000000E+03,      /* K = 22 */
(PID.TID 0000.0001)                -3.168000000000000E+03,      /* K = 23 */
(PID.TID 0000.0001)                -3.312000000000000E+03,      /* K = 24 */
(PID.TID 0000.0001)                -3.456000000000000E+03,      /* K = 25 */
(PID.TID 0000.0001)                -3.600000000000000E+03       /* K = 26 */
(PID.TID 0000.0001)     ;
(PID.TID 0000.0001) dxF =  /* dxF(:,1,:,1) ( m - cartesian, degrees - spherical ) */
(PID.TID 0000.0001)   200 @  1.000000000000000E+04              /* I =  1:200 */
(PID.TID 0000.0001)     ;
(PID.TID 0000.0001) dxF =  /* dxF(1,:,1,:) ( m - cartesian, degrees - spherical ) */
(PID.TID 0000.0001)    45 @  1.000000000000000E+04              /* J =  1: 45 */
(PID.TID 0000.0001)     ;
(PID.TID 0000.0001) dyF =  /* dyF(:,1,:,1) ( m - cartesian, degrees - spherical ) */
(PID.TID 0000.0001)   200 @  4.354770412272808E+04              /* I =  1:200 */
(PID.TID 0000.0001)     ;
(PID.TID 0000.0001) dyF =  /* dyF(1,:,1,:) ( m - cartesian, degrees - spherical ) */
(PID.TID 0000.0001)                 4.354770412272808E+04,      /* J =  1 */
(PID.TID 0000.0001)                 3.976328763529614E+04,      /* J =  2 */
(PID.TID 0000.0001)                 3.845253979986927E+04,      /* J =  3 */
(PID.TID 0000.0001)                 3.330179774422351E+04,      /* J =  4 */
(PID.TID 0000.0001)                 2.498218561664100E+04,      /* J =  5 */
(PID.TID 0000.0001)                 1.850347835747289E+04,      /* J =  6 */
(PID.TID 0000.0001)                 1.476940894853175E+04,      /* J =  7 */
(PID.TID 0000.0001)                 1.272781949244290E+04,      /* J =  8 */
(PID.TID 0000.0001)                 1.159189758968330E+04,      /* J =  9 */
(PID.TID 0000.0001)                 1.094219501627191E+04,      /* J = 10 */
(PID.TID 0000.0001)                 1.056279034603045E+04,      /* J = 11 */
(PID.TID 0000.0001)                 1.033823866459392E+04,      /* J = 12 */
(PID.TID 0000.0001)                 1.020398171822501E+04,      /* J = 13 */
(PID.TID 0000.0001)                 1.012328472029299E+04,      /* J = 14 */
(PID.TID 0000.0001)                 1.007461407944328E+04,      /* J = 15 */
(PID.TID 0000.0001)                 1.004519587625975E+04,      /* J = 16 */
(PID.TID 0000.0001)                 1.002739060034890E+04,      /* J = 17 */
(PID.TID 0000.0001)                 1.001660509967246E+04,      /* J = 18 */
(PID.TID 0000.0001)                 1.001006850448283E+04,      /* J = 19 */
(PID.TID 0000.0001)                 1.000610575317793E+04,      /* J = 20 */
(PID.TID 0000.0001)                 1.000370292038679E+04,      /* J = 21 */
(PID.TID 0000.0001)                 1.000224578530626E+04,      /* J = 22 */
(PID.TID 0000.0001)                 1.000136208265968E+04,      /* J = 23 */
(PID.TID 0000.0001)                 1.000082612466494E+04,      /* J = 24 */
(PID.TID 0000.0001)                 1.000050106249572E+04,      /* J = 25 */
(PID.TID 0000.0001)                 1.000030390702810E+04,      /* J = 26 */
(PID.TID 0000.0001)                 1.000018432792299E+04,      /* J = 27 */
(PID.TID 0000.0001)                 1.000011180016617E+04,      /* J = 28 */
(PID.TID 0000.0001)                 1.000006781009222E+04,      /* J = 29 */
(PID.TID 0000.0001)                 1.000004112884983E+04,      /* J = 30 */
(PID.TID 0000.0001)                 1.000002494588998E+04,      /* J = 31 */
(PID.TID 0000.0001)                 1.000001513044032E+04,      /* J = 32 */
(PID.TID 0000.0001)                 1.000000917707345E+04,      /* J = 33 */
(PID.TID 0000.0001)                 1.000000556617549E+04,      /* J = 34 */
(PID.TID 0000.0001)                 1.000000337605576E+04,      /* J = 35 */
(PID.TID 0000.0001)                 1.000000204768121E+04,      /* J = 36 */
(PID.TID 0000.0001)                 1.000000124198138E+04,      /* J = 37 */
(PID.TID 0000.0001)                 1.000000075329977E+04,      /* J = 38 */
(PID.TID 0000.0001)                 1.000000045689940E+04,      /* J = 39 */
(PID.TID 0000.0001)                 1.000000027712349E+04,      /* J = 40 */
(PID.TID 0000.0001)                 1.000000016808389E+04,      /* J = 41 */
(PID.TID 0000.0001)                 1.000000010194804E+04,      /* J = 42 */
(PID.TID 0000.0001)                 1.000000006183461E+04,      /* J = 43 */
(PID.TID 0000.0001)                 1.000000003750459E+04,      /* J = 44 */
(PID.TID 0000.0001)                 1.000000002274768E+04       /* J = 45 */
(PID.TID 0000.0001)     ;
(PID.TID 0000.0001) dxG =  /* dxG(:,1,:,1) ( m - cartesian, degrees - spherical ) */
(PID.TID 0000.0001)   200 @  1.000000000000000E+04              /* I =  1:200 */
(PID.TID 0000.0001)     ;
(PID.TID 0000.0001) dxG =  /* dxG(1,:,1,:) ( m - cartesian, degrees - spherical ) */
(PID.TID 0000.0001)    45 @  1.000000000000000E+04              /* J =  1: 45 */
(PID.TID 0000.0001)     ;
(PID.TID 0000.0001) dyG =  /* dyG(:,1,:,1) ( m - cartesian, degrees - spherical ) */
(PID.TID 0000.0001)   200 @  4.354770412272808E+04              /* I =  1:200 */
(PID.TID 0000.0001)     ;
(PID.TID 0000.0001) dyG =  /* dyG(1,:,1,:) ( m - cartesian, degrees - spherical ) */
(PID.TID 0000.0001)                 4.354770412272808E+04,      /* J =  1 */
(PID.TID 0000.0001)                 3.976328763529614E+04,      /* J =  2 */
(PID.TID 0000.0001)                 3.845253979986927E+04,      /* J =  3 */
(PID.TID 0000.0001)                 3.330179774422351E+04,      /* J =  4 */
(PID.TID 0000.0001)                 2.498218561664100E+04,      /* J =  5 */
(PID.TID 0000.0001)                 1.850347835747289E+04,      /* J =  6 */
(PID.TID 0000.0001)                 1.476940894853175E+04,      /* J =  7 */
(PID.TID 0000.0001)                 1.272781949244290E+04,      /* J =  8 */
(PID.TID 0000.0001)                 1.159189758968330E+04,      /* J =  9 */
(PID.TID 0000.0001)                 1.094219501627191E+04,      /* J = 10 */
(PID.TID 0000.0001)                 1.056279034603045E+04,      /* J = 11 */
(PID.TID 0000.0001)                 1.033823866459392E+04,      /* J = 12 */
(PID.TID 0000.0001)                 1.020398171822501E+04,      /* J = 13 */
(PID.TID 0000.0001)                 1.012328472029299E+04,      /* J = 14 */
(PID.TID 0000.0001)                 1.007461407944328E+04,      /* J = 15 */
(PID.TID 0000.0001)                 1.004519587625975E+04,      /* J = 16 */
(PID.TID 0000.0001)                 1.002739060034890E+04,      /* J = 17 */
(PID.TID 0000.0001)                 1.001660509967246E+04,      /* J = 18 */
(PID.TID 0000.0001)                 1.001006850448283E+04,      /* J = 19 */
(PID.TID 0000.0001)                 1.000610575317793E+04,      /* J = 20 */
(PID.TID 0000.0001)                 1.000370292038679E+04,      /* J = 21 */
(PID.TID 0000.0001)                 1.000224578530626E+04,      /* J = 22 */
(PID.TID 0000.0001)                 1.000136208265968E+04,      /* J = 23 */
(PID.TID 0000.0001)                 1.000082612466494E+04,      /* J = 24 */
(PID.TID 0000.0001)                 1.000050106249572E+04,      /* J = 25 */
(PID.TID 0000.0001)                 1.000030390702810E+04,      /* J = 26 */
(PID.TID 0000.0001)                 1.000018432792299E+04,      /* J = 27 */
(PID.TID 0000.0001)                 1.000011180016617E+04,      /* J = 28 */
(PID.TID 0000.0001)                 1.000006781009222E+04,      /* J = 29 */
(PID.TID 0000.0001)                 1.000004112884983E+04,      /* J = 30 */
(PID.TID 0000.0001)                 1.000002494588998E+04,      /* J = 31 */
(PID.TID 0000.0001)                 1.000001513044032E+04,      /* J = 32 */
(PID.TID 0000.0001)                 1.000000917707345E+04,      /* J = 33 */
(PID.TID 0000.0001)                 1.000000556617549E+04,      /* J = 34 */
(PID.TID 0000.0001)                 1.000000337605576E+04,      /* J = 35 */
(PID.TID 0000.0001)                 1.000000204768121E+04,      /* J = 36 */
(PID.TID 0000.0001)                 1.000000124198138E+04,      /* J = 37 */
(PID.TID 0000.0001)                 1.000000075329977E+04,      /* J = 38 */
(PID.TID 0000.0001)                 1.000000045689940E+04,      /* J = 39 */
(PID.TID 0000.0001)                 1.000000027712349E+04,      /* J = 40 */
(PID.TID 0000.0001)                 1.000000016808389E+04,      /* J = 41 */
(PID.TID 0000.0001)                 1.000000010194804E+04,      /* J = 42 */
(PID.TID 0000.0001)                 1.000000006183461E+04,      /* J = 43 */
(PID.TID 0000.0001)                 1.000000003750459E+04,      /* J = 44 */
(PID.TID 0000.0001)                 1.000000002274768E+04       /* J = 45 */
(PID.TID 0000.0001)     ;
(PID.TID 0000.0001) dxC =  /* dxC(:,1,:,1) ( m - cartesian, degrees - spherical ) */
(PID.TID 0000.0001)   200 @  1.000000000000000E+04              /* I =  1:200 */
(PID.TID 0000.0001)     ;
(PID.TID 0000.0001) dxC =  /* dxC(1,:,1,:) ( m - cartesian, degrees - spherical ) */
(PID.TID 0000.0001)    45 @  1.000000000000000E+04              /* J =  1: 45 */
(PID.TID 0000.0001)     ;
(PID.TID 0000.0001) dyC =  /* dyC(:,1,:,1) ( m - cartesian, degrees - spherical ) */
(PID.TID 0000.0001)   200 @  2.677385207273788E+04              /* I =  1:200 */
(PID.TID 0000.0001)     ;
(PID.TID 0000.0001) dyC =  /* dyC(1,:,1,:) ( m - cartesian, degrees - spherical ) */
(PID.TID 0000.0001)                 2.677385207273788E+04,      /* J =  1 */
(PID.TID 0000.0001)                 4.165549587901211E+04,      /* J =  2 */
(PID.TID 0000.0001)                 3.910791371758271E+04,      /* J =  3 */
(PID.TID 0000.0001)                 3.587716877204639E+04,      /* J =  4 */
(PID.TID 0000.0001)                 2.914199168043226E+04,      /* J =  5 */
(PID.TID 0000.0001)                 2.174283198705695E+04,      /* J =  6 */
(PID.TID 0000.0001)                 1.663644365300232E+04,      /* J =  7 */
(PID.TID 0000.0001)                 1.374861422048732E+04,      /* J =  8 */
(PID.TID 0000.0001)                 1.215985854106310E+04,      /* J =  9 */
(PID.TID 0000.0001)                 1.126704630297760E+04,      /* J = 10 */
(PID.TID 0000.0001)                 1.075249268115118E+04,      /* J = 11 */
(PID.TID 0000.0001)                 1.045051450531219E+04,      /* J = 12 */
(PID.TID 0000.0001)                 1.027111019140946E+04,      /* J = 13 */
(PID.TID 0000.0001)                 1.016363321925900E+04,      /* J = 14 */
(PID.TID 0000.0001)                 1.009894939986813E+04,      /* J = 15 */
(PID.TID 0000.0001)                 1.005990497785152E+04,      /* J = 16 */
(PID.TID 0000.0001)                 1.003629323830432E+04,      /* J = 17 */
(PID.TID 0000.0001)                 1.002199785001068E+04,      /* J = 18 */
(PID.TID 0000.0001)                 1.001333680207765E+04,      /* J = 19 */
(PID.TID 0000.0001)                 1.000808712883038E+04,      /* J = 20 */
(PID.TID 0000.0001)                 1.000490433678236E+04,      /* J = 21 */
(PID.TID 0000.0001)                 1.000297435284652E+04,      /* J = 22 */
(PID.TID 0000.0001)                 1.000180393398297E+04,      /* J = 23 */
(PID.TID 0000.0001)                 1.000109410366231E+04,      /* J = 24 */
(PID.TID 0000.0001)                 1.000066359358033E+04,      /* J = 25 */
(PID.TID 0000.0001)                 1.000040248476191E+04,      /* J = 26 */
(PID.TID 0000.0001)                 1.000024411747555E+04,      /* J = 27 */
(PID.TID 0000.0001)                 1.000014806404458E+04,      /* J = 28 */
(PID.TID 0000.0001)                 1.000008980512919E+04,      /* J = 29 */
(PID.TID 0000.0001)                 1.000005446947102E+04,      /* J = 30 */
(PID.TID 0000.0001)                 1.000003303736990E+04,      /* J = 31 */
(PID.TID 0000.0001)                 1.000002003816515E+04,      /* J = 32 */
(PID.TID 0000.0001)                 1.000001215375688E+04,      /* J = 33 */
(PID.TID 0000.0001)                 1.000000737162447E+04,      /* J = 34 */
(PID.TID 0000.0001)                 1.000000447111562E+04,      /* J = 35 */
(PID.TID 0000.0001)                 1.000000271186848E+04,      /* J = 36 */
(PID.TID 0000.0001)                 1.000000164483129E+04,      /* J = 37 */
(PID.TID 0000.0001)                 1.000000099764058E+04,      /* J = 38 */
(PID.TID 0000.0001)                 1.000000060509959E+04,      /* J = 39 */
(PID.TID 0000.0001)                 1.000000036701145E+04,      /* J = 40 */
(PID.TID 0000.0001)                 1.000000022260369E+04,      /* J = 41 */
(PID.TID 0000.0001)                 1.000000013501597E+04,      /* J = 42 */
(PID.TID 0000.0001)                 1.000000008189132E+04,      /* J = 43 */
(PID.TID 0000.0001)                 1.000000004966960E+04,      /* J = 44 */
(PID.TID 0000.0001)                 1.000000003012614E+04       /* J = 45 */
(PID.TID 0000.0001)     ;
(PID.TID 0000.0001) dxV =  /* dxV(:,1,:,1) ( m - cartesian, degrees - spherical ) */
(PID.TID 0000.0001)   200 @  1.000000000000000E+04              /* I =  1:200 */
(PID.TID 0000.0001)     ;
(PID.TID 0000.0001) dxV =  /* dxV(1,:,1,:) ( m - cartesian, degrees - spherical ) */
(PID.TID 0000.0001)    45 @  1.000000000000000E+04              /* J =  1: 45 */
(PID.TID 0000.0001)     ;
(PID.TID 0000.0001) dyU =  /* dyU(:,1,:,1) ( m - cartesian, degrees - spherical ) */
(PID.TID 0000.0001)   200 @  2.677385207273788E+04              /* I =  1:200 */
(PID.TID 0000.0001)     ;
(PID.TID 0000.0001) dyU =  /* dyU(1,:,1,:) ( m - cartesian, degrees - spherical ) */
(PID.TID 0000.0001)                 2.677385207273788E+04,      /* J =  1 */
(PID.TID 0000.0001)                 4.165549587901211E+04,      /* J =  2 */
(PID.TID 0000.0001)                 3.910791371758271E+04,      /* J =  3 */
(PID.TID 0000.0001)                 3.587716877204639E+04,      /* J =  4 */
(PID.TID 0000.0001)                 2.914199168043226E+04,      /* J =  5 */
(PID.TID 0000.0001)                 2.174283198705695E+04,      /* J =  6 */
(PID.TID 0000.0001)                 1.663644365300232E+04,      /* J =  7 */
(PID.TID 0000.0001)                 1.374861422048732E+04,      /* J =  8 */
(PID.TID 0000.0001)                 1.215985854106310E+04,      /* J =  9 */
(PID.TID 0000.0001)                 1.126704630297760E+04,      /* J = 10 */
(PID.TID 0000.0001)                 1.075249268115118E+04,      /* J = 11 */
(PID.TID 0000.0001)                 1.045051450531219E+04,      /* J = 12 */
(PID.TID 0000.0001)                 1.027111019140946E+04,      /* J = 13 */
(PID.TID 0000.0001)                 1.016363321925900E+04,      /* J = 14 */
(PID.TID 0000.0001)                 1.009894939986813E+04,      /* J = 15 */
(PID.TID 0000.0001)                 1.005990497785152E+04,      /* J = 16 */
(PID.TID 0000.0001)                 1.003629323830432E+04,      /* J = 17 */
(PID.TID 0000.0001)                 1.002199785001068E+04,      /* J = 18 */
(PID.TID 0000.0001)                 1.001333680207765E+04,      /* J = 19 */
(PID.TID 0000.0001)                 1.000808712883038E+04,      /* J = 20 */
(PID.TID 0000.0001)                 1.000490433678236E+04,      /* J = 21 */
(PID.TID 0000.0001)                 1.000297435284652E+04,      /* J = 22 */
(PID.TID 0000.0001)                 1.000180393398297E+04,      /* J = 23 */
(PID.TID 0000.0001)                 1.000109410366231E+04,      /* J = 24 */
(PID.TID 0000.0001)                 1.000066359358033E+04,      /* J = 25 */
(PID.TID 0000.0001)                 1.000040248476191E+04,      /* J = 26 */
(PID.TID 0000.0001)                 1.000024411747555E+04,      /* J = 27 */
(PID.TID 0000.0001)                 1.000014806404458E+04,      /* J = 28 */
(PID.TID 0000.0001)                 1.000008980512919E+04,      /* J = 29 */
(PID.TID 0000.0001)                 1.000005446947102E+04,      /* J = 30 */
(PID.TID 0000.0001)                 1.000003303736990E+04,      /* J = 31 */
(PID.TID 0000.0001)                 1.000002003816515E+04,      /* J = 32 */
(PID.TID 0000.0001)                 1.000001215375688E+04,      /* J = 33 */
(PID.TID 0000.0001)                 1.000000737162447E+04,      /* J = 34 */
(PID.TID 0000.0001)                 1.000000447111562E+04,      /* J = 35 */
(PID.TID 0000.0001)                 1.000000271186848E+04,      /* J = 36 */
(PID.TID 0000.0001)                 1.000000164483129E+04,      /* J = 37 */
(PID.TID 0000.0001)                 1.000000099764058E+04,      /* J = 38 */
(PID.TID 0000.0001)                 1.000000060509959E+04,      /* J = 39 */
(PID.TID 0000.0001)                 1.000000036701145E+04,      /* J = 40 */
(PID.TID 0000.0001)                 1.000000022260369E+04,      /* J = 41 */
(PID.TID 0000.0001)                 1.000000013501597E+04,      /* J = 42 */
(PID.TID 0000.0001)                 1.000000008189132E+04,      /* J = 43 */
(PID.TID 0000.0001)                 1.000000004966960E+04,      /* J = 44 */
(PID.TID 0000.0001)                 1.000000003012614E+04       /* J = 45 */
(PID.TID 0000.0001)     ;
(PID.TID 0000.0001) rA =  /* rA(:,1,:,1) ( m - cartesian, degrees - spherical ) */
(PID.TID 0000.0001)   200 @  4.354770412272808E+08              /* I =  1:200 */
(PID.TID 0000.0001)     ;
(PID.TID 0000.0001) rA =  /* rA(1,:,1,:) ( m - cartesian, degrees - spherical ) */
(PID.TID 0000.0001)                 4.354770412272808E+08,      /* J =  1 */
(PID.TID 0000.0001)                 3.976328763529614E+08,      /* J =  2 */
(PID.TID 0000.0001)                 3.845253979986927E+08,      /* J =  3 */
(PID.TID 0000.0001)                 3.330179774422351E+08,      /* J =  4 */
(PID.TID 0000.0001)                 2.498218561664100E+08,      /* J =  5 */
(PID.TID 0000.0001)                 1.850347835747289E+08,      /* J =  6 */
(PID.TID 0000.0001)                 1.476940894853175E+08,      /* J =  7 */
(PID.TID 0000.0001)                 1.272781949244290E+08,      /* J =  8 */
(PID.TID 0000.0001)                 1.159189758968330E+08,      /* J =  9 */
(PID.TID 0000.0001)                 1.094219501627191E+08,      /* J = 10 */
(PID.TID 0000.0001)                 1.056279034603045E+08,      /* J = 11 */
(PID.TID 0000.0001)                 1.033823866459392E+08,      /* J = 12 */
(PID.TID 0000.0001)                 1.020398171822501E+08,      /* J = 13 */
(PID.TID 0000.0001)                 1.012328472029299E+08,      /* J = 14 */
(PID.TID 0000.0001)                 1.007461407944328E+08,      /* J = 15 */
(PID.TID 0000.0001)                 1.004519587625975E+08,      /* J = 16 */
(PID.TID 0000.0001)                 1.002739060034890E+08,      /* J = 17 */
(PID.TID 0000.0001)                 1.001660509967246E+08,      /* J = 18 */
(PID.TID 0000.0001)                 1.001006850448283E+08,      /* J = 19 */
(PID.TID 0000.0001)                 1.000610575317793E+08,      /* J = 20 */
(PID.TID 0000.0001)                 1.000370292038679E+08,      /* J = 21 */
(PID.TID 0000.0001)                 1.000224578530626E+08,      /* J = 22 */
(PID.TID 0000.0001)                 1.000136208265968E+08,      /* J = 23 */
(PID.TID 0000.0001)                 1.000082612466494E+08,      /* J = 24 */
(PID.TID 0000.0001)                 1.000050106249572E+08,      /* J = 25 */
(PID.TID 0000.0001)                 1.000030390702810E+08,      /* J = 26 */
(PID.TID 0000.0001)                 1.000018432792299E+08,      /* J = 27 */
(PID.TID 0000.0001)                 1.000011180016617E+08,      /* J = 28 */
(PID.TID 0000.0001)                 1.000006781009222E+08,      /* J = 29 */
(PID.TID 0000.0001)                 1.000004112884983E+08,      /* J = 30 */
(PID.TID 0000.0001)                 1.000002494588998E+08,      /* J = 31 */
(PID.TID 0000.0001)                 1.000001513044032E+08,      /* J = 32 */
(PID.TID 0000.0001)                 1.000000917707345E+08,      /* J = 33 */
(PID.TID 0000.0001)                 1.000000556617549E+08,      /* J = 34 */
(PID.TID 0000.0001)                 1.000000337605576E+08,      /* J = 35 */
(PID.TID 0000.0001)                 1.000000204768121E+08,      /* J = 36 */
(PID.TID 0000.0001)                 1.000000124198138E+08,      /* J = 37 */
(PID.TID 0000.0001)                 1.000000075329977E+08,      /* J = 38 */
(PID.TID 0000.0001)                 1.000000045689940E+08,      /* J = 39 */
(PID.TID 0000.0001)                 1.000000027712349E+08,      /* J = 40 */
(PID.TID 0000.0001)                 1.000000016808389E+08,      /* J = 41 */
(PID.TID 0000.0001)                 1.000000010194803E+08,      /* J = 42 */
(PID.TID 0000.0001)                 1.000000006183461E+08,      /* J = 43 */
(PID.TID 0000.0001)                 1.000000003750459E+08,      /* J = 44 */
(PID.TID 0000.0001)                 1.000000002274768E+08       /* J = 45 */
(PID.TID 0000.0001)     ;
(PID.TID 0000.0001) rAw =  /* rAw(:,1,:,1) ( m - cartesian, degrees - spherical ) */
(PID.TID 0000.0001)   200 @  4.354770412272808E+08              /* I =  1:200 */
(PID.TID 0000.0001)     ;
(PID.TID 0000.0001) rAw =  /* rAw(1,:,1,:) ( m - cartesian, degrees - spherical ) */
(PID.TID 0000.0001)                 4.354770412272808E+08,      /* J =  1 */
(PID.TID 0000.0001)                 3.976328763529614E+08,      /* J =  2 */
(PID.TID 0000.0001)                 3.845253979986927E+08,      /* J =  3 */
(PID.TID 0000.0001)                 3.330179774422351E+08,      /* J =  4 */
(PID.TID 0000.0001)                 2.498218561664100E+08,      /* J =  5 */
(PID.TID 0000.0001)                 1.850347835747289E+08,      /* J =  6 */
(PID.TID 0000.0001)                 1.476940894853175E+08,      /* J =  7 */
(PID.TID 0000.0001)                 1.272781949244290E+08,      /* J =  8 */
(PID.TID 0000.0001)                 1.159189758968330E+08,      /* J =  9 */
(PID.TID 0000.0001)                 1.094219501627191E+08,      /* J = 10 */
(PID.TID 0000.0001)                 1.056279034603045E+08,      /* J = 11 */
(PID.TID 0000.0001)                 1.033823866459392E+08,      /* J = 12 */
(PID.TID 0000.0001)                 1.020398171822501E+08,      /* J = 13 */
(PID.TID 0000.0001)                 1.012328472029299E+08,      /* J = 14 */
(PID.TID 0000.0001)                 1.007461407944328E+08,      /* J = 15 */
(PID.TID 0000.0001)                 1.004519587625975E+08,      /* J = 16 */
(PID.TID 0000.0001)                 1.002739060034890E+08,      /* J = 17 */
(PID.TID 0000.0001)                 1.001660509967246E+08,      /* J = 18 */
(PID.TID 0000.0001)                 1.001006850448283E+08,      /* J = 19 */
(PID.TID 0000.0001)                 1.000610575317793E+08,      /* J = 20 */
(PID.TID 0000.0001)                 1.000370292038679E+08,      /* J = 21 */
(PID.TID 0000.0001)                 1.000224578530626E+08,      /* J = 22 */
(PID.TID 0000.0001)                 1.000136208265968E+08,      /* J = 23 */
(PID.TID 0000.0001)                 1.000082612466494E+08,      /* J = 24 */
(PID.TID 0000.0001)                 1.000050106249572E+08,      /* J = 25 */
(PID.TID 0000.0001)                 1.000030390702810E+08,      /* J = 26 */
(PID.TID 0000.0001)                 1.000018432792299E+08,      /* J = 27 */
(PID.TID 0000.0001)                 1.000011180016617E+08,      /* J = 28 */
(PID.TID 0000.0001)                 1.000006781009222E+08,      /* J = 29 */
(PID.TID 0000.0001)                 1.000004112884983E+08,      /* J = 30 */
(PID.TID 0000.0001)                 1.000002494588998E+08,      /* J = 31 */
(PID.TID 0000.0001)                 1.000001513044032E+08,      /* J = 32 */
(PID.TID 0000.0001)                 1.000000917707345E+08,      /* J = 33 */
(PID.TID 0000.0001)                 1.000000556617549E+08,      /* J = 34 */
(PID.TID 0000.0001)                 1.000000337605576E+08,      /* J = 35 */
(PID.TID 0000.0001)                 1.000000204768121E+08,      /* J = 36 */
(PID.TID 0000.0001)                 1.000000124198138E+08,      /* J = 37 */
(PID.TID 0000.0001)                 1.000000075329977E+08,      /* J = 38 */
(PID.TID 0000.0001)                 1.000000045689940E+08,      /* J = 39 */
(PID.TID 0000.0001)                 1.000000027712349E+08,      /* J = 40 */
(PID.TID 0000.0001)                 1.000000016808389E+08,      /* J = 41 */
(PID.TID 0000.0001)                 1.000000010194803E+08,      /* J = 42 */
(PID.TID 0000.0001)                 1.000000006183461E+08,      /* J = 43 */
(PID.TID 0000.0001)                 1.000000003750459E+08,      /* J = 44 */
(PID.TID 0000.0001)                 1.000000002274768E+08       /* J = 45 */
(PID.TID 0000.0001)     ;
(PID.TID 0000.0001) rAs =  /* rAs(:,1,:,1) ( m - cartesian, degrees - spherical ) */
(PID.TID 0000.0001)   200 @  2.677385207273788E+08              /* I =  1:200 */
(PID.TID 0000.0001)     ;
(PID.TID 0000.0001) rAs =  /* rAs(1,:,1,:) ( m - cartesian, degrees - spherical ) */
(PID.TID 0000.0001)                 2.677385207273788E+08,      /* J =  1 */
(PID.TID 0000.0001)                 4.165549587901211E+08,      /* J =  2 */
(PID.TID 0000.0001)                 3.910791371758270E+08,      /* J =  3 */
(PID.TID 0000.0001)                 3.587716877204639E+08,      /* J =  4 */
(PID.TID 0000.0001)                 2.914199168043225E+08,      /* J =  5 */
(PID.TID 0000.0001)                 2.174283198705695E+08,      /* J =  6 */
(PID.TID 0000.0001)                 1.663644365300232E+08,      /* J =  7 */
(PID.TID 0000.0001)                 1.374861422048733E+08,      /* J =  8 */
(PID.TID 0000.0001)                 1.215985854106310E+08,      /* J =  9 */
(PID.TID 0000.0001)                 1.126704630297760E+08,      /* J = 10 */
(PID.TID 0000.0001)                 1.075249268115118E+08,      /* J = 11 */
(PID.TID 0000.0001)                 1.045051450531218E+08,      /* J = 12 */
(PID.TID 0000.0001)                 1.027111019140946E+08,      /* J = 13 */
(PID.TID 0000.0001)                 1.016363321925900E+08,      /* J = 14 */
(PID.TID 0000.0001)                 1.009894939986813E+08,      /* J = 15 */
(PID.TID 0000.0001)                 1.005990497785152E+08,      /* J = 16 */
(PID.TID 0000.0001)                 1.003629323830432E+08,      /* J = 17 */
(PID.TID 0000.0001)                 1.002199785001068E+08,      /* J = 18 */
(PID.TID 0000.0001)                 1.001333680207765E+08,      /* J = 19 */
(PID.TID 0000.0001)                 1.000808712883038E+08,      /* J = 20 */
(PID.TID 0000.0001)                 1.000490433678236E+08,      /* J = 21 */
(PID.TID 0000.0001)                 1.000297435284652E+08,      /* J = 22 */
(PID.TID 0000.0001)                 1.000180393398297E+08,      /* J = 23 */
(PID.TID 0000.0001)                 1.000109410366231E+08,      /* J = 24 */
(PID.TID 0000.0001)                 1.000066359358033E+08,      /* J = 25 */
(PID.TID 0000.0001)                 1.000040248476191E+08,      /* J = 26 */
(PID.TID 0000.0001)                 1.000024411747555E+08,      /* J = 27 */
(PID.TID 0000.0001)                 1.000014806404458E+08,      /* J = 28 */
(PID.TID 0000.0001)                 1.000008980512919E+08,      /* J = 29 */
(PID.TID 0000.0001)                 1.000005446947102E+08,      /* J = 30 */
(PID.TID 0000.0001)                 1.000003303736990E+08,      /* J = 31 */
(PID.TID 0000.0001)                 1.000002003816515E+08,      /* J = 32 */
(PID.TID 0000.0001)                 1.000001215375689E+08,      /* J = 33 */
(PID.TID 0000.0001)                 1.000000737162447E+08,      /* J = 34 */
(PID.TID 0000.0001)                 1.000000447111562E+08,      /* J = 35 */
(PID.TID 0000.0001)                 1.000000271186848E+08,      /* J = 36 */
(PID.TID 0000.0001)                 1.000000164483129E+08,      /* J = 37 */
(PID.TID 0000.0001)                 1.000000099764058E+08,      /* J = 38 */
(PID.TID 0000.0001)                 1.000000060509959E+08,      /* J = 39 */
(PID.TID 0000.0001)                 1.000000036701145E+08,      /* J = 40 */
(PID.TID 0000.0001)                 1.000000022260369E+08,      /* J = 41 */
(PID.TID 0000.0001)                 1.000000013501597E+08,      /* J = 42 */
(PID.TID 0000.0001)                 1.000000008189132E+08,      /* J = 43 */
(PID.TID 0000.0001)                 1.000000004966960E+08,      /* J = 44 */
(PID.TID 0000.0001)                 1.000000003012614E+08       /* J = 45 */
(PID.TID 0000.0001)     ;
(PID.TID 0000.0001) 
(PID.TID 0000.0001)  MDSREADFIELD: opening global file: T.init
(PID.TID 0000.0001) // =======================================================
(PID.TID 0000.0001) // Field Initial Temperature at iteration          1
(PID.TID 0000.0001) // CMIN =         -1.941747572815533E-01
(PID.TID 0000.0001) // CMAX =         -1.941747572815533E-01
(PID.TID 0000.0001) // CINT =          0.000000000000000E+00
(PID.TID 0000.0001) // SYMBOLS (CMIN->CMAX): -abcdefghijklmnopqrstuvwxyz+
(PID.TID 0000.0001) //                  0.0: .
(PID.TID 0000.0001) // RANGE I (Lo:Hi:Step):(   1: 200:   1)
(PID.TID 0000.0001) // RANGE J (Lo:Hi:Step):(  45:   1:  -1)
(PID.TID 0000.0001) // RANGE K (Lo:Hi:Step):(   1:   1:   1)
(PID.TID 0000.0001) // =======================================================
(PID.TID 0000.0001) // =======================================================
(PID.TID 0000.0001) // END OF FIELD                                          =
(PID.TID 0000.0001) // =======================================================
(PID.TID 0000.0001) 
(PID.TID 0000.0001) // =======================================================
(PID.TID 0000.0001) // Field Initial Salinity at iteration          1
(PID.TID 0000.0001) // CMIN =          1.000000000000000E+00
(PID.TID 0000.0001) // CMAX =          1.000000000000000E+00
(PID.TID 0000.0001) // CINT =          0.000000000000000E+00
(PID.TID 0000.0001) // SYMBOLS (CMIN->CMAX): -abcdefghijklmnopqrstuvwxyz+
(PID.TID 0000.0001) //                  0.0: .
(PID.TID 0000.0001) // RANGE I (Lo:Hi:Step):(   1: 200:   1)
(PID.TID 0000.0001) // RANGE J (Lo:Hi:Step):(  45:   1:  -1)
(PID.TID 0000.0001) // RANGE K (Lo:Hi:Step):(   1:   1:   1)
(PID.TID 0000.0001) // =======================================================
(PID.TID 0000.0001) // =======================================================
(PID.TID 0000.0001) // END OF FIELD                                          =
(PID.TID 0000.0001) // =======================================================
(PID.TID 0000.0001) 
(PID.TID 0000.0001) Start initial hydrostatic pressure computation
(PID.TID 0000.0001) Pressure is predetermined for buoyancyRelation OCEANIC
(PID.TID 0000.0001) 
(PID.TID 0000.0001)  write diagnostics summary to file ioUnit:      6
Iter.Nb:         0 ; Time(s):  0.0000000000000E+00
------------------------------------------------------------------------
2D/3D diagnostics: Number of lists:     1
------------------------------------------------------------------------
listId=   1 ; file name: visc
 nFlds, nActive,       freq     &   phase        , nLev                 
   1  |   1  |      3000.000000         0.000000 |  25
 levels:   1   2   3   4   5   6   7   8   9  10  11  12  13  14  15  16  17  18  19  20  21  22  23  24  25
 diag#| name   | ipt  | iMate| kLev| count | mate.C|                    
   95 |VISCA4D |    1 |    0 |  25 |     0 |
------------------------------------------------------------------------
Global & Regional Statistics diagnostics: Number of lists:     0
------------------------------------------------------------------------
(PID.TID 0000.0001) // =======================================================
(PID.TID 0000.0001) // Model current state
(PID.TID 0000.0001) // =======================================================
(PID.TID 0000.0001) 
(PID.TID 0000.0001) // =======================================================
(PID.TID 0000.0001) // Begin MONITOR dynamic field statistics
(PID.TID 0000.0001) // =======================================================
(PID.TID 0000.0001) %MON time_tsnumber                =                     0
(PID.TID 0000.0001) %MON time_secondsf                =   0.0000000000000E+00
(PID.TID 0000.0001) %MON dynstat_eta_max              =   0.0000000000000E+00
(PID.TID 0000.0001) %MON dynstat_eta_min              =   0.0000000000000E+00
(PID.TID 0000.0001) %MON dynstat_eta_mean             =   0.0000000000000E+00
(PID.TID 0000.0001) %MON dynstat_eta_sd               =   0.0000000000000E+00
(PID.TID 0000.0001) %MON dynstat_eta_del2             =   0.0000000000000E+00
(PID.TID 0000.0001) %MON dynstat_uvel_max             =   0.0000000000000E+00
(PID.TID 0000.0001) %MON dynstat_uvel_min             =   0.0000000000000E+00
(PID.TID 0000.0001) %MON dynstat_uvel_mean            =   0.0000000000000E+00
(PID.TID 0000.0001) %MON dynstat_uvel_sd              =   0.0000000000000E+00
(PID.TID 0000.0001) %MON dynstat_uvel_del2            =   0.0000000000000E+00
(PID.TID 0000.0001) %MON dynstat_vvel_max             =   0.0000000000000E+00
(PID.TID 0000.0001) %MON dynstat_vvel_min             =  -1.9393425212476E+00
(PID.TID 0000.0001) %MON dynstat_vvel_mean            =  -3.4481281093507E-05
(PID.TID 0000.0001) %MON dynstat_vvel_sd              =   6.8634250558140E-03
(PID.TID 0000.0001) %MON dynstat_vvel_del2            =   4.7959883259205E-05
(PID.TID 0000.0001) %MON dynstat_wvel_max             =   4.8654876599978E-02
(PID.TID 0000.0001) %MON dynstat_wvel_min             =  -4.8654876671778E-02
(PID.TID 0000.0001) %MON dynstat_wvel_mean            =   1.1859288267474E-23
(PID.TID 0000.0001) %MON dynstat_wvel_sd              =   3.1707972158465E-04
(PID.TID 0000.0001) %MON dynstat_wvel_del2            =   4.1329437904732E-06
(PID.TID 0000.0001) %MON dynstat_theta_max            =  -1.9417475728155E-01
(PID.TID 0000.0001) %MON dynstat_theta_min            =  -9.7087381093410E+00
(PID.TID 0000.0001) %MON dynstat_theta_mean           =  -4.1282029734285E+00
(PID.TID 0000.0001) %MON dynstat_theta_sd             =   2.6834035016147E+00
(PID.TID 0000.0001) %MON dynstat_theta_del2           =   4.4351272023061E-04
(PID.TID 0000.0001) %MON dynstat_salt_max             =   2.0000000000000E+00
(PID.TID 0000.0001) %MON dynstat_salt_min             =   1.0000000000000E+00
(PID.TID 0000.0001) %MON dynstat_salt_mean            =   1.0000284002028E+00
(PID.TID 0000.0001) %MON dynstat_salt_sd              =   5.1195250063010E-03
(PID.TID 0000.0001) %MON dynstat_salt_del2            =   5.5335980057108E-05
(PID.TID 0000.0001) %MON advcfl_uvel_max              =   0.0000000000000E+00
(PID.TID 0000.0001) %MON advcfl_vvel_max              =   5.8180275462155E-02
(PID.TID 0000.0001) %MON advcfl_wvel_max              =   2.0272865279907E-01
(PID.TID 0000.0001) %MON advcfl_W_hf_max              =   2.0272865279907E-01
(PID.TID 0000.0001) %MON pe_b_mean                    =   0.0000000000000E+00
(PID.TID 0000.0001) %MON ke_max                       =   9.4026235437356E-01
(PID.TID 0000.0001) %MON ke_mean                      =   2.2000289742654E-05
(PID.TID 0000.0001) %MON ke_vol                       =   2.7059236822589E+15
(PID.TID 0000.0001) %MON vort_r_min                   =  -1.9393425212476E-04
(PID.TID 0000.0001) %MON vort_r_max                   =   1.0515998621734E-04
(PID.TID 0000.0001) %MON vort_a_mean                  =   1.0000000000000E-04
(PID.TID 0000.0001) %MON vort_a_sd                    =   7.5823206071254E-07
(PID.TID 0000.0001) %MON vort_p_mean                  =   1.1277618388223E-04
(PID.TID 0000.0001) %MON vort_p_sd                    =   7.1146391807535E-05
(PID.TID 0000.0001) %MON surfExpan_theta_mean         =   2.0884615728699E-12
(PID.TID 0000.0001) %MON surfExpan_salt_mean          =   1.2804977662655E-21
(PID.TID 0000.0001) // =======================================================
(PID.TID 0000.0001) // End MONITOR dynamic field statistics
(PID.TID 0000.0001) // =======================================================
 cg2d: Sum(rhs),rhsMax =  -1.81567223641077E+00  1.11768927954085E+00
(PID.TID 0000.0001)                    cg2d_init_res =    1.12669213896854E+00
(PID.TID 0000.0001)                       cg2d_iters =    78
(PID.TID 0000.0001)                         cg2d_res =    8.34561995715851E-12
(PID.TID 0000.0001) // =======================================================
(PID.TID 0000.0001) // Begin MONITOR dynamic field statistics
(PID.TID 0000.0001) // =======================================================
(PID.TID 0000.0001) %MON time_tsnumber                =                     1
(PID.TID 0000.0001) %MON time_secondsf                =   3.0000000000000E+02
(PID.TID 0000.0001) %MON dynstat_eta_max              =   3.0327514316519E+00
(PID.TID 0000.0001) %MON dynstat_eta_min              =   0.0000000000000E+00
(PID.TID 0000.0001) %MON dynstat_eta_mean             =   2.5813385030270E-03
(PID.TID 0000.0001) %MON dynstat_eta_sd               =   5.2368201140248E-02
(PID.TID 0000.0001) %MON dynstat_eta_del2             =   7.7795787649202E-04
(PID.TID 0000.0001) %MON dynstat_uvel_max             =   2.3422014666026E-01
(PID.TID 0000.0001) %MON dynstat_uvel_min             =  -3.6268859491390E-02
(PID.TID 0000.0001) %MON dynstat_uvel_mean            =   3.9263756944975E-05
(PID.TID 0000.0001) %MON dynstat_uvel_sd              =   2.1479416030326E-03
(PID.TID 0000.0001) %MON dynstat_uvel_del2            =   2.4096627672157E-05
(PID.TID 0000.0001) %MON dynstat_vvel_max             =   1.5632672806253E-06
(PID.TID 0000.0001) %MON dynstat_vvel_min             =  -1.9393425212476E+00
(PID.TID 0000.0001) %MON dynstat_vvel_mean            =  -1.0473673193564E-04
(PID.TID 0000.0001) %MON dynstat_vvel_sd              =   7.5364690434954E-03
(PID.TID 0000.0001) %MON dynstat_vvel_del2            =   5.1645511142537E-05
(PID.TID 0000.0001) %MON dynstat_wvel_max             =   2.8151680350818E-02
(PID.TID 0000.0001) %MON dynstat_wvel_min             =  -4.8654876671778E-02
(PID.TID 0000.0001) %MON dynstat_wvel_mean            =   1.1650006709813E-22
(PID.TID 0000.0001) %MON dynstat_wvel_sd              =   2.5591392819364E-04
(PID.TID 0000.0001) %MON dynstat_wvel_del2            =   2.7275865728649E-06
(PID.TID 0000.0001) %MON dynstat_theta_max            =  -1.9417475728155E-01
(PID.TID 0000.0001) %MON dynstat_theta_min            =  -9.7087381093410E+00
(PID.TID 0000.0001) %MON dynstat_theta_mean           =  -4.1282112077302E+00
(PID.TID 0000.0001) %MON dynstat_theta_sd             =   2.6833953071012E+00
(PID.TID 0000.0001) %MON dynstat_theta_del2           =   4.3485210917049E-04
(PID.TID 0000.0001) %MON dynstat_salt_max             =   2.0000000000000E+00
(PID.TID 0000.0001) %MON dynstat_salt_min             =   1.0000000000000E+00
(PID.TID 0000.0001) %MON dynstat_salt_mean            =   1.0000292676600E+00
(PID.TID 0000.0001) %MON dynstat_salt_sd              =   5.1227760321675E-03
(PID.TID 0000.0001) %MON dynstat_salt_del2            =   5.4236519637736E-05
(PID.TID 0000.0001) %MON advcfl_uvel_max              =   7.0266043998078E-03
(PID.TID 0000.0001) %MON advcfl_vvel_max              =   5.8180275462155E-02
(PID.TID 0000.0001) %MON advcfl_wvel_max              =   2.0272865279907E-01
(PID.TID 0000.0001) %MON advcfl_W_hf_max              =   2.0272865279907E-01
(PID.TID 0000.0001) %MON pe_b_mean                    =   5.0472356753025E-06
(PID.TID 0000.0001) %MON ke_max                       =   9.9945224405630E-01
(PID.TID 0000.0001) %MON ke_mean                      =   2.8826862587083E-05
(PID.TID 0000.0001) %MON ke_vol                       =   2.7059236822589E+15
(PID.TID 0000.0001) %MON vort_r_min                   =  -1.9393425212476E-04
(PID.TID 0000.0001) %MON vort_r_max                   =   1.2820799926882E-04
(PID.TID 0000.0001) %MON vort_a_mean                  =   1.0000000000000E-04
(PID.TID 0000.0001) %MON vort_a_sd                    =   8.7459537965498E-07
(PID.TID 0000.0001) %MON vort_p_mean                  =   1.1277618388223E-04
(PID.TID 0000.0001) %MON vort_p_sd                    =   7.1134861855619E-05
(PID.TID 0000.0001) %MON surfExpan_theta_mean         =  -1.4095645667716E-08
(PID.TID 0000.0001) %MON surfExpan_salt_mean          =  -1.8049091936842E-21
(PID.TID 0000.0001) // =======================================================
(PID.TID 0000.0001) // End MONITOR dynamic field statistics
(PID.TID 0000.0001) // =======================================================
 cg2d: Sum(rhs),rhsMax =  -8.49524092604429E+00  4.77763352782894E-01
(PID.TID 0000.0001)                    cg2d_init_res =    1.77716628868360E+00
(PID.TID 0000.0001)                       cg2d_iters =    83
(PID.TID 0000.0001)                         cg2d_res =    9.75327709192233E-12
(PID.TID 0000.0001) // =======================================================
(PID.TID 0000.0001) // Begin MONITOR dynamic field statistics
(PID.TID 0000.0001) // =======================================================
(PID.TID 0000.0001) %MON time_tsnumber                =                     2
(PID.TID 0000.0001) %MON time_secondsf                =   6.0000000000000E+02
(PID.TID 0000.0001) %MON dynstat_eta_max              =   2.3878284769704E+00
(PID.TID 0000.0001) %MON dynstat_eta_min              =   0.0000000000000E+00
(PID.TID 0000.0001) %MON dynstat_eta_mean             =   5.1626770061175E-03
(PID.TID 0000.0001) %MON dynstat_eta_sd               =   6.5601784708086E-02
(PID.TID 0000.0001) %MON dynstat_eta_del2             =   8.0823969082348E-04
(PID.TID 0000.0001) %MON dynstat_uvel_max             =   3.3264242628448E-01
(PID.TID 0000.0001) %MON dynstat_uvel_min             =  -1.0675508085422E-01
(PID.TID 0000.0001) %MON dynstat_uvel_mean            =   7.5631618119745E-05
(PID.TID 0000.0001) %MON dynstat_uvel_sd              =   3.6791634518354E-03
(PID.TID 0000.0001) %MON dynstat_uvel_del2            =   3.8405927850518E-05
(PID.TID 0000.0001) %MON dynstat_vvel_max             =   9.5262631695129E-06
(PID.TID 0000.0001) %MON dynstat_vvel_min             =  -1.9393425212476E+00
(PID.TID 0000.0001) %MON dynstat_vvel_mean            =  -2.0582375104184E-04
(PID.TID 0000.0001) %MON dynstat_vvel_sd              =   8.5766777562042E-03
(PID.TID 0000.0001) %MON dynstat_vvel_del2            =   5.4440963670272E-05
(PID.TID 0000.0001) %MON dynstat_wvel_max             =   2.1681422471267E-02
(PID.TID 0000.0001) %MON dynstat_wvel_min             =  -4.8654876671778E-02
(PID.TID 0000.0001) %MON dynstat_wvel_mean            =  -3.2647922995165E-22
(PID.TID 0000.0001) %MON dynstat_wvel_sd              =   2.4186980624899E-04
(PID.TID 0000.0001) %MON dynstat_wvel_del2            =   2.4255808276830E-06
(PID.TID 0000.0001) %MON dynstat_theta_max            =  -1.9417475728155E-01
(PID.TID 0000.0001) %MON dynstat_theta_min            =  -9.7087381093410E+00
(PID.TID 0000.0001) %MON dynstat_theta_mean           =  -4.1282194419133E+00
(PID.TID 0000.0001) %MON dynstat_theta_sd             =   2.6833879519075E+00
(PID.TID 0000.0001) %MON dynstat_theta_del2           =   4.2626670620915E-04
(PID.TID 0000.0001) %MON dynstat_salt_max             =   2.0000000000000E+00
(PID.TID 0000.0001) %MON dynstat_salt_min             =   1.0000000000000E+00
(PID.TID 0000.0001) %MON dynstat_salt_mean            =   1.0000301351172E+00
(PID.TID 0000.0001) %MON dynstat_salt_sd              =   5.1322805539289E-03
(PID.TID 0000.0001) %MON dynstat_salt_del2            =   5.3152947168247E-05
(PID.TID 0000.0001) %MON advcfl_uvel_max              =   9.9792727885345E-03
(PID.TID 0000.0001) %MON advcfl_vvel_max              =   5.8180275462155E-02
(PID.TID 0000.0001) %MON advcfl_wvel_max              =   2.0272865279907E-01
(PID.TID 0000.0001) %MON advcfl_W_hf_max              =   2.0272865279907E-01
(PID.TID 0000.0001) %MON pe_b_mean                    =   7.9501816274022E-06
(PID.TID 0000.0001) %MON ke_max                       =   1.0479535966813E+00
(PID.TID 0000.0001) %MON ke_mean                      =   4.1109747693387E-05
(PID.TID 0000.0001) %MON ke_vol                       =   2.7059236822589E+15
(PID.TID 0000.0001) %MON vort_r_min                   =  -1.9393425212476E-04
(PID.TID 0000.0001) %MON vort_r_max                   =   1.3540050462994E-04
(PID.TID 0000.0001) %MON vort_a_mean                  =   1.0000000000000E-04
(PID.TID 0000.0001) %MON vort_a_sd                    =   9.6538207309996E-07
(PID.TID 0000.0001) %MON vort_p_mean                  =   1.1277618388223E-04
(PID.TID 0000.0001) %MON vort_p_sd                    =   7.1129696185968E-05
(PID.TID 0000.0001) %MON surfExpan_theta_mean         =  -2.9322078065901E-09
(PID.TID 0000.0001) %MON surfExpan_salt_mean          =  -5.1683875543427E-15
(PID.TID 0000.0001) // =======================================================
(PID.TID 0000.0001) // End MONITOR dynamic field statistics
(PID.TID 0000.0001) // =======================================================
 cg2d: Sum(rhs),rhsMax =  -2.81198765625986E+01  2.16504228521474E-01
(PID.TID 0000.0001)                    cg2d_init_res =    2.19532494450191E+00
(PID.TID 0000.0001)                       cg2d_iters =    86
(PID.TID 0000.0001)                         cg2d_res =    9.17172786578385E-12
(PID.TID 0000.0001) // =======================================================
(PID.TID 0000.0001) // Begin MONITOR dynamic field statistics
(PID.TID 0000.0001) // =======================================================
(PID.TID 0000.0001) %MON time_tsnumber                =                     3
(PID.TID 0000.0001) %MON time_secondsf                =   9.0000000000000E+02
(PID.TID 0000.0001) %MON dynstat_eta_max              =   1.4897024961930E+00
(PID.TID 0000.0001) %MON dynstat_eta_min              =   0.0000000000000E+00
(PID.TID 0000.0001) %MON dynstat_eta_mean             =   7.7440155092137E-03
(PID.TID 0000.0001) %MON dynstat_eta_sd               =   6.7430118227239E-02
(PID.TID 0000.0001) %MON dynstat_eta_del2             =   7.4868575038919E-04
(PID.TID 0000.0001) %MON dynstat_uvel_max             =   3.5528501463016E-01
(PID.TID 0000.0001) %MON dynstat_uvel_min             =  -1.7540183912694E-01
(PID.TID 0000.0001) %MON dynstat_uvel_mean            =   9.2226384420543E-05
(PID.TID 0000.0001) %MON dynstat_uvel_sd              =   4.4844272459358E-03
(PID.TID 0000.0001) %MON dynstat_uvel_del2            =   4.5067116702884E-05
(PID.TID 0000.0001) %MON dynstat_vvel_max             =   3.0006490482409E-05
(PID.TID 0000.0001) %MON dynstat_vvel_min             =  -1.9393425212476E+00
(PID.TID 0000.0001) %MON dynstat_vvel_mean            =  -3.3522086614657E-04
(PID.TID 0000.0001) %MON dynstat_vvel_sd              =   9.3757203444246E-03
(PID.TID 0000.0001) %MON dynstat_vvel_del2            =   5.8953764433162E-05
(PID.TID 0000.0001) %MON dynstat_wvel_max             =   2.1061796157666E-02
(PID.TID 0000.0001) %MON dynstat_wvel_min             =  -4.8654876671778E-02
(PID.TID 0000.0001) %MON dynstat_wvel_mean            =   1.7635459258927E-21
(PID.TID 0000.0001) %MON dynstat_wvel_sd              =   2.3998084726223E-04
(PID.TID 0000.0001) %MON dynstat_wvel_del2            =   2.4585941854677E-06
(PID.TID 0000.0001) %MON dynstat_theta_max            =  -1.9417475728155E-01
(PID.TID 0000.0001) %MON dynstat_theta_min            =  -9.7087381093410E+00
(PID.TID 0000.0001) %MON dynstat_theta_mean           =  -4.1282276765559E+00
(PID.TID 0000.0001) %MON dynstat_theta_sd             =   2.6833813738100E+00
(PID.TID 0000.0001) %MON dynstat_theta_del2           =   4.1789057097385E-04
(PID.TID 0000.0001) %MON dynstat_salt_max             =   2.0000000000000E+00
(PID.TID 0000.0001) %MON dynstat_salt_min             =   1.0000000000000E+00
(PID.TID 0000.0001) %MON dynstat_salt_mean            =   1.0000310025744E+00
(PID.TID 0000.0001) %MON dynstat_salt_sd              =   5.1476166647130E-03
(PID.TID 0000.0001) %MON dynstat_salt_del2            =   5.2089231676524E-05
(PID.TID 0000.0001) %MON advcfl_uvel_max              =   1.0658550438905E-02
(PID.TID 0000.0001) %MON advcfl_vvel_max              =   5.8180275462155E-02
(PID.TID 0000.0001) %MON advcfl_wvel_max              =   2.0272865279907E-01
(PID.TID 0000.0001) %MON advcfl_W_hf_max              =   2.0272865279907E-01
(PID.TID 0000.0001) %MON pe_b_mean                    =   8.4579052525627E-06
(PID.TID 0000.0001) %MON ke_max                       =   1.0599543037781E+00
(PID.TID 0000.0001) %MON ke_mean                      =   5.1113163869827E-05
(PID.TID 0000.0001) %MON ke_vol                       =   2.7059236822589E+15
(PID.TID 0000.0001) %MON vort_r_min                   =  -1.9393425212476E-04
(PID.TID 0000.0001) %MON vort_r_max                   =   1.3538633287298E-04
(PID.TID 0000.0001) %MON vort_a_mean                  =   1.0000000000000E-04
(PID.TID 0000.0001) %MON vort_a_sd                    =   1.0042841993836E-06
(PID.TID 0000.0001) %MON vort_p_mean                  =   1.1277618388223E-04
(PID.TID 0000.0001) %MON vort_p_sd                    =   7.1127777903962E-05
(PID.TID 0000.0001) %MON surfExpan_theta_mean         =   2.3582864636200E-09
(PID.TID 0000.0001) %MON surfExpan_salt_mean          =  -2.1644632109622E-14
(PID.TID 0000.0001) // =======================================================
(PID.TID 0000.0001) // End MONITOR dynamic field statistics
(PID.TID 0000.0001) // =======================================================
 cg2d: Sum(rhs),rhsMax =  -6.99460104066415E+01  1.16052788828071E-01
(PID.TID 0000.0001)                    cg2d_init_res =    2.47502829528916E+00
(PID.TID 0000.0001)                       cg2d_iters =    88
(PID.TID 0000.0001)                         cg2d_res =    9.96727199352220E-12
(PID.TID 0000.0001) // =======================================================
(PID.TID 0000.0001) // Begin MONITOR dynamic field statistics
(PID.TID 0000.0001) // =======================================================
(PID.TID 0000.0001) %MON time_tsnumber                =                     4
(PID.TID 0000.0001) %MON time_secondsf                =   1.2000000000000E+03
(PID.TID 0000.0001) %MON dynstat_eta_max              =   9.4478535959623E-01
(PID.TID 0000.0001) %MON dynstat_eta_min              =   0.0000000000000E+00
(PID.TID 0000.0001) %MON dynstat_eta_mean             =   1.0325354012316E-02
(PID.TID 0000.0001) %MON dynstat_eta_sd               =   6.5598930199789E-02
(PID.TID 0000.0001) %MON dynstat_eta_del2             =   6.3139770900342E-04
(PID.TID 0000.0001) %MON dynstat_uvel_max             =   3.4497428026051E-01
(PID.TID 0000.0001) %MON dynstat_uvel_min             =  -2.1880983467265E-01
(PID.TID 0000.0001) %MON dynstat_uvel_mean            =   8.7074465179948E-05
(PID.TID 0000.0001) %MON dynstat_uvel_sd              =   4.7970529572090E-03
(PID.TID 0000.0001) %MON dynstat_uvel_del2            =   4.6406595115445E-05
(PID.TID 0000.0001) %MON dynstat_vvel_max             =   6.9717632651407E-05
(PID.TID 0000.0001) %MON dynstat_vvel_min             =  -1.9393425212476E+00
(PID.TID 0000.0001) %MON dynstat_vvel_mean            =  -4.9537360869349E-04
(PID.TID 0000.0001) %MON dynstat_vvel_sd              =   9.9578092423659E-03
(PID.TID 0000.0001) %MON dynstat_vvel_del2            =   6.1993923828665E-05
(PID.TID 0000.0001) %MON dynstat_wvel_max             =   2.1353870811053E-02
(PID.TID 0000.0001) %MON dynstat_wvel_min             =  -4.8654876671778E-02
(PID.TID 0000.0001) %MON dynstat_wvel_mean            =  -2.2323366150540E-21
(PID.TID 0000.0001) %MON dynstat_wvel_sd              =   2.4042595965429E-04
(PID.TID 0000.0001) %MON dynstat_wvel_del2            =   2.5217487417440E-06
(PID.TID 0000.0001) %MON dynstat_theta_max            =  -1.9417475728155E-01
(PID.TID 0000.0001) %MON dynstat_theta_min            =  -9.7087381093410E+00
(PID.TID 0000.0001) %MON dynstat_theta_mean           =  -4.1282359113224E+00
(PID.TID 0000.0001) %MON dynstat_theta_sd             =   2.6833755163347E+00
(PID.TID 0000.0001) %MON dynstat_theta_del2           =   4.0973130701905E-04
(PID.TID 0000.0001) %MON dynstat_salt_max             =   2.0000000000000E+00
(PID.TID 0000.0001) %MON dynstat_salt_min             =   1.0000000000000E+00
(PID.TID 0000.0001) %MON dynstat_salt_mean            =   1.0000318700316E+00
(PID.TID 0000.0001) %MON dynstat_salt_sd              =   5.1683602401800E-03
(PID.TID 0000.0001) %MON dynstat_salt_del2            =   5.1048987964573E-05
(PID.TID 0000.0001) %MON advcfl_uvel_max              =   1.0349228407815E-02
(PID.TID 0000.0001) %MON advcfl_vvel_max              =   5.8180275462155E-02
(PID.TID 0000.0001) %MON advcfl_wvel_max              =   2.0272865279907E-01
(PID.TID 0000.0001) %MON advcfl_W_hf_max              =   2.0272865279907E-01
(PID.TID 0000.0001) %MON pe_b_mean                    =   8.0962972284289E-06
(PID.TID 0000.0001) %MON ke_max                       =   1.0660773075785E+00
(PID.TID 0000.0001) %MON ke_mean                      =   5.7873965567923E-05
(PID.TID 0000.0001) %MON ke_vol                       =   2.7059236822589E+15
(PID.TID 0000.0001) %MON vort_r_min                   =  -1.9393425212476E-04
(PID.TID 0000.0001) %MON vort_r_max                   =   1.3380297869027E-04
(PID.TID 0000.0001) %MON vort_a_mean                  =   1.0000000000000E-04
(PID.TID 0000.0001) %MON vort_a_sd                    =   1.0146048635784E-06
(PID.TID 0000.0001) %MON vort_p_mean                  =   1.1277618388223E-04
(PID.TID 0000.0001) %MON vort_p_sd                    =   7.1127586758336E-05
(PID.TID 0000.0001) %MON surfExpan_theta_mean         =   3.8645317693226E-09
(PID.TID 0000.0001) %MON surfExpan_salt_mean          =  -4.8324937278293E-14
(PID.TID 0000.0001) // =======================================================
(PID.TID 0000.0001) // End MONITOR dynamic field statistics
(PID.TID 0000.0001) // =======================================================
 cg2d: Sum(rhs),rhsMax =  -1.39301978030865E+02  7.28402217420659E-02
(PID.TID 0000.0001)                    cg2d_init_res =    2.86435385739007E+00
(PID.TID 0000.0001)                       cg2d_iters =    90
(PID.TID 0000.0001)                         cg2d_res =    7.91341711858882E-12
(PID.TID 0000.0001) // =======================================================
(PID.TID 0000.0001) // Begin MONITOR dynamic field statistics
(PID.TID 0000.0001) // =======================================================
(PID.TID 0000.0001) %MON time_tsnumber                =                     5
(PID.TID 0000.0001) %MON time_secondsf                =   1.5000000000000E+03
(PID.TID 0000.0001) %MON dynstat_eta_max              =   7.7182437622340E-01
(PID.TID 0000.0001) %MON dynstat_eta_min              =   0.0000000000000E+00
(PID.TID 0000.0001) %MON dynstat_eta_mean             =   1.2906692515423E-02
(PID.TID 0000.0001) %MON dynstat_eta_sd               =   6.1691364113597E-02
(PID.TID 0000.0001) %MON dynstat_eta_del2             =   4.9417469305152E-04
(PID.TID 0000.0001) %MON dynstat_uvel_max             =   3.3023997523941E-01
(PID.TID 0000.0001) %MON dynstat_uvel_min             =  -2.3774926158079E-01
(PID.TID 0000.0001) %MON dynstat_uvel_mean            =   6.4694386037897E-05
(PID.TID 0000.0001) %MON dynstat_uvel_sd              =   4.8833810110380E-03
(PID.TID 0000.0001) %MON dynstat_uvel_del2            =   4.4445044509584E-05
(PID.TID 0000.0001) %MON dynstat_vvel_max             =   1.3198906573529E-04
(PID.TID 0000.0001) %MON dynstat_vvel_min             =  -1.9393425212476E+00
(PID.TID 0000.0001) %MON dynstat_vvel_mean            =  -6.8496381642853E-04
(PID.TID 0000.0001) %MON dynstat_vvel_sd              =   1.0376005460543E-02
(PID.TID 0000.0001) %MON dynstat_vvel_del2            =   6.3444040310517E-05
(PID.TID 0000.0001) %MON dynstat_wvel_max             =   2.1474156666859E-02
(PID.TID 0000.0001) %MON dynstat_wvel_min             =  -4.8654876671778E-02
(PID.TID 0000.0001) %MON dynstat_wvel_mean            =  -1.7858692920432E-22
(PID.TID 0000.0001) %MON dynstat_wvel_sd              =   2.4107208005542E-04
(PID.TID 0000.0001) %MON dynstat_wvel_del2            =   2.5644714615130E-06
(PID.TID 0000.0001) %MON dynstat_theta_max            =  -1.9417475728155E-01
(PID.TID 0000.0001) %MON dynstat_theta_min            =  -9.7087381093410E+00
(PID.TID 0000.0001) %MON dynstat_theta_mean           =  -4.1282441460922E+00
(PID.TID 0000.0001) %MON dynstat_theta_sd             =   2.6833703321000E+00
(PID.TID 0000.0001) %MON dynstat_theta_del2           =   4.0179581986596E-04
(PID.TID 0000.0001) %MON dynstat_salt_max             =   2.0000000000000E+00
(PID.TID 0000.0001) %MON dynstat_salt_min             =   1.0000000000000E+00
(PID.TID 0000.0001) %MON dynstat_salt_mean            =   1.0000327374888E+00
(PID.TID 0000.0001) %MON dynstat_salt_sd              =   5.1941259990089E-03
(PID.TID 0000.0001) %MON dynstat_salt_del2            =   5.0033851106424E-05
(PID.TID 0000.0001) %MON advcfl_uvel_max              =   9.9071992571822E-03
(PID.TID 0000.0001) %MON advcfl_vvel_max              =   5.8180275462155E-02
(PID.TID 0000.0001) %MON advcfl_wvel_max              =   2.0272865279907E-01
(PID.TID 0000.0001) %MON advcfl_W_hf_max              =   2.0272865279907E-01
(PID.TID 0000.0001) %MON pe_b_mean                    =   7.2931994953880E-06
(PID.TID 0000.0001) %MON ke_max                       =   1.0745259888043E+00
(PID.TID 0000.0001) %MON ke_mean                      =   6.2363805891357E-05
(PID.TID 0000.0001) %MON ke_vol                       =   2.7059236822589E+15
(PID.TID 0000.0001) %MON vort_r_min                   =  -1.9393425212476E-04
(PID.TID 0000.0001) %MON vort_r_max                   =   1.3224534455871E-04
(PID.TID 0000.0001) %MON vort_a_mean                  =   1.0000000000000E-04
(PID.TID 0000.0001) %MON vort_a_sd                    =   1.0131967162039E-06
(PID.TID 0000.0001) %MON vort_p_mean                  =   1.1277618388223E-04
(PID.TID 0000.0001) %MON vort_p_sd                    =   7.1128024016002E-05
(PID.TID 0000.0001) %MON surfExpan_theta_mean         =   4.0466842534483E-09
(PID.TID 0000.0001) %MON surfExpan_salt_mean          =  -8.7552304426204E-14
(PID.TID 0000.0001) // =======================================================
(PID.TID 0000.0001) // End MONITOR dynamic field statistics
(PID.TID 0000.0001) // =======================================================
 cg2d: Sum(rhs),rhsMax =  -1.97279903012702E+02  6.17201457255580E-02
(PID.TID 0000.0001)                    cg2d_init_res =    2.69602536332651E+00
(PID.TID 0000.0001)                       cg2d_iters =    90
(PID.TID 0000.0001)                         cg2d_res =    9.11021180054400E-12
(PID.TID 0000.0001) // =======================================================
(PID.TID 0000.0001) // Begin MONITOR dynamic field statistics
(PID.TID 0000.0001) // =======================================================
(PID.TID 0000.0001) %MON time_tsnumber                =                     6
(PID.TID 0000.0001) %MON time_secondsf                =   1.8000000000000E+03
(PID.TID 0000.0001) %MON dynstat_eta_max              =   6.3521133908277E-01
(PID.TID 0000.0001) %MON dynstat_eta_min              =   0.0000000000000E+00
(PID.TID 0000.0001) %MON dynstat_eta_mean             =   1.5488031018529E-02
(PID.TID 0000.0001) %MON dynstat_eta_sd               =   5.5986405740115E-02
(PID.TID 0000.0001) %MON dynstat_eta_del2             =   3.5694082403301E-04
(PID.TID 0000.0001) %MON dynstat_uvel_max             =   3.1939925678933E-01
(PID.TID 0000.0001) %MON dynstat_uvel_min             =  -2.4275564505030E-01
(PID.TID 0000.0001) %MON dynstat_uvel_mean            =   2.9065449045999E-05
(PID.TID 0000.0001) %MON dynstat_uvel_sd              =   4.9372469654435E-03
(PID.TID 0000.0001) %MON dynstat_uvel_del2            =   4.1844166710705E-05
(PID.TID 0000.0001) %MON dynstat_vvel_max             =   2.1003901657578E-04
(PID.TID 0000.0001) %MON dynstat_vvel_min             =  -1.9393425212476E+00
(PID.TID 0000.0001) %MON dynstat_vvel_mean            =  -8.9801340159615E-04
(PID.TID 0000.0001) %MON dynstat_vvel_sd              =   1.0654576623491E-02
(PID.TID 0000.0001) %MON dynstat_vvel_del2            =   6.4012857868280E-05
(PID.TID 0000.0001) %MON dynstat_wvel_max             =   2.1371533043516E-02
(PID.TID 0000.0001) %MON dynstat_wvel_min             =  -4.8654876671778E-02
(PID.TID 0000.0001) %MON dynstat_wvel_mean            =   1.7858692920432E-22
(PID.TID 0000.0001) %MON dynstat_wvel_sd              =   2.4163200633369E-04
(PID.TID 0000.0001) %MON dynstat_wvel_del2            =   2.6112439092488E-06
(PID.TID 0000.0001) %MON dynstat_theta_max            =  -1.9417475728155E-01
(PID.TID 0000.0001) %MON dynstat_theta_min            =  -9.7087381093410E+00
(PID.TID 0000.0001) %MON dynstat_theta_mean           =  -4.1282523808302E+00
(PID.TID 0000.0001) %MON dynstat_theta_sd             =   2.6833657798642E+00
(PID.TID 0000.0001) %MON dynstat_theta_del2           =   3.9415651819576E-04
(PID.TID 0000.0001) %MON dynstat_salt_max             =   2.0000000000000E+00
(PID.TID 0000.0001) %MON dynstat_salt_min             =   1.0000000000000E+00
(PID.TID 0000.0001) %MON dynstat_salt_mean            =   1.0000336049460E+00
(PID.TID 0000.0001) %MON dynstat_salt_sd              =   5.2245654460739E-03
(PID.TID 0000.0001) %MON dynstat_salt_del2            =   4.9044296227633E-05
(PID.TID 0000.0001) %MON advcfl_uvel_max              =   9.5819777036800E-03
(PID.TID 0000.0001) %MON advcfl_vvel_max              =   5.8180275462155E-02
(PID.TID 0000.0001) %MON advcfl_wvel_max              =   2.0272865279907E-01
(PID.TID 0000.0001) %MON advcfl_W_hf_max              =   2.0272865279907E-01
(PID.TID 0000.0001) %MON pe_b_mean                    =   6.1952000609743E-06
(PID.TID 0000.0001) %MON ke_max                       =   1.0854694657667E+00
(PID.TID 0000.0001) %MON ke_mean                      =   6.5518833635951E-05
(PID.TID 0000.0001) %MON ke_vol                       =   2.7059236822589E+15
(PID.TID 0000.0001) %MON vort_r_min                   =  -1.9393425212476E-04
(PID.TID 0000.0001) %MON vort_r_max                   =   1.3099258713483E-04
(PID.TID 0000.0001) %MON vort_a_mean                  =   1.0000000000000E-04
(PID.TID 0000.0001) %MON vort_a_sd                    =   1.0088328138962E-06
(PID.TID 0000.0001) %MON vort_p_mean                  =   1.1277618388223E-04
(PID.TID 0000.0001) %MON vort_p_sd                    =   7.1128032865104E-05
(PID.TID 0000.0001) %MON surfExpan_theta_mean         =   3.7489281024400E-09
(PID.TID 0000.0001) %MON surfExpan_salt_mean          =  -1.2720960687780E-13
(PID.TID 0000.0001) // =======================================================
(PID.TID 0000.0001) // End MONITOR dynamic field statistics
(PID.TID 0000.0001) // =======================================================
 cg2d: Sum(rhs),rhsMax =  -2.42407345376814E+02  5.86017793081944E-02
(PID.TID 0000.0001)                    cg2d_init_res =    2.71871125249684E+00
(PID.TID 0000.0001)                       cg2d_iters =    90
(PID.TID 0000.0001)                         cg2d_res =    8.97374425528598E-12
(PID.TID 0000.0001) // =======================================================
(PID.TID 0000.0001) // Begin MONITOR dynamic field statistics
(PID.TID 0000.0001) // =======================================================
(PID.TID 0000.0001) %MON time_tsnumber                =                     7
(PID.TID 0000.0001) %MON time_secondsf                =   2.1000000000000E+03
(PID.TID 0000.0001) %MON dynstat_eta_max              =   3.9098703543088E-01
(PID.TID 0000.0001) %MON dynstat_eta_min              =   0.0000000000000E+00
(PID.TID 0000.0001) %MON dynstat_eta_mean             =   1.8069369521634E-02
(PID.TID 0000.0001) %MON dynstat_eta_sd               =   4.9824581964171E-02
(PID.TID 0000.0001) %MON dynstat_eta_del2             =   2.2800755431607E-04
(PID.TID 0000.0001) %MON dynstat_uvel_max             =   3.1374599907554E-01
(PID.TID 0000.0001) %MON dynstat_uvel_min             =  -2.4219357279253E-01
(PID.TID 0000.0001) %MON dynstat_uvel_mean            =  -2.0215847879233E-05
(PID.TID 0000.0001) %MON dynstat_uvel_sd              =   5.0204879965763E-03
(PID.TID 0000.0001) %MON dynstat_uvel_del2            =   4.0286451642261E-05
(PID.TID 0000.0001) %MON dynstat_vvel_max             =   3.8137298320530E-04
(PID.TID 0000.0001) %MON dynstat_vvel_min             =  -1.9393425212476E+00
(PID.TID 0000.0001) %MON dynstat_vvel_mean            =  -1.1240087461717E-03
(PID.TID 0000.0001) %MON dynstat_vvel_sd              =   1.0805189760380E-02
(PID.TID 0000.0001) %MON dynstat_vvel_del2            =   6.4189790394634E-05
(PID.TID 0000.0001) %MON dynstat_wvel_max             =   2.1095817197384E-02
(PID.TID 0000.0001) %MON dynstat_wvel_min             =  -4.8654876671778E-02
(PID.TID 0000.0001) %MON dynstat_wvel_mean            =  -3.0359777964735E-21
(PID.TID 0000.0001) %MON dynstat_wvel_sd              =   2.4196720735036E-04
(PID.TID 0000.0001) %MON dynstat_wvel_del2            =   2.6658696817944E-06
(PID.TID 0000.0001) %MON dynstat_theta_max            =  -1.9417475728155E-01
(PID.TID 0000.0001) %MON dynstat_theta_min            =  -9.7087381093410E+00
(PID.TID 0000.0001) %MON dynstat_theta_mean           =  -4.1282606155293E+00
(PID.TID 0000.0001) %MON dynstat_theta_sd             =   2.6833618259021E+00
(PID.TID 0000.0001) %MON dynstat_theta_del2           =   3.8676995468643E-04
(PID.TID 0000.0001) %MON dynstat_salt_max             =   2.0000000000000E+00
(PID.TID 0000.0001) %MON dynstat_salt_min             =   1.0000000000000E+00
(PID.TID 0000.0001) %MON dynstat_salt_mean            =   1.0000344724032E+00
(PID.TID 0000.0001) %MON dynstat_salt_sd              =   5.2593635277359E-03
(PID.TID 0000.0001) %MON dynstat_salt_del2            =   4.8080151686229E-05
(PID.TID 0000.0001) %MON advcfl_uvel_max              =   9.4123799722663E-03
(PID.TID 0000.0001) %MON advcfl_vvel_max              =   5.8180275462155E-02
(PID.TID 0000.0001) %MON advcfl_wvel_max              =   2.0272865279907E-01
(PID.TID 0000.0001) %MON advcfl_W_hf_max              =   2.0272865279907E-01
(PID.TID 0000.0001) %MON pe_b_mean                    =   5.1572086495100E-06
(PID.TID 0000.0001) %MON ke_max                       =   1.0984574737346E+00
(PID.TID 0000.0001) %MON ke_mean                      =   6.7653815755083E-05
(PID.TID 0000.0001) %MON ke_vol                       =   2.7059236822589E+15
(PID.TID 0000.0001) %MON vort_r_min                   =  -1.9393425212476E-04
(PID.TID 0000.0001) %MON vort_r_max                   =   1.3004236289769E-04
(PID.TID 0000.0001) %MON vort_a_mean                  =   1.0000000000000E-04
(PID.TID 0000.0001) %MON vort_a_sd                    =   1.0045219104303E-06
(PID.TID 0000.0001) %MON vort_p_mean                  =   1.1277618388223E-04
(PID.TID 0000.0001) %MON vort_p_sd                    =   7.1126778745868E-05
(PID.TID 0000.0001) %MON surfExpan_theta_mean         =   3.3753401962324E-09
(PID.TID 0000.0001) %MON surfExpan_salt_mean          =  -1.6074801012937E-13
(PID.TID 0000.0001) // =======================================================
(PID.TID 0000.0001) // End MONITOR dynamic field statistics
(PID.TID 0000.0001) // =======================================================
 cg2d: Sum(rhs),rhsMax =  -2.76479582570502E+02  5.87199206512529E-02
(PID.TID 0000.0001)                    cg2d_init_res =    2.64467444568795E+00
(PID.TID 0000.0001)                       cg2d_iters =    90
(PID.TID 0000.0001)                         cg2d_res =    8.86740976879320E-12
(PID.TID 0000.0001) // =======================================================
(PID.TID 0000.0001) // Begin MONITOR dynamic field statistics
(PID.TID 0000.0001) // =======================================================
(PID.TID 0000.0001) %MON time_tsnumber                =                     8
(PID.TID 0000.0001) %MON time_secondsf                =   2.4000000000000E+03
(PID.TID 0000.0001) %MON dynstat_eta_max              =   2.6522920376917E-01
(PID.TID 0000.0001) %MON dynstat_eta_min              =   0.0000000000000E+00
(PID.TID 0000.0001) %MON dynstat_eta_mean             =   2.0650708024719E-02
(PID.TID 0000.0001) %MON dynstat_eta_sd               =   4.5008274429908E-02
(PID.TID 0000.0001) %MON dynstat_eta_del2             =   1.1741337564242E-04
(PID.TID 0000.0001) %MON dynstat_uvel_max             =   3.1380159772219E-01
(PID.TID 0000.0001) %MON dynstat_uvel_min             =  -2.3969321679077E-01
(PID.TID 0000.0001) %MON dynstat_uvel_mean            =  -8.8339326853148E-05
(PID.TID 0000.0001) %MON dynstat_uvel_sd              =   5.1104517636330E-03
(PID.TID 0000.0001) %MON dynstat_uvel_del2            =   4.0004953764811E-05
(PID.TID 0000.0001) %MON dynstat_vvel_max             =   6.1025944853042E-04
(PID.TID 0000.0001) %MON dynstat_vvel_min             =  -1.9393425212476E+00
(PID.TID 0000.0001) %MON dynstat_vvel_mean            =  -1.3480558867922E-03
(PID.TID 0000.0001) %MON dynstat_vvel_sd              =   1.0843870041283E-02
(PID.TID 0000.0001) %MON dynstat_vvel_del2            =   6.4308461147770E-05
(PID.TID 0000.0001) %MON dynstat_wvel_max             =   2.0682103885127E-02
(PID.TID 0000.0001) %MON dynstat_wvel_min             =  -4.8654876671778E-02
(PID.TID 0000.0001) %MON dynstat_wvel_mean            =   1.0715215752259E-20
(PID.TID 0000.0001) %MON dynstat_wvel_sd              =   2.4196335676331E-04
(PID.TID 0000.0001) %MON dynstat_wvel_del2            =   2.7048814054028E-06
(PID.TID 0000.0001) %MON dynstat_theta_max            =  -1.9417475728155E-01
(PID.TID 0000.0001) %MON dynstat_theta_min            =  -9.7087381093410E+00
(PID.TID 0000.0001) %MON dynstat_theta_mean           =  -4.1282688501969E+00
(PID.TID 0000.0001) %MON dynstat_theta_sd             =   2.6833583841772E+00
(PID.TID 0000.0001) %MON dynstat_theta_del2           =   3.8071596053097E-04
(PID.TID 0000.0001) %MON dynstat_salt_max             =   2.0000000000000E+00
(PID.TID 0000.0001) %MON dynstat_salt_min             =   1.0000000000000E+00
(PID.TID 0000.0001) %MON dynstat_salt_mean            =   1.0000353398604E+00
(PID.TID 0000.0001) %MON dynstat_salt_sd              =   5.2979257678335E-03
(PID.TID 0000.0001) %MON dynstat_salt_del2            =   4.7144831135478E-05
(PID.TID 0000.0001) %MON advcfl_uvel_max              =   9.4140479316656E-03
(PID.TID 0000.0001) %MON advcfl_vvel_max              =   5.8180275462155E-02
(PID.TID 0000.0001) %MON advcfl_wvel_max              =   2.0272865279907E-01
(PID.TID 0000.0001) %MON advcfl_W_hf_max              =   2.0272865279907E-01
(PID.TID 0000.0001) %MON pe_b_mean                    =   4.5021463842663E-06
(PID.TID 0000.0001) %MON ke_max                       =   1.1133112448924E+00
(PID.TID 0000.0001) %MON ke_mean                      =   6.8760606915835E-05
(PID.TID 0000.0001) %MON ke_vol                       =   2.7059236822589E+15
(PID.TID 0000.0001) %MON vort_r_min                   =  -1.9393425212476E-04
(PID.TID 0000.0001) %MON vort_r_max                   =   1.2933619840552E-04
(PID.TID 0000.0001) %MON vort_a_mean                  =   1.0000000000000E-04
(PID.TID 0000.0001) %MON vort_a_sd                    =   1.0008873289864E-06
(PID.TID 0000.0001) %MON vort_p_mean                  =   1.1277618388223E-04
(PID.TID 0000.0001) %MON vort_p_sd                    =   7.1123926624426E-05
(PID.TID 0000.0001) %MON surfExpan_theta_mean         =   3.0714611312136E-09
(PID.TID 0000.0001) %MON surfExpan_salt_mean          =  -2.1055208049881E-13
(PID.TID 0000.0001) // =======================================================
(PID.TID 0000.0001) // End MONITOR dynamic field statistics
(PID.TID 0000.0001) // =======================================================
 cg2d: Sum(rhs),rhsMax =  -3.15817752669223E+02  5.78315069040395E-02
(PID.TID 0000.0001)                    cg2d_init_res =    2.48554090252733E+00
(PID.TID 0000.0001)                       cg2d_iters =    90
(PID.TID 0000.0001)                         cg2d_res =    9.54800800701388E-12
(PID.TID 0000.0001) // =======================================================
(PID.TID 0000.0001) // Begin MONITOR dynamic field statistics
(PID.TID 0000.0001) // =======================================================
(PID.TID 0000.0001) %MON time_tsnumber                =                     9
(PID.TID 0000.0001) %MON time_secondsf                =   2.7000000000000E+03
(PID.TID 0000.0001) %MON dynstat_eta_max              =   2.2688137738400E-01
(PID.TID 0000.0001) %MON dynstat_eta_min              =  -6.4043864143003E-02
(PID.TID 0000.0001) %MON dynstat_eta_mean             =   2.3232046527679E-02
(PID.TID 0000.0001) %MON dynstat_eta_sd               =   4.2470564950262E-02
(PID.TID 0000.0001) %MON dynstat_eta_del2             =   9.6476249867942E-05
(PID.TID 0000.0001) %MON dynstat_uvel_max             =   3.1509781567377E-01
(PID.TID 0000.0001) %MON dynstat_uvel_min             =  -2.3603099613040E-01
(PID.TID 0000.0001) %MON dynstat_uvel_mean            =  -1.8307774844872E-04
(PID.TID 0000.0001) %MON dynstat_uvel_sd              =   5.1709229933191E-03
(PID.TID 0000.0001) %MON dynstat_uvel_del2            =   4.0638551993633E-05
(PID.TID 0000.0001) %MON dynstat_vvel_max             =   8.0690730907872E-04
(PID.TID 0000.0001) %MON dynstat_vvel_min             =  -1.9393425212476E+00
(PID.TID 0000.0001) %MON dynstat_vvel_mean            =  -1.5517274606609E-03
(PID.TID 0000.0001) %MON dynstat_vvel_sd              =   1.0794453904996E-02
(PID.TID 0000.0001) %MON dynstat_vvel_del2            =   6.4650312346082E-05
(PID.TID 0000.0001) %MON dynstat_wvel_max             =   2.0167488234724E-02
(PID.TID 0000.0001) %MON dynstat_wvel_min             =  -4.8654876671778E-02
(PID.TID 0000.0001) %MON dynstat_wvel_mean            =   6.5407462821083E-21
(PID.TID 0000.0001) %MON dynstat_wvel_sd              =   2.4166157321367E-04
(PID.TID 0000.0001) %MON dynstat_wvel_del2            =   2.7254480196450E-06
(PID.TID 0000.0001) %MON dynstat_theta_max            =  -1.9417475728155E-01
(PID.TID 0000.0001) %MON dynstat_theta_min            =  -9.7087381093410E+00
(PID.TID 0000.0001) %MON dynstat_theta_mean           =  -4.1282770848346E+00
(PID.TID 0000.0001) %MON dynstat_theta_sd             =   2.6833553458489E+00
(PID.TID 0000.0001) %MON dynstat_theta_del2           =   3.7719943914686E-04
(PID.TID 0000.0001) %MON dynstat_salt_max             =   2.0000000000000E+00
(PID.TID 0000.0001) %MON dynstat_salt_min             =   1.0000000000000E+00
(PID.TID 0000.0001) %MON dynstat_salt_mean            =   1.0000362073176E+00
(PID.TID 0000.0001) %MON dynstat_salt_sd              =   5.3393833128769E-03
(PID.TID 0000.0001) %MON dynstat_salt_del2            =   4.6483921312502E-05
(PID.TID 0000.0001) %MON advcfl_uvel_max              =   9.4529344702132E-03
(PID.TID 0000.0001) %MON advcfl_vvel_max              =   5.8180275462155E-02
(PID.TID 0000.0001) %MON advcfl_wvel_max              =   2.0272865279907E-01
(PID.TID 0000.0001) %MON advcfl_W_hf_max              =   2.0272865279907E-01
(PID.TID 0000.0001) %MON pe_b_mean                    =   4.3025409634118E-06
(PID.TID 0000.0001) %MON ke_max                       =   1.1298938916065E+00
(PID.TID 0000.0001) %MON ke_mean                      =   6.8859113601228E-05
(PID.TID 0000.0001) %MON ke_vol                       =   2.7059236822589E+15
(PID.TID 0000.0001) %MON vort_r_min                   =  -1.9393425212476E-04
(PID.TID 0000.0001) %MON vort_r_max                   =   1.2879355431349E-04
(PID.TID 0000.0001) %MON vort_a_mean                  =   1.0000000000000E-04
(PID.TID 0000.0001) %MON vort_a_sd                    =   9.9800404587082E-07
(PID.TID 0000.0001) %MON vort_p_mean                  =   1.1277618388223E-04
(PID.TID 0000.0001) %MON vort_p_sd                    =   7.1119620150080E-05
(PID.TID 0000.0001) %MON surfExpan_theta_mean         =   2.7843643929331E-09
(PID.TID 0000.0001) %MON surfExpan_salt_mean          =  -3.0402713712520E-13
(PID.TID 0000.0001) // =======================================================
(PID.TID 0000.0001) // End MONITOR dynamic field statistics
(PID.TID 0000.0001) // =======================================================
 cg2d: Sum(rhs),rhsMax =  -3.68006728903363E+02  5.51445730287428E-02
(PID.TID 0000.0001)                    cg2d_init_res =    2.42963116092994E+00
(PID.TID 0000.0001)                       cg2d_iters =    90
(PID.TID 0000.0001)                         cg2d_res =    9.78963569826285E-12
(PID.TID 0000.0001) // =======================================================
(PID.TID 0000.0001) // Begin MONITOR dynamic field statistics
(PID.TID 0000.0001) // =======================================================
(PID.TID 0000.0001) %MON time_tsnumber                =                    10
(PID.TID 0000.0001) %MON time_secondsf                =   3.0000000000000E+03
(PID.TID 0000.0001) %MON dynstat_eta_max              =   1.9930578145860E-01
(PID.TID 0000.0001) %MON dynstat_eta_min              =  -1.8108002465838E-01
(PID.TID 0000.0001) %MON dynstat_eta_mean             =   2.5813385029998E-02
(PID.TID 0000.0001) %MON dynstat_eta_sd               =   4.2061221583225E-02
(PID.TID 0000.0001) %MON dynstat_eta_del2             =   1.5260180051917E-04
(PID.TID 0000.0001) %MON dynstat_uvel_max             =   3.1647843882420E-01
(PID.TID 0000.0001) %MON dynstat_uvel_min             =  -2.3123392961749E-01
(PID.TID 0000.0001) %MON dynstat_uvel_mean            =  -3.1143448683067E-04
(PID.TID 0000.0001) %MON dynstat_uvel_sd              =   5.1782276392895E-03
(PID.TID 0000.0001) %MON dynstat_uvel_del2            =   4.1883566638152E-05
(PID.TID 0000.0001) %MON dynstat_vvel_max             =   8.6441680541295E-04
(PID.TID 0000.0001) %MON dynstat_vvel_min             =  -1.9393425212476E+00
(PID.TID 0000.0001) %MON dynstat_vvel_mean            =  -1.7151056701649E-03
(PID.TID 0000.0001) %MON dynstat_vvel_sd              =   1.0683572540770E-02
(PID.TID 0000.0001) %MON dynstat_vvel_del2            =   6.5241887952479E-05
(PID.TID 0000.0001) %MON dynstat_wvel_max             =   1.9593094069450E-02
(PID.TID 0000.0001) %MON dynstat_wvel_min             =  -4.8654876671778E-02
(PID.TID 0000.0001) %MON dynstat_wvel_mean            =  -3.0694628456993E-21
(PID.TID 0000.0001) %MON dynstat_wvel_sd              =   2.4117573409835E-04
(PID.TID 0000.0001) %MON dynstat_wvel_del2            =   2.7283915227595E-06
(PID.TID 0000.0001) %MON dynstat_theta_max            =  -1.9417475728156E-01
(PID.TID 0000.0001) %MON dynstat_theta_min            =  -9.7087381093410E+00
(PID.TID 0000.0001) %MON dynstat_theta_mean           =  -4.1282853194286E+00
(PID.TID 0000.0001) %MON dynstat_theta_sd             =   2.6833526564152E+00
(PID.TID 0000.0001) %MON dynstat_theta_del2           =   3.7771902078307E-04
(PID.TID 0000.0001) %MON dynstat_salt_max             =   2.0000000000000E+00
(PID.TID 0000.0001) %MON dynstat_salt_min             =   1.0000000000000E+00
(PID.TID 0000.0001) %MON dynstat_salt_mean            =   1.0000370747749E+00
(PID.TID 0000.0001) %MON dynstat_salt_sd              =   5.3831998349008E-03
(PID.TID 0000.0001) %MON dynstat_salt_del2            =   4.6396142258762E-05
(PID.TID 0000.0001) %MON advcfl_uvel_max              =   9.4943531647260E-03
(PID.TID 0000.0001) %MON advcfl_vvel_max              =   5.8180275462155E-02
(PID.TID 0000.0001) %MON advcfl_wvel_max              =   2.0272865279907E-01
(PID.TID 0000.0001) %MON advcfl_W_hf_max              =   2.0272865279907E-01
(PID.TID 0000.0001) %MON pe_b_mean                    =   4.4714503362063E-06
(PID.TID 0000.0001) %MON ke_max                       =   1.1480286262818E+00
(PID.TID 0000.0001) %MON ke_mean                      =   6.8065340030179E-05
(PID.TID 0000.0001) %MON ke_vol                       =   2.7059236822589E+15
(PID.TID 0000.0001) %MON vort_r_min                   =  -1.9393425212476E-04
(PID.TID 0000.0001) %MON vort_r_max                   =   1.2832447606907E-04
(PID.TID 0000.0001) %MON vort_a_mean                  =   1.0000000000000E-04
(PID.TID 0000.0001) %MON vort_a_sd                    =   9.9571333218125E-07
(PID.TID 0000.0001) %MON vort_p_mean                  =   1.1277618388223E-04
(PID.TID 0000.0001) %MON vort_p_sd                    =   7.1114265025855E-05
(PID.TID 0000.0001) %MON surfExpan_theta_mean         =   2.3805270432708E-09
(PID.TID 0000.0001) %MON surfExpan_salt_mean          =  -4.3131427609180E-13
(PID.TID 0000.0001) // =======================================================
(PID.TID 0000.0001) // End MONITOR dynamic field statistics
(PID.TID 0000.0001) // =======================================================
 Computing Diagnostic #  95  VISCA4D      Counter:      10   Parms: SM      MR      
 cg2d: Sum(rhs),rhsMax =  -4.32952962656920E+02  5.15597149191171E-02
(PID.TID 0000.0001)                    cg2d_init_res =    2.52510787344773E+00
(PID.TID 0000.0001)                       cg2d_iters =    91
(PID.TID 0000.0001)                         cg2d_res =    7.84336111741139E-12
(PID.TID 0000.0001) // =======================================================
(PID.TID 0000.0001) // Begin MONITOR dynamic field statistics
(PID.TID 0000.0001) // =======================================================
(PID.TID 0000.0001) %MON time_tsnumber                =                    11
(PID.TID 0000.0001) %MON time_secondsf                =   3.3000000000000E+03
(PID.TID 0000.0001) %MON dynstat_eta_max              =   1.7858342255428E-01
(PID.TID 0000.0001) %MON dynstat_eta_min              =  -2.2598893783424E-01
(PID.TID 0000.0001) %MON dynstat_eta_mean             =   2.8394723529425E-02
(PID.TID 0000.0001) %MON dynstat_eta_sd               =   4.3149775056598E-02
(PID.TID 0000.0001) %MON dynstat_eta_del2             =   1.8320218979584E-04
(PID.TID 0000.0001) %MON dynstat_uvel_max             =   3.1723895799627E-01
(PID.TID 0000.0001) %MON dynstat_uvel_min             =  -2.2564432245019E-01
(PID.TID 0000.0001) %MON dynstat_uvel_mean            =  -4.7663833499508E-04
(PID.TID 0000.0001) %MON dynstat_uvel_sd              =   5.1250145211733E-03
(PID.TID 0000.0001) %MON dynstat_uvel_del2            =   4.3244987907362E-05
(PID.TID 0000.0001) %MON dynstat_vvel_max             =   7.3643842035690E-04
(PID.TID 0000.0001) %MON dynstat_vvel_min             =  -1.9393425212476E+00
(PID.TID 0000.0001) %MON dynstat_vvel_mean            =  -1.8199022915300E-03
(PID.TID 0000.0001) %MON dynstat_vvel_sd              =   1.0536415623521E-02
(PID.TID 0000.0001) %MON dynstat_vvel_del2            =   6.5880658471295E-05
(PID.TID 0000.0001) %MON dynstat_wvel_max             =   1.8989819900417E-02
(PID.TID 0000.0001) %MON dynstat_wvel_min             =  -4.8654876671778E-02
(PID.TID 0000.0001) %MON dynstat_wvel_mean            =   2.7234506703659E-21
(PID.TID 0000.0001) %MON dynstat_wvel_sd              =   2.4057675641852E-04
(PID.TID 0000.0001) %MON dynstat_wvel_del2            =   2.7243718654076E-06
(PID.TID 0000.0001) %MON dynstat_theta_max            =  -1.9417475728157E-01
(PID.TID 0000.0001) %MON dynstat_theta_min            =  -9.7087381093410E+00
(PID.TID 0000.0001) %MON dynstat_theta_mean           =  -4.1282935539544E+00
(PID.TID 0000.0001) %MON dynstat_theta_sd             =   2.6833502498857E+00
(PID.TID 0000.0001) %MON dynstat_theta_del2           =   3.7862282399832E-04
(PID.TID 0000.0001) %MON dynstat_salt_max             =   2.0000000000000E+00
(PID.TID 0000.0001) %MON dynstat_salt_min             =   1.0000000000000E+00
(PID.TID 0000.0001) %MON dynstat_salt_mean            =   1.0000379422321E+00
(PID.TID 0000.0001) %MON dynstat_salt_sd              =   5.4288961171629E-03
(PID.TID 0000.0001) %MON dynstat_salt_del2            =   4.6411731561068E-05
(PID.TID 0000.0001) %MON advcfl_uvel_max              =   9.5171687398882E-03
(PID.TID 0000.0001) %MON advcfl_vvel_max              =   5.8180275462155E-02
(PID.TID 0000.0001) %MON advcfl_wvel_max              =   2.0272865279907E-01
(PID.TID 0000.0001) %MON advcfl_W_hf_max              =   2.0272865279907E-01
(PID.TID 0000.0001) %MON pe_b_mean                    =   4.8986540076826E-06
(PID.TID 0000.0001) %MON ke_max                       =   1.1676035321143E+00
(PID.TID 0000.0001) %MON ke_mean                      =   6.6572037018092E-05
(PID.TID 0000.0001) %MON ke_vol                       =   2.7059236822589E+15
(PID.TID 0000.0001) %MON vort_r_min                   =  -1.9393425212476E-04
(PID.TID 0000.0001) %MON vort_r_max                   =   1.2785512442697E-04
(PID.TID 0000.0001) %MON vort_a_mean                  =   1.0000000000000E-04
(PID.TID 0000.0001) %MON vort_a_sd                    =   9.9382164348111E-07
(PID.TID 0000.0001) %MON vort_p_mean                  =   1.1277618388223E-04
(PID.TID 0000.0001) %MON vort_p_sd                    =   7.1108342810148E-05
(PID.TID 0000.0001) %MON surfExpan_theta_mean         =   1.7631567695350E-09
(PID.TID 0000.0001) %MON surfExpan_salt_mean          =  -5.3743773049260E-13
(PID.TID 0000.0001) // =======================================================
(PID.TID 0000.0001) // End MONITOR dynamic field statistics
(PID.TID 0000.0001) // =======================================================
 cg2d: Sum(rhs),rhsMax =  -5.00936277398878E+02  4.86135458909934E-02
(PID.TID 0000.0001)                    cg2d_init_res =    2.61679444426564E+00
(PID.TID 0000.0001)                       cg2d_iters =    90
(PID.TID 0000.0001)                         cg2d_res =    9.61511345456901E-12
(PID.TID 0000.0001) // =======================================================
(PID.TID 0000.0001) // Begin MONITOR dynamic field statistics
(PID.TID 0000.0001) // =======================================================
(PID.TID 0000.0001) %MON time_tsnumber                =                    12
(PID.TID 0000.0001) %MON time_secondsf                =   3.6000000000000E+03
(PID.TID 0000.0001) %MON dynstat_eta_max              =   1.6257245820759E-01
(PID.TID 0000.0001) %MON dynstat_eta_min              =  -2.2321223720806E-01
(PID.TID 0000.0001) %MON dynstat_eta_mean             =   3.0976062017298E-02
(PID.TID 0000.0001) %MON dynstat_eta_sd               =   4.5005288813995E-02
(PID.TID 0000.0001) %MON dynstat_eta_del2             =   1.9200947918619E-04
(PID.TID 0000.0001) %MON dynstat_uvel_max             =   3.1702354526990E-01
(PID.TID 0000.0001) %MON dynstat_uvel_min             =  -2.2008048180758E-01
(PID.TID 0000.0001) %MON dynstat_uvel_mean            =  -6.7653326230149E-04
(PID.TID 0000.0001) %MON dynstat_uvel_sd              =   5.0227545470966E-03
(PID.TID 0000.0001) %MON dynstat_uvel_del2            =   4.4263159167203E-05
(PID.TID 0000.0001) %MON dynstat_vvel_max             =   7.3271951757706E-04
(PID.TID 0000.0001) %MON dynstat_vvel_min             =  -1.9393425212476E+00
(PID.TID 0000.0001) %MON dynstat_vvel_mean            =  -1.8529443586270E-03
(PID.TID 0000.0001) %MON dynstat_vvel_sd              =   1.0375474423803E-02
(PID.TID 0000.0001) %MON dynstat_vvel_del2            =   6.6486945341101E-05
(PID.TID 0000.0001) %MON dynstat_wvel_max             =   1.8371523939587E-02
(PID.TID 0000.0001) %MON dynstat_wvel_min             =  -4.8654876671778E-02
(PID.TID 0000.0001) %MON dynstat_wvel_mean            =  -9.9115745708398E-21
(PID.TID 0000.0001) %MON dynstat_wvel_sd              =   2.3988737946444E-04
(PID.TID 0000.0001) %MON dynstat_wvel_del2            =   2.7226713975470E-06
(PID.TID 0000.0001) %MON dynstat_theta_max            =  -1.9417475728166E-01
(PID.TID 0000.0001) %MON dynstat_theta_min            =  -9.7087381093410E+00
(PID.TID 0000.0001) %MON dynstat_theta_mean           =  -4.1283017883882E+00
(PID.TID 0000.0001) %MON dynstat_theta_sd             =   2.6833481029124E+00
(PID.TID 0000.0001) %MON dynstat_theta_del2           =   3.7939615149518E-04
(PID.TID 0000.0001) %MON dynstat_salt_max             =   2.0000000000000E+00
(PID.TID 0000.0001) %MON dynstat_salt_min             =   1.0000000000000E+00
(PID.TID 0000.0001) %MON dynstat_salt_mean            =   1.0000388096893E+00
(PID.TID 0000.0001) %MON dynstat_salt_sd              =   5.4759906095104E-03
(PID.TID 0000.0001) %MON dynstat_salt_del2            =   4.6411296686170E-05
(PID.TID 0000.0001) %MON advcfl_uvel_max              =   9.5107063580969E-03
(PID.TID 0000.0001) %MON advcfl_vvel_max              =   5.8180275462155E-02
(PID.TID 0000.0001) %MON advcfl_wvel_max              =   2.0272865279907E-01
(PID.TID 0000.0001) %MON advcfl_W_hf_max              =   2.0272865279907E-01
(PID.TID 0000.0001) %MON pe_b_mean                    =   5.4803409384331E-06
(PID.TID 0000.0001) %MON ke_max                       =   1.1886111361160E+00
(PID.TID 0000.0001) %MON ke_mean                      =   6.4655390146662E-05
(PID.TID 0000.0001) %MON ke_vol                       =   2.7059236822589E+15
(PID.TID 0000.0001) %MON vort_r_min                   =  -1.9393425212476E-04
(PID.TID 0000.0001) %MON vort_r_max                   =   1.2734574465411E-04
(PID.TID 0000.0001) %MON vort_a_mean                  =   1.0000000000000E-04
(PID.TID 0000.0001) %MON vort_a_sd                    =   9.9239977707387E-07
(PID.TID 0000.0001) %MON vort_p_mean                  =   1.1277618388223E-04
(PID.TID 0000.0001) %MON vort_p_sd                    =   7.1102321285966E-05
(PID.TID 0000.0001) %MON surfExpan_theta_mean         =   9.4258502401944E-10
(PID.TID 0000.0001) %MON surfExpan_salt_mean          =  -5.1726269198845E-13
(PID.TID 0000.0001) // =======================================================
(PID.TID 0000.0001) // End MONITOR dynamic field statistics
(PID.TID 0000.0001) // =======================================================
 cg2d: Sum(rhs),rhsMax =  -5.43767525951064E+02  4.85164060006984E-02
(PID.TID 0000.0001)                    cg2d_init_res =    2.47433618503107E+00
(PID.TID 0000.0001)                       cg2d_iters =    90
(PID.TID 0000.0001)                         cg2d_res =    8.14834987034650E-12
(PID.TID 0000.0001) // =======================================================
(PID.TID 0000.0001) // Begin MONITOR dynamic field statistics
(PID.TID 0000.0001) // =======================================================
(PID.TID 0000.0001) %MON time_tsnumber                =                    13
(PID.TID 0000.0001) %MON time_secondsf                =   3.9000000000000E+03
(PID.TID 0000.0001) %MON dynstat_eta_max              =   1.7390014821821E-01
(PID.TID 0000.0001) %MON dynstat_eta_min              =  -1.9645162268141E-01
(PID.TID 0000.0001) %MON dynstat_eta_mean             =   3.3557400463740E-02
(PID.TID 0000.0001) %MON dynstat_eta_sd               =   4.6912101193761E-02
(PID.TID 0000.0001) %MON dynstat_eta_del2             =   1.8316187103978E-04
(PID.TID 0000.0001) %MON dynstat_uvel_max             =   3.1582654263794E-01
(PID.TID 0000.0001) %MON dynstat_uvel_min             =  -2.1553071023710E-01
(PID.TID 0000.0001) %MON dynstat_uvel_mean            =  -9.0371958022752E-04
(PID.TID 0000.0001) %MON dynstat_uvel_sd              =   4.8985524942442E-03
(PID.TID 0000.0001) %MON dynstat_uvel_del2            =   4.4880868388348E-05
(PID.TID 0000.0001) %MON dynstat_vvel_max             =   8.1033691700858E-04
(PID.TID 0000.0001) %MON dynstat_vvel_min             =  -1.9393425212476E+00
(PID.TID 0000.0001) %MON dynstat_vvel_mean            =  -1.8090287535855E-03
(PID.TID 0000.0001) %MON dynstat_vvel_sd              =   1.0220380638249E-02
(PID.TID 0000.0001) %MON dynstat_vvel_del2            =   6.6853111299336E-05
(PID.TID 0000.0001) %MON dynstat_wvel_max             =   1.7736117509254E-02
(PID.TID 0000.0001) %MON dynstat_wvel_min             =  -4.8654876671778E-02
(PID.TID 0000.0001) %MON dynstat_wvel_mean            =  -4.7772003562156E-21
(PID.TID 0000.0001) %MON dynstat_wvel_sd              =   2.3912961081566E-04
(PID.TID 0000.0001) %MON dynstat_wvel_del2            =   2.7071968986232E-06
(PID.TID 0000.0001) %MON dynstat_theta_max            =  -1.9417475728209E-01
(PID.TID 0000.0001) %MON dynstat_theta_min            =  -9.7087381093410E+00
(PID.TID 0000.0001) %MON dynstat_theta_mean           =  -4.1283100227183E+00
(PID.TID 0000.0001) %MON dynstat_theta_sd             =   2.6833462321496E+00
(PID.TID 0000.0001) %MON dynstat_theta_del2           =   3.8011726748381E-04
(PID.TID 0000.0001) %MON dynstat_salt_max             =   2.0000000000000E+00
(PID.TID 0000.0001) %MON dynstat_salt_min             =   1.0000000000000E+00
(PID.TID 0000.0001) %MON dynstat_salt_mean            =   1.0000396771466E+00
(PID.TID 0000.0001) %MON dynstat_salt_sd              =   5.5246759981791E-03
(PID.TID 0000.0001) %MON dynstat_salt_del2            =   4.6408737200073E-05
(PID.TID 0000.0001) %MON advcfl_uvel_max              =   9.4747962791382E-03
(PID.TID 0000.0001) %MON advcfl_vvel_max              =   5.8180275462155E-02
(PID.TID 0000.0001) %MON advcfl_wvel_max              =   2.0272865279907E-01
(PID.TID 0000.0001) %MON advcfl_W_hf_max              =   2.0272865279907E-01
(PID.TID 0000.0001) %MON pe_b_mean                    =   6.1079690270652E-06
(PID.TID 0000.0001) %MON ke_max                       =   1.2111446419957E+00
(PID.TID 0000.0001) %MON ke_mean                      =   6.2654110480510E-05
(PID.TID 0000.0001) %MON ke_vol                       =   2.7059236822589E+15
(PID.TID 0000.0001) %MON vort_r_min                   =  -1.9393425212476E-04
(PID.TID 0000.0001) %MON vort_r_max                   =   1.2679208822972E-04
(PID.TID 0000.0001) %MON vort_a_mean                  =   1.0000000000000E-04
(PID.TID 0000.0001) %MON vort_a_sd                    =   9.9183337384051E-07
(PID.TID 0000.0001) %MON vort_p_mean                  =   1.1277618388223E-04
(PID.TID 0000.0001) %MON vort_p_sd                    =   7.1096619023821E-05
(PID.TID 0000.0001) %MON surfExpan_theta_mean         =   2.0303862961760E-11
(PID.TID 0000.0001) %MON surfExpan_salt_mean          =  -3.0465693105477E-13
(PID.TID 0000.0001) // =======================================================
(PID.TID 0000.0001) // End MONITOR dynamic field statistics
(PID.TID 0000.0001) // =======================================================
 cg2d: Sum(rhs),rhsMax =  -5.57875324627136E+02  5.09271553123684E-02
(PID.TID 0000.0001)                    cg2d_init_res =    2.11901302245739E+00
(PID.TID 0000.0001)                       cg2d_iters =    89
(PID.TID 0000.0001)                         cg2d_res =    8.83882408417466E-12
(PID.TID 0000.0001) // =======================================================
(PID.TID 0000.0001) // Begin MONITOR dynamic field statistics
(PID.TID 0000.0001) // =======================================================
(PID.TID 0000.0001) %MON time_tsnumber                =                    14
(PID.TID 0000.0001) %MON time_secondsf                =   4.2000000000000E+03
(PID.TID 0000.0001) %MON dynstat_eta_max              =   1.6731025985902E-01
(PID.TID 0000.0001) %MON dynstat_eta_min              =  -1.8029717226375E-01
(PID.TID 0000.0001) %MON dynstat_eta_mean             =   3.6138738775278E-02
(PID.TID 0000.0001) %MON dynstat_eta_sd               =   4.8310324057774E-02
(PID.TID 0000.0001) %MON dynstat_eta_del2             =   1.6579746644226E-04
(PID.TID 0000.0001) %MON dynstat_uvel_max             =   3.1386822600482E-01
(PID.TID 0000.0001) %MON dynstat_uvel_min             =  -2.1277089167297E-01
(PID.TID 0000.0001) %MON dynstat_uvel_mean            =  -1.1471445042137E-03
(PID.TID 0000.0001) %MON dynstat_uvel_sd              =   4.7831670913866E-03
(PID.TID 0000.0001) %MON dynstat_uvel_del2            =   4.5188944430050E-05
(PID.TID 0000.0001) %MON dynstat_vvel_max             =   8.8841521210294E-04
(PID.TID 0000.0001) %MON dynstat_vvel_min             =  -1.9393425212476E+00
(PID.TID 0000.0001) %MON dynstat_vvel_mean            =  -1.6922911630939E-03
(PID.TID 0000.0001) %MON dynstat_vvel_sd              =   1.0087331399663E-02
(PID.TID 0000.0001) %MON dynstat_vvel_del2            =   6.6632669495060E-05
(PID.TID 0000.0001) %MON dynstat_wvel_max             =   1.7074560342473E-02
(PID.TID 0000.0001) %MON dynstat_wvel_min             =  -4.8654876671778E-02
(PID.TID 0000.0001) %MON dynstat_wvel_mean            =   5.6701350022372E-21
(PID.TID 0000.0001) %MON dynstat_wvel_sd              =   2.3835041444961E-04
(PID.TID 0000.0001) %MON dynstat_wvel_del2            =   2.6693522682502E-06
(PID.TID 0000.0001) %MON dynstat_theta_max            =  -1.9417475728388E-01
(PID.TID 0000.0001) %MON dynstat_theta_min            =  -9.7087381093410E+00
(PID.TID 0000.0001) %MON dynstat_theta_mean           =  -4.1283182569489E+00
(PID.TID 0000.0001) %MON dynstat_theta_sd             =   2.6833446102548E+00
(PID.TID 0000.0001) %MON dynstat_theta_del2           =   3.8099120174336E-04
(PID.TID 0000.0001) %MON dynstat_salt_max             =   2.0000000000000E+00
(PID.TID 0000.0001) %MON dynstat_salt_min             =   1.0000000000000E+00
(PID.TID 0000.0001) %MON dynstat_salt_mean            =   1.0000405446037E+00
(PID.TID 0000.0001) %MON dynstat_salt_sd              =   5.5747574450621E-03
(PID.TID 0000.0001) %MON dynstat_salt_del2            =   4.6402500325668E-05
(PID.TID 0000.0001) %MON advcfl_uvel_max              =   9.4160467801445E-03
(PID.TID 0000.0001) %MON advcfl_vvel_max              =   5.8180275462155E-02
(PID.TID 0000.0001) %MON advcfl_wvel_max              =   2.0272865279907E-01
(PID.TID 0000.0001) %MON advcfl_W_hf_max              =   2.0272865279907E-01
(PID.TID 0000.0001) %MON pe_b_mean                    =   6.6827205255626E-06
(PID.TID 0000.0001) %MON ke_max                       =   1.2353190182757E+00
(PID.TID 0000.0001) %MON ke_mean                      =   6.0894005347886E-05
(PID.TID 0000.0001) %MON ke_vol                       =   2.7059236822589E+15
(PID.TID 0000.0001) %MON vort_r_min                   =  -1.9393425212476E-04
(PID.TID 0000.0001) %MON vort_r_max                   =   1.2621209564888E-04
(PID.TID 0000.0001) %MON vort_a_mean                  =   9.9999999999995E-05
(PID.TID 0000.0001) %MON vort_a_sd                    =   9.9258051487515E-07
(PID.TID 0000.0001) %MON vort_p_mean                  =   1.1277618388222E-04
(PID.TID 0000.0001) %MON vort_p_sd                    =   7.1091578093751E-05
(PID.TID 0000.0001) %MON surfExpan_theta_mean         =  -8.5921388216267E-10
(PID.TID 0000.0001) %MON surfExpan_salt_mean          =   7.9382288286771E-14
(PID.TID 0000.0001) // =======================================================
(PID.TID 0000.0001) // End MONITOR dynamic field statistics
(PID.TID 0000.0001) // =======================================================
 cg2d: Sum(rhs),rhsMax =  -5.87103112807864E+02  5.18484054419787E-02
(PID.TID 0000.0001)                    cg2d_init_res =    1.79378617071788E+00
(PID.TID 0000.0001)                       cg2d_iters =    88
(PID.TID 0000.0001)                         cg2d_res =    9.46646191603480E-12
(PID.TID 0000.0001) // =======================================================
(PID.TID 0000.0001) // Begin MONITOR dynamic field statistics
(PID.TID 0000.0001) // =======================================================
(PID.TID 0000.0001) %MON time_tsnumber                =                    15
(PID.TID 0000.0001) %MON time_secondsf                =   4.5000000000000E+03
(PID.TID 0000.0001) %MON dynstat_eta_max              =   1.5147761838463E-01
(PID.TID 0000.0001) %MON dynstat_eta_min              =  -1.5217719722265E-01
(PID.TID 0000.0001) %MON dynstat_eta_mean             =   3.8720076684482E-02
(PID.TID 0000.0001) %MON dynstat_eta_sd               =   4.8907164458347E-02
(PID.TID 0000.0001) %MON dynstat_eta_del2             =   1.4599130912743E-04
(PID.TID 0000.0001) %MON dynstat_uvel_max             =   3.1143001189265E-01
(PID.TID 0000.0001) %MON dynstat_uvel_min             =  -2.1213838335391E-01
(PID.TID 0000.0001) %MON dynstat_uvel_mean            =  -1.3944304310411E-03
(PID.TID 0000.0001) %MON dynstat_uvel_sd              =   4.6977363426615E-03
(PID.TID 0000.0001) %MON dynstat_uvel_del2            =   4.5469879153668E-05
(PID.TID 0000.0001) %MON dynstat_vvel_max             =   9.7219741130760E-04
(PID.TID 0000.0001) %MON dynstat_vvel_min             =  -1.9393425212476E+00
(PID.TID 0000.0001) %MON dynstat_vvel_mean            =  -1.5157178974466E-03
(PID.TID 0000.0001) %MON dynstat_vvel_sd              =   9.9880612844594E-03
(PID.TID 0000.0001) %MON dynstat_vvel_del2            =   6.5851255760634E-05
(PID.TID 0000.0001) %MON dynstat_wvel_max             =   1.6379745081943E-02
(PID.TID 0000.0001) %MON dynstat_wvel_min             =  -4.8654876671778E-02
(PID.TID 0000.0001) %MON dynstat_wvel_mean            =  -3.5270918517853E-21
(PID.TID 0000.0001) %MON dynstat_wvel_sd              =   2.3761334045661E-04
(PID.TID 0000.0001) %MON dynstat_wvel_del2            =   2.6142987608017E-06
(PID.TID 0000.0001) %MON dynstat_theta_max            =  -1.9417475729055E-01
(PID.TID 0000.0001) %MON dynstat_theta_min            =  -9.7087381093410E+00
(PID.TID 0000.0001) %MON dynstat_theta_mean           =  -4.1283264910985E+00
(PID.TID 0000.0001) %MON dynstat_theta_sd             =   2.6833432118221E+00
(PID.TID 0000.0001) %MON dynstat_theta_del2           =   3.8319487705288E-04
(PID.TID 0000.0001) %MON dynstat_salt_max             =   2.0000000000000E+00
(PID.TID 0000.0001) %MON dynstat_salt_min             =   1.0000000000000E+00
(PID.TID 0000.0001) %MON dynstat_salt_mean            =   1.0000414120609E+00
(PID.TID 0000.0001) %MON dynstat_salt_sd              =   5.6260311193972E-03
(PID.TID 0000.0001) %MON dynstat_salt_del2            =   4.6515517243321E-05
(PID.TID 0000.0001) %MON advcfl_uvel_max              =   9.3429003567795E-03
(PID.TID 0000.0001) %MON advcfl_vvel_max              =   5.8180275462155E-02
(PID.TID 0000.0001) %MON advcfl_wvel_max              =   2.0272865279907E-01
(PID.TID 0000.0001) %MON advcfl_W_hf_max              =   2.0272865279907E-01
(PID.TID 0000.0001) %MON pe_b_mean                    =   7.1440236054881E-06
(PID.TID 0000.0001) %MON ke_max                       =   1.2611915845831E+00
(PID.TID 0000.0001) %MON ke_mean                      =   5.9608477259143E-05
(PID.TID 0000.0001) %MON ke_vol                       =   2.7059236822589E+15
(PID.TID 0000.0001) %MON vort_r_min                   =  -1.9393425212476E-04
(PID.TID 0000.0001) %MON vort_r_max                   =   1.2562942810111E-04
(PID.TID 0000.0001) %MON vort_a_mean                  =   9.9999999999983E-05
(PID.TID 0000.0001) %MON vort_a_sd                    =   9.9490638299653E-07
(PID.TID 0000.0001) %MON vort_p_mean                  =   1.1277618388221E-04
(PID.TID 0000.0001) %MON vort_p_sd                    =   7.1087433421800E-05
(PID.TID 0000.0001) %MON surfExpan_theta_mean         =  -1.5609331989639E-09
(PID.TID 0000.0001) %MON surfExpan_salt_mean          =   5.3548621080953E-13
(PID.TID 0000.0001) // =======================================================
(PID.TID 0000.0001) // End MONITOR dynamic field statistics
(PID.TID 0000.0001) // =======================================================
 cg2d: Sum(rhs),rhsMax =  -5.82245102981799E+02  5.57664051090106E-02
(PID.TID 0000.0001)                    cg2d_init_res =    1.42133078534799E+00
(PID.TID 0000.0001)                       cg2d_iters =    88
(PID.TID 0000.0001)                         cg2d_res =    8.58754589611382E-12
(PID.TID 0000.0001) // =======================================================
(PID.TID 0000.0001) // Begin MONITOR dynamic field statistics
(PID.TID 0000.0001) // =======================================================
(PID.TID 0000.0001) %MON time_tsnumber                =                    16
(PID.TID 0000.0001) %MON time_secondsf                =   4.8000000000000E+03
(PID.TID 0000.0001) %MON dynstat_eta_max              =   1.6421871565241E-01
(PID.TID 0000.0001) %MON dynstat_eta_min              =  -1.1391564398767E-01
(PID.TID 0000.0001) %MON dynstat_eta_mean             =   4.1301413486569E-02
(PID.TID 0000.0001) %MON dynstat_eta_sd               =   4.8672151943135E-02
(PID.TID 0000.0001) %MON dynstat_eta_del2             =   1.2143600277450E-04
(PID.TID 0000.0001) %MON dynstat_uvel_max             =   3.0868047960066E-01
(PID.TID 0000.0001) %MON dynstat_uvel_min             =  -2.1352159724710E-01
(PID.TID 0000.0001) %MON dynstat_uvel_mean            =  -1.6341575526092E-03
(PID.TID 0000.0001) %MON dynstat_uvel_sd              =   4.6484871382678E-03
(PID.TID 0000.0001) %MON dynstat_uvel_del2            =   4.6013815294638E-05
(PID.TID 0000.0001) %MON dynstat_vvel_max             =   1.2550986810154E-03
(PID.TID 0000.0001) %MON dynstat_vvel_min             =  -1.9393425212476E+00
(PID.TID 0000.0001) %MON dynstat_vvel_mean            =  -1.2990075368498E-03
(PID.TID 0000.0001) %MON dynstat_vvel_sd              =   9.9289079477767E-03
(PID.TID 0000.0001) %MON dynstat_vvel_del2            =   6.4585617458291E-05
(PID.TID 0000.0001) %MON dynstat_wvel_max             =   1.5650305130489E-02
(PID.TID 0000.0001) %MON dynstat_wvel_min             =  -4.8654876671778E-02
(PID.TID 0000.0001) %MON dynstat_wvel_mean            =  -4.5986134270113E-21
(PID.TID 0000.0001) %MON dynstat_wvel_sd              =   2.3697780999031E-04
(PID.TID 0000.0001) %MON dynstat_wvel_del2            =   2.5491608151058E-06
(PID.TID 0000.0001) %MON dynstat_theta_max            =  -1.9417475731313E-01
(PID.TID 0000.0001) %MON dynstat_theta_min            =  -9.7087381093410E+00
(PID.TID 0000.0001) %MON dynstat_theta_mean           =  -4.1283347251938E+00
(PID.TID 0000.0001) %MON dynstat_theta_sd             =   2.6833419918295E+00
(PID.TID 0000.0001) %MON dynstat_theta_del2           =   3.8509178881896E-04
(PID.TID 0000.0001) %MON dynstat_salt_max             =   2.0000000000000E+00
(PID.TID 0000.0001) %MON dynstat_salt_min             =   1.0000000000000E+00
(PID.TID 0000.0001) %MON dynstat_salt_mean            =   1.0000422795180E+00
(PID.TID 0000.0001) %MON dynstat_salt_sd              =   5.6783019631853E-03
(PID.TID 0000.0001) %MON dynstat_salt_del2            =   4.6682494493244E-05
(PID.TID 0000.0001) %MON advcfl_uvel_max              =   9.2604143880198E-03
(PID.TID 0000.0001) %MON advcfl_vvel_max              =   5.8180275462155E-02
(PID.TID 0000.0001) %MON advcfl_wvel_max              =   2.0272865279907E-01
(PID.TID 0000.0001) %MON advcfl_W_hf_max              =   2.0272865279907E-01
(PID.TID 0000.0001) %MON pe_b_mean                    =   7.4811619196107E-06
(PID.TID 0000.0001) %MON ke_max                       =   1.2887352190619E+00
(PID.TID 0000.0001) %MON ke_mean                      =   5.8905570476618E-05
(PID.TID 0000.0001) %MON ke_vol                       =   2.7059236822589E+15
(PID.TID 0000.0001) %MON vort_r_min                   =  -1.9393425212476E-04
(PID.TID 0000.0001) %MON vort_r_max                   =   1.2506197858126E-04
(PID.TID 0000.0001) %MON vort_a_mean                  =   9.9999999999952E-05
(PID.TID 0000.0001) %MON vort_a_sd                    =   9.9879683477995E-07
(PID.TID 0000.0001) %MON vort_p_mean                  =   1.1277618388217E-04
(PID.TID 0000.0001) %MON vort_p_sd                    =   7.1084289535764E-05
(PID.TID 0000.0001) %MON surfExpan_theta_mean         =  -2.0223453590397E-09
(PID.TID 0000.0001) %MON surfExpan_salt_mean          =   9.4262135858755E-13
(PID.TID 0000.0001) // =======================================================
(PID.TID 0000.0001) // End MONITOR dynamic field statistics
(PID.TID 0000.0001) // =======================================================
 cg2d: Sum(rhs),rhsMax =  -5.78335353216835E+02  5.96523624686614E-02
(PID.TID 0000.0001)                    cg2d_init_res =    1.19735283708722E+00
(PID.TID 0000.0001)                       cg2d_iters =    88
(PID.TID 0000.0001)                         cg2d_res =    8.57792579886459E-12
(PID.TID 0000.0001) // =======================================================
(PID.TID 0000.0001) // Begin MONITOR dynamic field statistics
(PID.TID 0000.0001) // =======================================================
(PID.TID 0000.0001) %MON time_tsnumber                =                    17
(PID.TID 0000.0001) %MON time_secondsf                =   5.1000000000000E+03
(PID.TID 0000.0001) %MON dynstat_eta_max              =   1.6759683979883E-01
(PID.TID 0000.0001) %MON dynstat_eta_min              =  -7.2014098744959E-02
(PID.TID 0000.0001) %MON dynstat_eta_mean             =   4.3882747460244E-02
(PID.TID 0000.0001) %MON dynstat_eta_sd               =   4.7759705563385E-02
(PID.TID 0000.0001) %MON dynstat_eta_del2             =   9.3697948008090E-05
(PID.TID 0000.0001) %MON dynstat_uvel_max             =   3.0577227098644E-01
(PID.TID 0000.0001) %MON dynstat_uvel_min             =  -2.1650255281770E-01
(PID.TID 0000.0001) %MON dynstat_uvel_mean            =  -1.8575256353031E-03
(PID.TID 0000.0001) %MON dynstat_uvel_sd              =   4.6310321579024E-03
(PID.TID 0000.0001) %MON dynstat_uvel_del2            =   4.6509468986895E-05
(PID.TID 0000.0001) %MON dynstat_vvel_max             =   1.5919328252065E-03
(PID.TID 0000.0001) %MON dynstat_vvel_min             =  -1.9393425212476E+00
(PID.TID 0000.0001) %MON dynstat_vvel_mean            =  -1.0654195243912E-03
(PID.TID 0000.0001) %MON dynstat_vvel_sd              =   9.9105186053142E-03
(PID.TID 0000.0001) %MON dynstat_vvel_del2            =   6.3213331348092E-05
(PID.TID 0000.0001) %MON dynstat_wvel_max             =   1.4892581753708E-02
(PID.TID 0000.0001) %MON dynstat_wvel_min             =  -4.8654876671778E-02
(PID.TID 0000.0001) %MON dynstat_wvel_mean            =  -6.8309500420653E-21
(PID.TID 0000.0001) %MON dynstat_wvel_sd              =   2.3648312988435E-04
(PID.TID 0000.0001) %MON dynstat_wvel_del2            =   2.4935300488748E-06
(PID.TID 0000.0001) %MON dynstat_theta_max            =  -1.9417475738341E-01
(PID.TID 0000.0001) %MON dynstat_theta_min            =  -9.7087381093410E+00
(PID.TID 0000.0001) %MON dynstat_theta_mean           =  -4.1283429592599E+00
(PID.TID 0000.0001) %MON dynstat_theta_sd             =   2.6833409334857E+00
(PID.TID 0000.0001) %MON dynstat_theta_del2           =   3.8675774612082E-04
(PID.TID 0000.0001) %MON dynstat_salt_max             =   2.0000000000000E+00
(PID.TID 0000.0001) %MON dynstat_salt_min             =   1.0000000000000E+00
(PID.TID 0000.0001) %MON dynstat_salt_mean            =   1.0000431469751E+00
(PID.TID 0000.0001) %MON dynstat_salt_sd              =   5.7312530719626E-03
(PID.TID 0000.0001) %MON dynstat_salt_del2            =   4.6829318355814E-05
(PID.TID 0000.0001) %MON advcfl_uvel_max              =   9.1731681295931E-03
(PID.TID 0000.0001) %MON advcfl_vvel_max              =   5.8180275462155E-02
(PID.TID 0000.0001) %MON advcfl_wvel_max              =   2.0272865279907E-01
(PID.TID 0000.0001) %MON advcfl_W_hf_max              =   2.0272865279907E-01
(PID.TID 0000.0001) %MON pe_b_mean                    =   7.7233254321554E-06
(PID.TID 0000.0001) %MON ke_max                       =   1.3178118243037E+00
(PID.TID 0000.0001) %MON ke_mean                      =   5.8784642463181E-05
(PID.TID 0000.0001) %MON ke_vol                       =   2.7059236822589E+15
(PID.TID 0000.0001) %MON vort_r_min                   =  -1.9393425212476E-04
(PID.TID 0000.0001) %MON vort_r_max                   =   1.2451709905563E-04
(PID.TID 0000.0001) %MON vort_a_mean                  =   9.9999999999874E-05
(PID.TID 0000.0001) %MON vort_a_sd                    =   1.0040270519848E-06
(PID.TID 0000.0001) %MON vort_p_mean                  =   1.1277618388209E-04
(PID.TID 0000.0001) %MON vort_p_sd                    =   7.1082114280485E-05
(PID.TID 0000.0001) %MON surfExpan_theta_mean         =  -2.2692556419418E-09
(PID.TID 0000.0001) %MON surfExpan_salt_mean          =   1.2183861932463E-12
(PID.TID 0000.0001) // =======================================================
(PID.TID 0000.0001) // End MONITOR dynamic field statistics
(PID.TID 0000.0001) // =======================================================
 cg2d: Sum(rhs),rhsMax =  -5.80436102505768E+02  6.29327129917090E-02
(PID.TID 0000.0001)                    cg2d_init_res =    1.14184093572645E+00
(PID.TID 0000.0001)                       cg2d_iters =    88
(PID.TID 0000.0001)                         cg2d_res =    7.83391457258440E-12
(PID.TID 0000.0001) // =======================================================
(PID.TID 0000.0001) // Begin MONITOR dynamic field statistics
(PID.TID 0000.0001) // =======================================================
(PID.TID 0000.0001) %MON time_tsnumber                =                    18
(PID.TID 0000.0001) %MON time_secondsf                =   5.4000000000000E+03
(PID.TID 0000.0001) %MON dynstat_eta_max              =   1.6166917962422E-01
(PID.TID 0000.0001) %MON dynstat_eta_min              =  -3.1509618937378E-02
(PID.TID 0000.0001) %MON dynstat_eta_mean             =   4.6464074689248E-02
(PID.TID 0000.0001) %MON dynstat_eta_sd               =   4.6431661329761E-02
(PID.TID 0000.0001) %MON dynstat_eta_del2             =   6.6344611817847E-05
(PID.TID 0000.0001) %MON dynstat_uvel_max             =   3.0276817960414E-01
(PID.TID 0000.0001) %MON dynstat_uvel_min             =  -2.2054669275281E-01
(PID.TID 0000.0001) %MON dynstat_uvel_mean            =  -2.0591571297150E-03
(PID.TID 0000.0001) %MON dynstat_uvel_sd              =   4.6379830866342E-03
(PID.TID 0000.0001) %MON dynstat_uvel_del2            =   4.6952756735853E-05
(PID.TID 0000.0001) %MON dynstat_vvel_max             =   1.7734290780542E-03
(PID.TID 0000.0001) %MON dynstat_vvel_min             =  -1.9393425212476E+00
(PID.TID 0000.0001) %MON dynstat_vvel_mean            =  -8.3839818910195E-04
(PID.TID 0000.0001) %MON dynstat_vvel_sd              =   9.9287391360789E-03
(PID.TID 0000.0001) %MON dynstat_vvel_del2            =   6.1850938263650E-05
(PID.TID 0000.0001) %MON dynstat_wvel_max             =   1.4116115199213E-02
(PID.TID 0000.0001) %MON dynstat_wvel_min             =  -4.8654876671778E-02
(PID.TID 0000.0001) %MON dynstat_wvel_mean            =   7.2774173650761E-21
(PID.TID 0000.0001) %MON dynstat_wvel_sd              =   2.3614049787972E-04
(PID.TID 0000.0001) %MON dynstat_wvel_del2            =   2.4615933638133E-06
(PID.TID 0000.0001) %MON dynstat_theta_max            =  -1.9417475758593E-01
(PID.TID 0000.0001) %MON dynstat_theta_min            =  -9.7087381093410E+00
(PID.TID 0000.0001) %MON dynstat_theta_mean           =  -4.1283511933127E+00
(PID.TID 0000.0001) %MON dynstat_theta_sd             =   2.6833399459865E+00
(PID.TID 0000.0001) %MON dynstat_theta_del2           =   3.8927699023631E-04
(PID.TID 0000.0001) %MON dynstat_salt_max             =   2.0000000000000E+00
(PID.TID 0000.0001) %MON dynstat_salt_min             =   1.0000000000000E+00
(PID.TID 0000.0001) %MON dynstat_salt_mean            =   1.0000440144321E+00
(PID.TID 0000.0001) %MON dynstat_salt_sd              =   5.7844063212422E-03
(PID.TID 0000.0001) %MON dynstat_salt_del2            =   4.7095365784729E-05
(PID.TID 0000.0001) %MON advcfl_uvel_max              =   9.0830453881242E-03
(PID.TID 0000.0001) %MON advcfl_vvel_max              =   5.8180275462155E-02
(PID.TID 0000.0001) %MON advcfl_wvel_max              =   2.0272865279907E-01
(PID.TID 0000.0001) %MON advcfl_W_hf_max              =   2.0272865279907E-01
(PID.TID 0000.0001) %MON pe_b_mean                    =   7.9218380397587E-06
(PID.TID 0000.0001) %MON ke_max                       =   1.3482356429244E+00
(PID.TID 0000.0001) %MON ke_mean                      =   5.9176498242875E-05
(PID.TID 0000.0001) %MON ke_vol                       =   2.7059236822589E+15
(PID.TID 0000.0001) %MON vort_r_min                   =  -1.9393425212476E-04
(PID.TID 0000.0001) %MON vort_r_max                   =   1.2399248262043E-04
(PID.TID 0000.0001) %MON vort_a_mean                  =   9.9999999999696E-05
(PID.TID 0000.0001) %MON vort_a_sd                    =   1.0102966949095E-06
(PID.TID 0000.0001) %MON vort_p_mean                  =   1.1277618388189E-04
(PID.TID 0000.0001) %MON vort_p_sd                    =   7.1080756580009E-05
(PID.TID 0000.0001) %MON surfExpan_theta_mean         =  -2.3711198278723E-09
(PID.TID 0000.0001) %MON surfExpan_salt_mean          =   1.3468774495841E-12
(PID.TID 0000.0001) // =======================================================
(PID.TID 0000.0001) // End MONITOR dynamic field statistics
(PID.TID 0000.0001) // =======================================================
 cg2d: Sum(rhs),rhsMax =  -5.90456348005198E+02  6.53016187437012E-02
(PID.TID 0000.0001)                    cg2d_init_res =    1.18920164565382E+00
(PID.TID 0000.0001)                       cg2d_iters =    88
(PID.TID 0000.0001)                         cg2d_res =    8.07690825650552E-12
(PID.TID 0000.0001) // =======================================================
(PID.TID 0000.0001) // Begin MONITOR dynamic field statistics
(PID.TID 0000.0001) // =======================================================
(PID.TID 0000.0001) %MON time_tsnumber                =                    19
(PID.TID 0000.0001) %MON time_secondsf                =   5.7000000000000E+03
(PID.TID 0000.0001) %MON dynstat_eta_max              =   1.4798341071898E-01
(PID.TID 0000.0001) %MON dynstat_eta_min              =   0.0000000000000E+00
(PID.TID 0000.0001) %MON dynstat_eta_mean             =   4.9045386835818E-02
(PID.TID 0000.0001) %MON dynstat_eta_sd               =   4.5003816334969E-02
(PID.TID 0000.0001) %MON dynstat_eta_del2             =   6.1724676384562E-05
(PID.TID 0000.0001) %MON dynstat_uvel_max             =   2.9970875420695E-01
(PID.TID 0000.0001) %MON dynstat_uvel_min             =  -2.2515652078283E-01
(PID.TID 0000.0001) %MON dynstat_uvel_mean            =  -2.2371074508878E-03
(PID.TID 0000.0001) %MON dynstat_uvel_sd              =   4.6636573437580E-03
(PID.TID 0000.0001) %MON dynstat_uvel_del2            =   4.7335480434071E-05
(PID.TID 0000.0001) %MON dynstat_vvel_max             =   1.8220390080409E-03
(PID.TID 0000.0001) %MON dynstat_vvel_min             =  -1.9393425212476E+00
(PID.TID 0000.0001) %MON dynstat_vvel_mean            =  -6.3865183348658E-04
(PID.TID 0000.0001) %MON dynstat_vvel_sd              =   9.9764926762095E-03
(PID.TID 0000.0001) %MON dynstat_vvel_del2            =   6.0928674667568E-05
(PID.TID 0000.0001) %MON dynstat_wvel_max             =   1.3331673166126E-02
(PID.TID 0000.0001) %MON dynstat_wvel_min             =  -4.8654876671778E-02
(PID.TID 0000.0001) %MON dynstat_wvel_mean            =  -8.8846997279150E-21
(PID.TID 0000.0001) %MON dynstat_wvel_sd              =   2.3593421436527E-04
(PID.TID 0000.0001) %MON dynstat_wvel_del2            =   2.4493580863650E-06
(PID.TID 0000.0001) %MON dynstat_theta_max            =  -1.9417475812969E-01
(PID.TID 0000.0001) %MON dynstat_theta_min            =  -9.7087381093410E+00
(PID.TID 0000.0001) %MON dynstat_theta_mean           =  -4.1283594273582E+00
(PID.TID 0000.0001) %MON dynstat_theta_sd             =   2.6833389613270E+00
(PID.TID 0000.0001) %MON dynstat_theta_del2           =   3.9132524871564E-04
(PID.TID 0000.0001) %MON dynstat_salt_max             =   2.0000000000000E+00
(PID.TID 0000.0001) %MON dynstat_salt_min             =   1.0000000000000E+00
(PID.TID 0000.0001) %MON dynstat_salt_mean            =   1.0000448818892E+00
(PID.TID 0000.0001) %MON dynstat_salt_sd              =   5.8371663173136E-03
(PID.TID 0000.0001) %MON dynstat_salt_del2            =   4.7312952049629E-05
(PID.TID 0000.0001) %MON advcfl_uvel_max              =   8.9912626262084E-03
(PID.TID 0000.0001) %MON advcfl_vvel_max              =   5.8180275462155E-02
(PID.TID 0000.0001) %MON advcfl_wvel_max              =   2.0272865279907E-01
(PID.TID 0000.0001) %MON advcfl_W_hf_max              =   2.0272865279907E-01
(PID.TID 0000.0001) %MON pe_b_mean                    =   8.1347806577219E-06
(PID.TID 0000.0001) %MON ke_max                       =   1.3797703034682E+00
(PID.TID 0000.0001) %MON ke_mean                      =   5.9981727605383E-05
(PID.TID 0000.0001) %MON ke_vol                       =   2.7059236822589E+15
(PID.TID 0000.0001) %MON vort_r_min                   =  -1.9393425212476E-04
(PID.TID 0000.0001) %MON vort_r_max                   =   1.2348473916543E-04
(PID.TID 0000.0001) %MON vort_a_mean                  =   9.9999999999317E-05
(PID.TID 0000.0001) %MON vort_a_sd                    =   1.0173212574944E-06
(PID.TID 0000.0001) %MON vort_p_mean                  =   1.1277618388146E-04
(PID.TID 0000.0001) %MON vort_p_sd                    =   7.1079982549640E-05
(PID.TID 0000.0001) %MON surfExpan_theta_mean         =  -2.3784642621327E-09
(PID.TID 0000.0001) %MON surfExpan_salt_mean          =   1.3621716655378E-12
(PID.TID 0000.0001) // =======================================================
(PID.TID 0000.0001) // End MONITOR dynamic field statistics
(PID.TID 0000.0001) // =======================================================
 cg2d: Sum(rhs),rhsMax =  -6.08458019175513E+02  6.67047943307882E-02
(PID.TID 0000.0001)                    cg2d_init_res =    1.25476914344396E+00
(PID.TID 0000.0001)                       cg2d_iters =    87
(PID.TID 0000.0001)                         cg2d_res =    9.79654043384272E-12
(PID.TID 0000.0001) // =======================================================
(PID.TID 0000.0001) // Begin MONITOR dynamic field statistics
(PID.TID 0000.0001) // =======================================================
(PID.TID 0000.0001) %MON time_tsnumber                =                    20
(PID.TID 0000.0001) %MON time_secondsf                =   6.0000000000000E+03
(PID.TID 0000.0001) %MON dynstat_eta_max              =   1.6996911834290E-01
(PID.TID 0000.0001) %MON dynstat_eta_min              =  -7.1154436434139E-06
(PID.TID 0000.0001) %MON dynstat_eta_mean             =   5.1626667223873E-02
(PID.TID 0000.0001) %MON dynstat_eta_sd               =   4.3795487055449E-02
(PID.TID 0000.0001) %MON dynstat_eta_del2             =   7.5606462284874E-05
(PID.TID 0000.0001) %MON dynstat_uvel_max             =   2.9664535498662E-01
(PID.TID 0000.0001) %MON dynstat_uvel_min             =  -2.2995328344534E-01
(PID.TID 0000.0001) %MON dynstat_uvel_mean            =  -2.3923280335729E-03
(PID.TID 0000.0001) %MON dynstat_uvel_sd              =   4.7045264953984E-03
(PID.TID 0000.0001) %MON dynstat_uvel_del2            =   4.7696128815080E-05
(PID.TID 0000.0001) %MON dynstat_vvel_max             =   2.0694997241308E-03
(PID.TID 0000.0001) %MON dynstat_vvel_min             =  -1.9393425212476E+00
(PID.TID 0000.0001) %MON dynstat_vvel_mean            =  -4.8210352899885E-04
(PID.TID 0000.0001) %MON dynstat_vvel_sd              =   1.0046106358738E-02
(PID.TID 0000.0001) %MON dynstat_vvel_del2            =   6.0784861751389E-05
(PID.TID 0000.0001) %MON dynstat_wvel_max             =   1.3193087714012E-02
(PID.TID 0000.0001) %MON dynstat_wvel_min             =  -4.8654876671778E-02
(PID.TID 0000.0001) %MON dynstat_wvel_mean            =   4.3530563993553E-22
(PID.TID 0000.0001) %MON dynstat_wvel_sd              =   2.3583166727137E-04
(PID.TID 0000.0001) %MON dynstat_wvel_del2            =   2.4447608520838E-06
(PID.TID 0000.0001) %MON dynstat_theta_max            =  -1.9417475949715E-01
(PID.TID 0000.0001) %MON dynstat_theta_min            =  -9.7087381093410E+00
(PID.TID 0000.0001) %MON dynstat_theta_mean           =  -4.1283676613951E+00
(PID.TID 0000.0001) %MON dynstat_theta_sd             =   2.6833379691038E+00
(PID.TID 0000.0001) %MON dynstat_theta_del2           =   3.9290008322732E-04
(PID.TID 0000.0001) %MON dynstat_salt_max             =   2.0000000000000E+00
(PID.TID 0000.0001) %MON dynstat_salt_min             =   1.0000000000000E+00
(PID.TID 0000.0001) %MON dynstat_salt_mean            =   1.0000457493463E+00
(PID.TID 0000.0001) %MON dynstat_salt_sd              =   5.8894546381818E-03
(PID.TID 0000.0001) %MON dynstat_salt_del2            =   4.7480649819912E-05
(PID.TID 0000.0001) %MON advcfl_uvel_max              =   8.8993606495985E-03
(PID.TID 0000.0001) %MON advcfl_vvel_max              =   5.8180275462155E-02
(PID.TID 0000.0001) %MON advcfl_wvel_max              =   2.0272865279907E-01
(PID.TID 0000.0001) %MON advcfl_W_hf_max              =   2.0272865279907E-01
(PID.TID 0000.0001) %MON pe_b_mean                    =   8.4148827868111E-06
(PID.TID 0000.0001) %MON ke_max                       =   1.4121672748716E+00
(PID.TID 0000.0001) %MON ke_mean                      =   6.1098643200513E-05
(PID.TID 0000.0001) %MON ke_vol                       =   2.7059236822589E+15
(PID.TID 0000.0001) %MON vort_r_min                   =  -1.9393425212476E-04
(PID.TID 0000.0001) %MON vort_r_max                   =   1.2299135520131E-04
(PID.TID 0000.0001) %MON vort_a_mean                  =   9.9999999998560E-05
(PID.TID 0000.0001) %MON vort_a_sd                    =   1.0248776189226E-06
(PID.TID 0000.0001) %MON vort_p_mean                  =   1.1277618388060E-04
(PID.TID 0000.0001) %MON vort_p_sd                    =   7.1079523232986E-05
(PID.TID 0000.0001) %MON surfExpan_theta_mean         =  -2.3204318979450E-09
(PID.TID 0000.0001) %MON surfExpan_salt_mean          =   1.3080003005939E-12
(PID.TID 0000.0001) // =======================================================
(PID.TID 0000.0001) // End MONITOR dynamic field statistics
(PID.TID 0000.0001) // =======================================================
 Computing Diagnostic #  95  VISCA4D      Counter:      10   Parms: SM      MR      
(PID.TID 0000.0001) %CHECKPOINT        20 ckptA
(PID.TID 0000.0001)   Seconds in section "ALL                    [THE_MODEL_MAIN]":
(PID.TID 0000.0001)           User time:  138.856891
(PID.TID 0000.0001)         System time:  3.09852907
(PID.TID 0000.0001)     Wall clock time:  194.167623
(PID.TID 0000.0001)          No. starts: 1
(PID.TID 0000.0001)           No. stops: 1
(PID.TID 0000.0001)   Seconds in section "INITIALISE_FIXED       [THE_MODEL_MAIN]":
(PID.TID 0000.0001)           User time:  1.324798
(PID.TID 0000.0001)         System time:  0.428934995
(PID.TID 0000.0001)     Wall clock time:  3.65454984
(PID.TID 0000.0001)          No. starts: 1
(PID.TID 0000.0001)           No. stops: 1
(PID.TID 0000.0001)   Seconds in section "THE_MAIN_LOOP          [THE_MODEL_MAIN]":
(PID.TID 0000.0001)           User time:  136.2123
(PID.TID 0000.0001)         System time:  1.378791
(PID.TID 0000.0001)     Wall clock time:  182.058442
(PID.TID 0000.0001)          No. starts: 1
(PID.TID 0000.0001)           No. stops: 1
(PID.TID 0000.0001)   Seconds in section "INITIALISE_VARIA    [THE_MAIN_LOOP]":
(PID.TID 0000.0001)           User time:  0.611907005
(PID.TID 0000.0001)         System time:  0.143978029
(PID.TID 0000.0001)     Wall clock time:  1.41926193
(PID.TID 0000.0001)          No. starts: 1
(PID.TID 0000.0001)           No. stops: 1
(PID.TID 0000.0001)   Seconds in section "MONITOR             [THE_MAIN_LOOP]":
(PID.TID 0000.0001)           User time:  0.572913051
(PID.TID 0000.0001)         System time:  0.
(PID.TID 0000.0001)     Wall clock time:  0.792435169
(PID.TID 0000.0001)          No. starts: 1
(PID.TID 0000.0001)           No. stops: 1
(PID.TID 0000.0001)   Seconds in section "DO_THE_MODEL_IO     [THE_MAIN_LOOP]":
(PID.TID 0000.0001)           User time:  0.437933922
(PID.TID 0000.0001)         System time:  0.430935025
(PID.TID 0000.0001)     Wall clock time:  2.97276616
(PID.TID 0000.0001)          No. starts: 1
(PID.TID 0000.0001)           No. stops: 1
(PID.TID 0000.0001)   Seconds in section "MAIN LOOP           [THE_MAIN_LOOP]":
(PID.TID 0000.0001)           User time:  134.588546
(PID.TID 0000.0001)         System time:  0.80387795
(PID.TID 0000.0001)     Wall clock time:  176.873734
(PID.TID 0000.0001)          No. starts: 1
(PID.TID 0000.0001)           No. stops: 1
(PID.TID 0000.0001)   Seconds in section "FORWARD_STEP        [THE_MAIN_LOOP]":
(PID.TID 0000.0001)           User time:  134.587546
(PID.TID 0000.0001)         System time:  0.80387795
(PID.TID 0000.0001)     Wall clock time:  176.872984
(PID.TID 0000.0001)          No. starts: 20
(PID.TID 0000.0001)           No. stops: 20
(PID.TID 0000.0001)   Seconds in section "DO_STATEVARS_DIAGS  [FORWARD_STEP]":
(PID.TID 0000.0001)           User time:  0.
(PID.TID 0000.0001)         System time:  0.
(PID.TID 0000.0001)     Wall clock time:  0.00179314613
(PID.TID 0000.0001)          No. starts: 40
(PID.TID 0000.0001)           No. stops: 40
(PID.TID 0000.0001)   Seconds in section "EXTERNAL_FIELDS_LOAD[FORWARD_STEP]":
(PID.TID 0000.0001)           User time:  0.000999450684
(PID.TID 0000.0001)         System time:  0.
(PID.TID 0000.0001)     Wall clock time:  0.000809431076
(PID.TID 0000.0001)          No. starts: 20
(PID.TID 0000.0001)           No. stops: 20
(PID.TID 0000.0001)   Seconds in section "DO_ATMOSPHERIC_PHYS [FORWARD_STEP]":
(PID.TID 0000.0001)           User time:  0.00200653076
(PID.TID 0000.0001)         System time:  0.
(PID.TID 0000.0001)     Wall clock time:  0.000720500946
(PID.TID 0000.0001)          No. starts: 20
(PID.TID 0000.0001)           No. stops: 20
(PID.TID 0000.0001)   Seconds in section "DO_OCEANIC_PHYS     [FORWARD_STEP]":
(PID.TID 0000.0001)           User time:  0.962855339
(PID.TID 0000.0001)         System time:  0.000999927521
(PID.TID 0000.0001)     Wall clock time:  1.24475694
(PID.TID 0000.0001)          No. starts: 20
(PID.TID 0000.0001)           No. stops: 20
(PID.TID 0000.0001)   Seconds in section "DYNAMICS            [FORWARD_STEP]":
(PID.TID 0000.0001)           User time:  62.2925358
(PID.TID 0000.0001)         System time:  0.0579903126
(PID.TID 0000.0001)     Wall clock time:  81.8584309
(PID.TID 0000.0001)          No. starts: 20
(PID.TID 0000.0001)           No. stops: 20
(PID.TID 0000.0001)   Seconds in section "SOLVE_FOR_PRESSURE  [FORWARD_STEP]":
(PID.TID 0000.0001)           User time:  14.463799
(PID.TID 0000.0001)         System time:  0.0069988966
(PID.TID 0000.0001)     Wall clock time:  18.1483967
(PID.TID 0000.0001)          No. starts: 20
(PID.TID 0000.0001)           No. stops: 20
(PID.TID 0000.0001)   Seconds in section "UV_CORRECTION_STEP  [FORWARD_STEP]":
(PID.TID 0000.0001)           User time:  2.8335557
(PID.TID 0000.0001)         System time:  0.0039999485
(PID.TID 0000.0001)     Wall clock time:  3.72519755
(PID.TID 0000.0001)          No. starts: 20
(PID.TID 0000.0001)           No. stops: 20
(PID.TID 0000.0001)   Seconds in section "BLOCKING_EXCHANGES  [FORWARD_STEP]":
(PID.TID 0000.0001)           User time:  1.63677168
(PID.TID 0000.0001)         System time:  0.00499904156
(PID.TID 0000.0001)     Wall clock time:  1.98594689
(PID.TID 0000.0001)          No. starts: 40
(PID.TID 0000.0001)           No. stops: 40
(PID.TID 0000.0001)   Seconds in section "THERMODYNAMICS      [FORWARD_STEP]":
(PID.TID 0000.0001)           User time:  39.4529757
(PID.TID 0000.0001)         System time:  0.0239949226
(PID.TID 0000.0001)     Wall clock time:  49.5799859
(PID.TID 0000.0001)          No. starts: 20
(PID.TID 0000.0001)           No. stops: 20
(PID.TID 0000.0001)   Seconds in section "TS_CORRECTION_STEP  [FORWARD_STEP]":
(PID.TID 0000.0001)           User time:  0.698916435
(PID.TID 0000.0001)         System time:  0.00899899006
(PID.TID 0000.0001)     Wall clock time:  1.03313518
(PID.TID 0000.0001)          No. starts: 20
(PID.TID 0000.0001)           No. stops: 20
(PID.TID 0000.0001)   Seconds in section "DO_STATEVARS_TAVE   [FORWARD_STEP]":
(PID.TID 0000.0001)           User time:  0.
(PID.TID 0000.0001)         System time:  0.
(PID.TID 0000.0001)     Wall clock time:  0.000744819641
(PID.TID 0000.0001)          No. starts: 20
(PID.TID 0000.0001)           No. stops: 20
(PID.TID 0000.0001)   Seconds in section "MONITOR             [FORWARD_STEP]":
(PID.TID 0000.0001)           User time:  11.4512472
(PID.TID 0000.0001)         System time:  0.0259968042
(PID.TID 0000.0001)     Wall clock time:  15.2307763
(PID.TID 0000.0001)          No. starts: 20
(PID.TID 0000.0001)           No. stops: 20
(PID.TID 0000.0001)   Seconds in section "DO_THE_MODEL_IO     [FORWARD_STEP]":
(PID.TID 0000.0001)           User time:  0.78288269
(PID.TID 0000.0001)         System time:  0.666898966
(PID.TID 0000.0001)     Wall clock time:  4.04840708
(PID.TID 0000.0001)          No. starts: 20
(PID.TID 0000.0001)           No. stops: 20
(PID.TID 0000.0001)   Seconds in section "WRITE_CHECKPOINT    [FORWARD_STEP]":
(PID.TID 0000.0001)           User time:  0.
(PID.TID 0000.0001)         System time:  0.
(PID.TID 0000.0001)     Wall clock time:  0.00074839592
(PID.TID 0000.0001)          No. starts: 20
(PID.TID 0000.0001)           No. stops: 20
(PID.TID 0000.0001)   Seconds in section "WRITE_CHECKPOINT       [THE_MODEL_MAIN]":
(PID.TID 0000.0001)           User time:  1.3197937
(PID.TID 0000.0001)         System time:  1.29080307
(PID.TID 0000.0001)     Wall clock time:  8.454458
(PID.TID 0000.0001)          No. starts: 1
(PID.TID 0000.0001)           No. stops: 1
(PID.TID 0000.0001) // ======================================================
(PID.TID 0000.0001) // Tile <-> Tile communication statistics
(PID.TID 0000.0001) // ======================================================
(PID.TID 0000.0001) // o Tile number: 000001
(PID.TID 0000.0001) //         No. X exchanges =              0
(PID.TID 0000.0001) //            Max. X spins =              0
(PID.TID 0000.0001) //            Min. X spins =     1000000000
(PID.TID 0000.0001) //          Total. X spins =              0
(PID.TID 0000.0001) //            Avg. X spins =       0.00E+00
(PID.TID 0000.0001) //         No. Y exchanges =              0
(PID.TID 0000.0001) //            Max. Y spins =              0
(PID.TID 0000.0001) //            Min. Y spins =     1000000000
(PID.TID 0000.0001) //          Total. Y spins =              0
(PID.TID 0000.0001) //            Avg. Y spins =       0.00E+00
(PID.TID 0000.0001) // o Tile number: 000002
(PID.TID 0000.0001) //         No. X exchanges =              0
(PID.TID 0000.0001) //            Max. X spins =              0
(PID.TID 0000.0001) //            Min. X spins =     1000000000
(PID.TID 0000.0001) //          Total. X spins =              0
(PID.TID 0000.0001) //            Avg. X spins =       0.00E+00
(PID.TID 0000.0001) //         No. Y exchanges =              0
(PID.TID 0000.0001) //            Max. Y spins =              0
(PID.TID 0000.0001) //            Min. Y spins =     1000000000
(PID.TID 0000.0001) //          Total. Y spins =              0
(PID.TID 0000.0001) //            Avg. Y spins =       0.00E+00
(PID.TID 0000.0001) // o Tile number: 000003
(PID.TID 0000.0001) //         No. X exchanges =              0
(PID.TID 0000.0001) //            Max. X spins =              0
(PID.TID 0000.0001) //            Min. X spins =     1000000000
(PID.TID 0000.0001) //          Total. X spins =              0
(PID.TID 0000.0001) //            Avg. X spins =       0.00E+00
(PID.TID 0000.0001) //         No. Y exchanges =              0
(PID.TID 0000.0001) //            Max. Y spins =              0
(PID.TID 0000.0001) //            Min. Y spins =     1000000000
(PID.TID 0000.0001) //          Total. Y spins =              0
(PID.TID 0000.0001) //            Avg. Y spins =       0.00E+00
(PID.TID 0000.0001) // o Tile number: 000004
(PID.TID 0000.0001) //         No. X exchanges =              0
(PID.TID 0000.0001) //            Max. X spins =              0
(PID.TID 0000.0001) //            Min. X spins =     1000000000
(PID.TID 0000.0001) //          Total. X spins =              0
(PID.TID 0000.0001) //            Avg. X spins =       0.00E+00
(PID.TID 0000.0001) //         No. Y exchanges =              0
(PID.TID 0000.0001) //            Max. Y spins =              0
(PID.TID 0000.0001) //            Min. Y spins =     1000000000
(PID.TID 0000.0001) //          Total. Y spins =              0
(PID.TID 0000.0001) //            Avg. Y spins =       0.00E+00
(PID.TID 0000.0001) // o Tile number: 000005
(PID.TID 0000.0001) //         No. X exchanges =              0
(PID.TID 0000.0001) //            Max. X spins =              0
(PID.TID 0000.0001) //            Min. X spins =     1000000000
(PID.TID 0000.0001) //          Total. X spins =              0
(PID.TID 0000.0001) //            Avg. X spins =       0.00E+00
(PID.TID 0000.0001) //         No. Y exchanges =              0
(PID.TID 0000.0001) //            Max. Y spins =              0
(PID.TID 0000.0001) //            Min. Y spins =     1000000000
(PID.TID 0000.0001) //          Total. Y spins =              0
(PID.TID 0000.0001) //            Avg. Y spins =       0.00E+00
(PID.TID 0000.0001) // o Tile number: 000006
(PID.TID 0000.0001) //         No. X exchanges =              0
(PID.TID 0000.0001) //            Max. X spins =              0
(PID.TID 0000.0001) //            Min. X spins =     1000000000
(PID.TID 0000.0001) //          Total. X spins =              0
(PID.TID 0000.0001) //            Avg. X spins =       0.00E+00
(PID.TID 0000.0001) //         No. Y exchanges =              0
(PID.TID 0000.0001) //            Max. Y spins =              0
(PID.TID 0000.0001) //            Min. Y spins =     1000000000
(PID.TID 0000.0001) //          Total. Y spins =              0
(PID.TID 0000.0001) //            Avg. Y spins =       0.00E+00
(PID.TID 0000.0001) // o Tile number: 000007
(PID.TID 0000.0001) //         No. X exchanges =              0
(PID.TID 0000.0001) //            Max. X spins =              0
(PID.TID 0000.0001) //            Min. X spins =     1000000000
(PID.TID 0000.0001) //          Total. X spins =              0
(PID.TID 0000.0001) //            Avg. X spins =       0.00E+00
(PID.TID 0000.0001) //         No. Y exchanges =              0
(PID.TID 0000.0001) //            Max. Y spins =              0
(PID.TID 0000.0001) //            Min. Y spins =     1000000000
(PID.TID 0000.0001) //          Total. Y spins =              0
(PID.TID 0000.0001) //            Avg. Y spins =       0.00E+00
(PID.TID 0000.0001) // o Tile number: 000008
(PID.TID 0000.0001) //         No. X exchanges =              0
(PID.TID 0000.0001) //            Max. X spins =              0
(PID.TID 0000.0001) //            Min. X spins =     1000000000
(PID.TID 0000.0001) //          Total. X spins =              0
(PID.TID 0000.0001) //            Avg. X spins =       0.00E+00
(PID.TID 0000.0001) //         No. Y exchanges =              0
(PID.TID 0000.0001) //            Max. Y spins =              0
(PID.TID 0000.0001) //            Min. Y spins =     1000000000
(PID.TID 0000.0001) //          Total. Y spins =              0
(PID.TID 0000.0001) //            Avg. Y spins =       0.00E+00
(PID.TID 0000.0001) // o Tile number: 000009
(PID.TID 0000.0001) //         No. X exchanges =              0
(PID.TID 0000.0001) //            Max. X spins =              0
(PID.TID 0000.0001) //            Min. X spins =     1000000000
(PID.TID 0000.0001) //          Total. X spins =              0
(PID.TID 0000.0001) //            Avg. X spins =       0.00E+00
(PID.TID 0000.0001) //         No. Y exchanges =              0
(PID.TID 0000.0001) //            Max. Y spins =              0
(PID.TID 0000.0001) //            Min. Y spins =     1000000000
(PID.TID 0000.0001) //          Total. Y spins =              0
(PID.TID 0000.0001) //            Avg. Y spins =       0.00E+00
(PID.TID 0000.0001) // o Tile number: 000010
(PID.TID 0000.0001) //         No. X exchanges =              0
(PID.TID 0000.0001) //            Max. X spins =              0
(PID.TID 0000.0001) //            Min. X spins =     1000000000
(PID.TID 0000.0001) //          Total. X spins =              0
(PID.TID 0000.0001) //            Avg. X spins =       0.00E+00
(PID.TID 0000.0001) //         No. Y exchanges =              0
(PID.TID 0000.0001) //            Max. Y spins =              0
(PID.TID 0000.0001) //            Min. Y spins =     1000000000
(PID.TID 0000.0001) //          Total. Y spins =              0
(PID.TID 0000.0001) //            Avg. Y spins =       0.00E+00
(PID.TID 0000.0001) // o Tile number: 000011
(PID.TID 0000.0001) //         No. X exchanges =              0
(PID.TID 0000.0001) //            Max. X spins =              0
(PID.TID 0000.0001) //            Min. X spins =     1000000000
(PID.TID 0000.0001) //          Total. X spins =              0
(PID.TID 0000.0001) //            Avg. X spins =       0.00E+00
(PID.TID 0000.0001) //         No. Y exchanges =              0
(PID.TID 0000.0001) //            Max. Y spins =              0
(PID.TID 0000.0001) //            Min. Y spins =     1000000000
(PID.TID 0000.0001) //          Total. Y spins =              0
(PID.TID 0000.0001) //            Avg. Y spins =       0.00E+00
(PID.TID 0000.0001) // o Tile number: 000012
(PID.TID 0000.0001) //         No. X exchanges =              0
(PID.TID 0000.0001) //            Max. X spins =              0
(PID.TID 0000.0001) //            Min. X spins =     1000000000
(PID.TID 0000.0001) //          Total. X spins =              0
(PID.TID 0000.0001) //            Avg. X spins =       0.00E+00
(PID.TID 0000.0001) //         No. Y exchanges =              0
(PID.TID 0000.0001) //            Max. Y spins =              0
(PID.TID 0000.0001) //            Min. Y spins =     1000000000
(PID.TID 0000.0001) //          Total. Y spins =              0
(PID.TID 0000.0001) //            Avg. Y spins =       0.00E+00
(PID.TID 0000.0001) // o Tile number: 000013
(PID.TID 0000.0001) //         No. X exchanges =              0
(PID.TID 0000.0001) //            Max. X spins =              0
(PID.TID 0000.0001) //            Min. X spins =     1000000000
(PID.TID 0000.0001) //          Total. X spins =              0
(PID.TID 0000.0001) //            Avg. X spins =       0.00E+00
(PID.TID 0000.0001) //         No. Y exchanges =              0
(PID.TID 0000.0001) //            Max. Y spins =              0
(PID.TID 0000.0001) //            Min. Y spins =     1000000000
(PID.TID 0000.0001) //          Total. Y spins =              0
(PID.TID 0000.0001) //            Avg. Y spins =       0.00E+00
(PID.TID 0000.0001) // o Tile number: 000014
(PID.TID 0000.0001) //         No. X exchanges =              0
(PID.TID 0000.0001) //            Max. X spins =              0
(PID.TID 0000.0001) //            Min. X spins =     1000000000
(PID.TID 0000.0001) //          Total. X spins =              0
(PID.TID 0000.0001) //            Avg. X spins =       0.00E+00
(PID.TID 0000.0001) //         No. Y exchanges =              0
(PID.TID 0000.0001) //            Max. Y spins =              0
(PID.TID 0000.0001) //            Min. Y spins =     1000000000
(PID.TID 0000.0001) //          Total. Y spins =              0
(PID.TID 0000.0001) //            Avg. Y spins =       0.00E+00
(PID.TID 0000.0001) // o Tile number: 000015
(PID.TID 0000.0001) //         No. X exchanges =              0
(PID.TID 0000.0001) //            Max. X spins =              0
(PID.TID 0000.0001) //            Min. X spins =     1000000000
(PID.TID 0000.0001) //          Total. X spins =              0
(PID.TID 0000.0001) //            Avg. X spins =       0.00E+00
(PID.TID 0000.0001) //         No. Y exchanges =              0
(PID.TID 0000.0001) //            Max. Y spins =              0
(PID.TID 0000.0001) //            Min. Y spins =     1000000000
(PID.TID 0000.0001) //          Total. Y spins =              0
(PID.TID 0000.0001) //            Avg. Y spins =       0.00E+00
(PID.TID 0000.0001) // o Tile number: 000016
(PID.TID 0000.0001) //         No. X exchanges =              0
(PID.TID 0000.0001) //            Max. X spins =              0
(PID.TID 0000.0001) //            Min. X spins =     1000000000
(PID.TID 0000.0001) //          Total. X spins =              0
(PID.TID 0000.0001) //            Avg. X spins =       0.00E+00
(PID.TID 0000.0001) //         No. Y exchanges =              0
(PID.TID 0000.0001) //            Max. Y spins =              0
(PID.TID 0000.0001) //            Min. Y spins =     1000000000
(PID.TID 0000.0001) //          Total. Y spins =              0
(PID.TID 0000.0001) //            Avg. Y spins =       0.00E+00
(PID.TID 0000.0001) // o Tile number: 000017
(PID.TID 0000.0001) //         No. X exchanges =              0
(PID.TID 0000.0001) //            Max. X spins =              0
(PID.TID 0000.0001) //            Min. X spins =     1000000000
(PID.TID 0000.0001) //          Total. X spins =              0
(PID.TID 0000.0001) //            Avg. X spins =       0.00E+00
(PID.TID 0000.0001) //         No. Y exchanges =              0
(PID.TID 0000.0001) //            Max. Y spins =              0
(PID.TID 0000.0001) //            Min. Y spins =     1000000000
(PID.TID 0000.0001) //          Total. Y spins =              0
(PID.TID 0000.0001) //            Avg. Y spins =       0.00E+00
(PID.TID 0000.0001) // o Tile number: 000018
(PID.TID 0000.0001) //         No. X exchanges =              0
(PID.TID 0000.0001) //            Max. X spins =              0
(PID.TID 0000.0001) //            Min. X spins =     1000000000
(PID.TID 0000.0001) //          Total. X spins =              0
(PID.TID 0000.0001) //            Avg. X spins =       0.00E+00
(PID.TID 0000.0001) //         No. Y exchanges =              0
(PID.TID 0000.0001) //            Max. Y spins =              0
(PID.TID 0000.0001) //            Min. Y spins =     1000000000
(PID.TID 0000.0001) //          Total. Y spins =              0
(PID.TID 0000.0001) //            Avg. Y spins =       0.00E+00
(PID.TID 0000.0001) // o Tile number: 000019
(PID.TID 0000.0001) //         No. X exchanges =              0
(PID.TID 0000.0001) //            Max. X spins =              0
(PID.TID 0000.0001) //            Min. X spins =     1000000000
(PID.TID 0000.0001) //          Total. X spins =              0
(PID.TID 0000.0001) //            Avg. X spins =       0.00E+00
(PID.TID 0000.0001) //         No. Y exchanges =              0
(PID.TID 0000.0001) //            Max. Y spins =              0
(PID.TID 0000.0001) //            Min. Y spins =     1000000000
(PID.TID 0000.0001) //          Total. Y spins =              0
(PID.TID 0000.0001) //            Avg. Y spins =       0.00E+00
(PID.TID 0000.0001) // o Tile number: 000020
(PID.TID 0000.0001) //         No. X exchanges =              0
(PID.TID 0000.0001) //            Max. X spins =              0
(PID.TID 0000.0001) //            Min. X spins =     1000000000
(PID.TID 0000.0001) //          Total. X spins =              0
(PID.TID 0000.0001) //            Avg. X spins =       0.00E+00
(PID.TID 0000.0001) //         No. Y exchanges =              0
(PID.TID 0000.0001) //            Max. Y spins =              0
(PID.TID 0000.0001) //            Min. Y spins =     1000000000
(PID.TID 0000.0001) //          Total. Y spins =              0
(PID.TID 0000.0001) //            Avg. Y spins =       0.00E+00
(PID.TID 0000.0001) // o Tile number: 000021
(PID.TID 0000.0001) //         No. X exchanges =              0
(PID.TID 0000.0001) //            Max. X spins =              0
(PID.TID 0000.0001) //            Min. X spins =     1000000000
(PID.TID 0000.0001) //          Total. X spins =              0
(PID.TID 0000.0001) //            Avg. X spins =       0.00E+00
(PID.TID 0000.0001) //         No. Y exchanges =              0
(PID.TID 0000.0001) //            Max. Y spins =              0
(PID.TID 0000.0001) //            Min. Y spins =     1000000000
(PID.TID 0000.0001) //          Total. Y spins =              0
(PID.TID 0000.0001) //            Avg. Y spins =       0.00E+00
(PID.TID 0000.0001) // o Tile number: 000022
(PID.TID 0000.0001) //         No. X exchanges =              0
(PID.TID 0000.0001) //            Max. X spins =              0
(PID.TID 0000.0001) //            Min. X spins =     1000000000
(PID.TID 0000.0001) //          Total. X spins =              0
(PID.TID 0000.0001) //            Avg. X spins =       0.00E+00
(PID.TID 0000.0001) //         No. Y exchanges =              0
(PID.TID 0000.0001) //            Max. Y spins =              0
(PID.TID 0000.0001) //            Min. Y spins =     1000000000
(PID.TID 0000.0001) //          Total. Y spins =              0
(PID.TID 0000.0001) //            Avg. Y spins =       0.00E+00
(PID.TID 0000.0001) // o Tile number: 000023
(PID.TID 0000.0001) //         No. X exchanges =              0
(PID.TID 0000.0001) //            Max. X spins =              0
(PID.TID 0000.0001) //            Min. X spins =     1000000000
(PID.TID 0000.0001) //          Total. X spins =              0
(PID.TID 0000.0001) //            Avg. X spins =       0.00E+00
(PID.TID 0000.0001) //         No. Y exchanges =              0
(PID.TID 0000.0001) //            Max. Y spins =              0
(PID.TID 0000.0001) //            Min. Y spins =     1000000000
(PID.TID 0000.0001) //          Total. Y spins =              0
(PID.TID 0000.0001) //            Avg. Y spins =       0.00E+00
(PID.TID 0000.0001) // o Tile number: 000024
(PID.TID 0000.0001) //         No. X exchanges =              0
(PID.TID 0000.0001) //            Max. X spins =              0
(PID.TID 0000.0001) //            Min. X spins =     1000000000
(PID.TID 0000.0001) //          Total. X spins =              0
(PID.TID 0000.0001) //            Avg. X spins =       0.00E+00
(PID.TID 0000.0001) //         No. Y exchanges =              0
(PID.TID 0000.0001) //            Max. Y spins =              0
(PID.TID 0000.0001) //            Min. Y spins =     1000000000
(PID.TID 0000.0001) //          Total. Y spins =              0
(PID.TID 0000.0001) //            Avg. Y spins =       0.00E+00
(PID.TID 0000.0001) // o Tile number: 000025
(PID.TID 0000.0001) //         No. X exchanges =              0
(PID.TID 0000.0001) //            Max. X spins =              0
(PID.TID 0000.0001) //            Min. X spins =     1000000000
(PID.TID 0000.0001) //          Total. X spins =              0
(PID.TID 0000.0001) //            Avg. X spins =       0.00E+00
(PID.TID 0000.0001) //         No. Y exchanges =              0
(PID.TID 0000.0001) //            Max. Y spins =              0
(PID.TID 0000.0001) //            Min. Y spins =     1000000000
(PID.TID 0000.0001) //          Total. Y spins =              0
(PID.TID 0000.0001) //            Avg. Y spins =       0.00E+00
(PID.TID 0000.0001) // o Tile number: 000026
(PID.TID 0000.0001) //         No. X exchanges =              0
(PID.TID 0000.0001) //            Max. X spins =              0
(PID.TID 0000.0001) //            Min. X spins =     1000000000
(PID.TID 0000.0001) //          Total. X spins =              0
(PID.TID 0000.0001) //            Avg. X spins =       0.00E+00
(PID.TID 0000.0001) //         No. Y exchanges =              0
(PID.TID 0000.0001) //            Max. Y spins =              0
(PID.TID 0000.0001) //            Min. Y spins =     1000000000
(PID.TID 0000.0001) //          Total. Y spins =              0
(PID.TID 0000.0001) //            Avg. Y spins =       0.00E+00
(PID.TID 0000.0001) // o Tile number: 000027
(PID.TID 0000.0001) //         No. X exchanges =              0
(PID.TID 0000.0001) //            Max. X spins =              0
(PID.TID 0000.0001) //            Min. X spins =     1000000000
(PID.TID 0000.0001) //          Total. X spins =              0
(PID.TID 0000.0001) //            Avg. X spins =       0.00E+00
(PID.TID 0000.0001) //         No. Y exchanges =              0
(PID.TID 0000.0001) //            Max. Y spins =              0
(PID.TID 0000.0001) //            Min. Y spins =     1000000000
(PID.TID 0000.0001) //          Total. Y spins =              0
(PID.TID 0000.0001) //            Avg. Y spins =       0.00E+00
(PID.TID 0000.0001) // o Tile number: 000028
(PID.TID 0000.0001) //         No. X exchanges =              0
(PID.TID 0000.0001) //            Max. X spins =              0
(PID.TID 0000.0001) //            Min. X spins =     1000000000
(PID.TID 0000.0001) //          Total. X spins =              0
(PID.TID 0000.0001) //            Avg. X spins =       0.00E+00
(PID.TID 0000.0001) //         No. Y exchanges =              0
(PID.TID 0000.0001) //            Max. Y spins =              0
(PID.TID 0000.0001) //            Min. Y spins =     1000000000
(PID.TID 0000.0001) //          Total. Y spins =              0
(PID.TID 0000.0001) //            Avg. Y spins =       0.00E+00
(PID.TID 0000.0001) // o Tile number: 000029
(PID.TID 0000.0001) //         No. X exchanges =              0
(PID.TID 0000.0001) //            Max. X spins =              0
(PID.TID 0000.0001) //            Min. X spins =     1000000000
(PID.TID 0000.0001) //          Total. X spins =              0
(PID.TID 0000.0001) //            Avg. X spins =       0.00E+00
(PID.TID 0000.0001) //         No. Y exchanges =              0
(PID.TID 0000.0001) //            Max. Y spins =              0
(PID.TID 0000.0001) //            Min. Y spins =     1000000000
(PID.TID 0000.0001) //          Total. Y spins =              0
(PID.TID 0000.0001) //            Avg. Y spins =       0.00E+00
(PID.TID 0000.0001) // o Tile number: 000030
(PID.TID 0000.0001) //         No. X exchanges =              0
(PID.TID 0000.0001) //            Max. X spins =              0
(PID.TID 0000.0001) //            Min. X spins =     1000000000
(PID.TID 0000.0001) //          Total. X spins =              0
(PID.TID 0000.0001) //            Avg. X spins =       0.00E+00
(PID.TID 0000.0001) //         No. Y exchanges =              0
(PID.TID 0000.0001) //            Max. Y spins =              0
(PID.TID 0000.0001) //            Min. Y spins =     1000000000
(PID.TID 0000.0001) //          Total. Y spins =              0
(PID.TID 0000.0001) //            Avg. Y spins =       0.00E+00
(PID.TID 0000.0001) // o Thread number: 000001
(PID.TID 0000.0001) //            No. barriers =          27970
(PID.TID 0000.0001) //      Max. barrier spins =              1
(PID.TID 0000.0001) //      Min. barrier spins =              1
(PID.TID 0000.0001) //     Total barrier spins =          27970
(PID.TID 0000.0001) //      Avg. barrier spins =       1.00E+00
