(PID.TID 0000.0001) 
(PID.TID 0000.0001) // ======================================================
(PID.TID 0000.0001) //                      MITgcm UV
(PID.TID 0000.0001) //                      =========
(PID.TID 0000.0001) // ======================================================
(PID.TID 0000.0001) // execution environment starting up...
(PID.TID 0000.0001) // Run starting Wed Apr  1 14:19:48 1998
(PID.TID 0000.0001) // on melville.lcs.mit.edu
(PID.TID 0000.0001) // account cnh
(PID.TID 0000.0001) // MITgcm UV Release: $Name:  $
(PID.TID 0000.0001) 
(PID.TID 0000.0001) // =======================================================
(PID.TID 0000.0001) // Execution Environment parameter file "eedata"
(PID.TID 0000.0001) // =======================================================
(PID.TID 0000.0001) ># Example "eedata" file
(PID.TID 0000.0001) ># Lines beginning "#" are comments
(PID.TID 0000.0001) ># nTx - No. threads per process in X
(PID.TID 0000.0001) ># nTy - No. threads per process in Y
(PID.TID 0000.0001) > &EEPARMS
(PID.TID 0000.0001) > &
(PID.TID 0000.0001) ># Note: Some systems use & as the
(PID.TID 0000.0001) ># namelist terminator. Other systems
(PID.TID 0000.0001) ># use a / character (as shown here).
(PID.TID 0000.0001) 
(PID.TID 0000.0001) // =======================================================
(PID.TID 0000.0001) // Computational Grid Specification ( see files "SIZE.h" )
(PID.TID 0000.0001) //                                  ( and "eedata"       )
(PID.TID 0000.0001) // =======================================================
(PID.TID 0000.0001)      nPx =    1 ; /* No. processes in X */
(PID.TID 0000.0001)      nPy =    1 ; /* No. processes in Y */
(PID.TID 0000.0001)      nSx =   10 ; /* No. tiles in X per process */
(PID.TID 0000.0001)      nSy =    3 ; /* No. tiles in Y per process */
(PID.TID 0000.0001)      sNx =   20 ; /* Tile size in X */
(PID.TID 0000.0001)      sNy =   15 ; /* Tile size in Y */
(PID.TID 0000.0001)      OLx =    3 ; /* Tile overlap distance in X */
(PID.TID 0000.0001)      OLy =    3 ; /* Tile overlap distance in Y */
(PID.TID 0000.0001)      nTx =    1 ; /* No. threads in X per process */
(PID.TID 0000.0001)      nTy =    1 ; /* No. threads in Y per process */
(PID.TID 0000.0001)       Nr =   25 ; /* No. levels in the vertical   */
(PID.TID 0000.0001)       nX =  200 ; /* Total domain size in X ( = nPx*nSx*sNx ) */
(PID.TID 0000.0001)       nY =   45 ; /* Total domain size in Y ( = nPy*nSy*sNy ) */
(PID.TID 0000.0001)   nTiles =   30 ; /* Total no. tiles per process ( = nSx*nSy ) */
(PID.TID 0000.0001)   nProcs =    1 ; /* Total no. processes ( = nPx*nPy ) */
(PID.TID 0000.0001) nThreads =    1 ; /* Total no. threads per process ( = nTx*nTy ) */
(PID.TID 0000.0001) usingMPI =    F ; /* Flag used to control whether MPI is in use */
(PID.TID 0000.0001)                   /*  note: To execute a program with MPI calls */
(PID.TID 0000.0001)                   /*  it must be launched appropriately e.g     */
(PID.TID 0000.0001)                   /*  "mpirun -np 64 ......"                    */
(PID.TID 0000.0001) useCoupler=   F ; /* Flag used to control communications with */
(PID.TID 0000.0001)                   /*  other model components, through a coupler */
(PID.TID 0000.0001) 
(PID.TID 0000.0001) // ======================================================
(PID.TID 0000.0001) // Mapping of tiles to threads
(PID.TID 0000.0001) // ======================================================
(PID.TID 0000.0001) // -o- Thread   1, tiles (   1:  10,   1:   3)
(PID.TID 0000.0001) 
(PID.TID 0000.0001) // ======================================================
(PID.TID 0000.0001) // Tile <-> Tile connectvity table
(PID.TID 0000.0001) // ======================================================
(PID.TID 0000.0001) // Tile number: 000001 (process no. = 000001)
(PID.TID 0000.0001) //        WEST: Tile = 000010, Process = 000001, Comm = put
(PID.TID 0000.0001) //                bi = 000010, bj = 000001
(PID.TID 0000.0001) //        EAST: Tile = 000002, Process = 000001, Comm = put
(PID.TID 0000.0001) //                bi = 000002, bj = 000001
(PID.TID 0000.0001) //       SOUTH: Tile = 000021, Process = 000001, Comm = put
(PID.TID 0000.0001) //                bi = 000001, bj = 000003
(PID.TID 0000.0001) //       NORTH: Tile = 000011, Process = 000001, Comm = put
(PID.TID 0000.0001) //                bi = 000001, bj = 000002
(PID.TID 0000.0001) // Tile number: 000002 (process no. = 000001)
(PID.TID 0000.0001) //        WEST: Tile = 000001, Process = 000001, Comm = put
(PID.TID 0000.0001) //                bi = 000001, bj = 000001
(PID.TID 0000.0001) //        EAST: Tile = 000003, Process = 000001, Comm = put
(PID.TID 0000.0001) //                bi = 000003, bj = 000001
(PID.TID 0000.0001) //       SOUTH: Tile = 000022, Process = 000001, Comm = put
(PID.TID 0000.0001) //                bi = 000002, bj = 000003
(PID.TID 0000.0001) //       NORTH: Tile = 000012, Process = 000001, Comm = put
(PID.TID 0000.0001) //                bi = 000002, bj = 000002
(PID.TID 0000.0001) // Tile number: 000003 (process no. = 000001)
(PID.TID 0000.0001) //        WEST: Tile = 000002, Process = 000001, Comm = put
(PID.TID 0000.0001) //                bi = 000002, bj = 000001
(PID.TID 0000.0001) //        EAST: Tile = 000004, Process = 000001, Comm = put
(PID.TID 0000.0001) //                bi = 000004, bj = 000001
(PID.TID 0000.0001) //       SOUTH: Tile = 000023, Process = 000001, Comm = put
(PID.TID 0000.0001) //                bi = 000003, bj = 000003
(PID.TID 0000.0001) //       NORTH: Tile = 000013, Process = 000001, Comm = put
(PID.TID 0000.0001) //                bi = 000003, bj = 000002
(PID.TID 0000.0001) // Tile number: 000004 (process no. = 000001)
(PID.TID 0000.0001) //        WEST: Tile = 000003, Process = 000001, Comm = put
(PID.TID 0000.0001) //                bi = 000003, bj = 000001
(PID.TID 0000.0001) //        EAST: Tile = 000005, Process = 000001, Comm = put
(PID.TID 0000.0001) //                bi = 000005, bj = 000001
(PID.TID 0000.0001) //       SOUTH: Tile = 000024, Process = 000001, Comm = put
(PID.TID 0000.0001) //                bi = 000004, bj = 000003
(PID.TID 0000.0001) //       NORTH: Tile = 000014, Process = 000001, Comm = put
(PID.TID 0000.0001) //                bi = 000004, bj = 000002
(PID.TID 0000.0001) // Tile number: 000005 (process no. = 000001)
(PID.TID 0000.0001) //        WEST: Tile = 000004, Process = 000001, Comm = put
(PID.TID 0000.0001) //                bi = 000004, bj = 000001
(PID.TID 0000.0001) //        EAST: Tile = 000006, Process = 000001, Comm = put
(PID.TID 0000.0001) //                bi = 000006, bj = 000001
(PID.TID 0000.0001) //       SOUTH: Tile = 000025, Process = 000001, Comm = put
(PID.TID 0000.0001) //                bi = 000005, bj = 000003
(PID.TID 0000.0001) //       NORTH: Tile = 000015, Process = 000001, Comm = put
(PID.TID 0000.0001) //                bi = 000005, bj = 000002
(PID.TID 0000.0001) // Tile number: 000006 (process no. = 000001)
(PID.TID 0000.0001) //        WEST: Tile = 000005, Process = 000001, Comm = put
(PID.TID 0000.0001) //                bi = 000005, bj = 000001
(PID.TID 0000.0001) //        EAST: Tile = 000007, Process = 000001, Comm = put
(PID.TID 0000.0001) //                bi = 000007, bj = 000001
(PID.TID 0000.0001) //       SOUTH: Tile = 000026, Process = 000001, Comm = put
(PID.TID 0000.0001) //                bi = 000006, bj = 000003
(PID.TID 0000.0001) //       NORTH: Tile = 000016, Process = 000001, Comm = put
(PID.TID 0000.0001) //                bi = 000006, bj = 000002
(PID.TID 0000.0001) // Tile number: 000007 (process no. = 000001)
(PID.TID 0000.0001) //        WEST: Tile = 000006, Process = 000001, Comm = put
(PID.TID 0000.0001) //                bi = 000006, bj = 000001
(PID.TID 0000.0001) //        EAST: Tile = 000008, Process = 000001, Comm = put
(PID.TID 0000.0001) //                bi = 000008, bj = 000001
(PID.TID 0000.0001) //       SOUTH: Tile = 000027, Process = 000001, Comm = put
(PID.TID 0000.0001) //                bi = 000007, bj = 000003
(PID.TID 0000.0001) //       NORTH: Tile = 000017, Process = 000001, Comm = put
(PID.TID 0000.0001) //                bi = 000007, bj = 000002
(PID.TID 0000.0001) // Tile number: 000008 (process no. = 000001)
(PID.TID 0000.0001) //        WEST: Tile = 000007, Process = 000001, Comm = put
(PID.TID 0000.0001) //                bi = 000007, bj = 000001
(PID.TID 0000.0001) //        EAST: Tile = 000009, Process = 000001, Comm = put
(PID.TID 0000.0001) //                bi = 000009, bj = 000001
(PID.TID 0000.0001) //       SOUTH: Tile = 000028, Process = 000001, Comm = put
(PID.TID 0000.0001) //                bi = 000008, bj = 000003
(PID.TID 0000.0001) //       NORTH: Tile = 000018, Process = 000001, Comm = put
(PID.TID 0000.0001) //                bi = 000008, bj = 000002
(PID.TID 0000.0001) // Tile number: 000009 (process no. = 000001)
(PID.TID 0000.0001) //        WEST: Tile = 000008, Process = 000001, Comm = put
(PID.TID 0000.0001) //                bi = 000008, bj = 000001
(PID.TID 0000.0001) //        EAST: Tile = 000010, Process = 000001, Comm = put
(PID.TID 0000.0001) //                bi = 000010, bj = 000001
(PID.TID 0000.0001) //       SOUTH: Tile = 000029, Process = 000001, Comm = put
(PID.TID 0000.0001) //                bi = 000009, bj = 000003
(PID.TID 0000.0001) //       NORTH: Tile = 000019, Process = 000001, Comm = put
(PID.TID 0000.0001) //                bi = 000009, bj = 000002
(PID.TID 0000.0001) // Tile number: 000010 (process no. = 000001)
(PID.TID 0000.0001) //        WEST: Tile = 000009, Process = 000001, Comm = put
(PID.TID 0000.0001) //                bi = 000009, bj = 000001
(PID.TID 0000.0001) //        EAST: Tile = 000001, Process = 000001, Comm = put
(PID.TID 0000.0001) //                bi = 000001, bj = 000001
(PID.TID 0000.0001) //       SOUTH: Tile = 000030, Process = 000001, Comm = put
(PID.TID 0000.0001) //                bi = 000010, bj = 000003
(PID.TID 0000.0001) //       NORTH: Tile = 000020, Process = 000001, Comm = put
(PID.TID 0000.0001) //                bi = 000010, bj = 000002
(PID.TID 0000.0001) // Tile number: 000011 (process no. = 000001)
(PID.TID 0000.0001) //        WEST: Tile = 000020, Process = 000001, Comm = put
(PID.TID 0000.0001) //                bi = 000010, bj = 000002
(PID.TID 0000.0001) //        EAST: Tile = 000012, Process = 000001, Comm = put
(PID.TID 0000.0001) //                bi = 000002, bj = 000002
(PID.TID 0000.0001) //       SOUTH: Tile = 000001, Process = 000001, Comm = put
(PID.TID 0000.0001) //                bi = 000001, bj = 000001
(PID.TID 0000.0001) //       NORTH: Tile = 000021, Process = 000001, Comm = put
(PID.TID 0000.0001) //                bi = 000001, bj = 000003
(PID.TID 0000.0001) // Tile number: 000012 (process no. = 000001)
(PID.TID 0000.0001) //        WEST: Tile = 000011, Process = 000001, Comm = put
(PID.TID 0000.0001) //                bi = 000001, bj = 000002
(PID.TID 0000.0001) //        EAST: Tile = 000013, Process = 000001, Comm = put
(PID.TID 0000.0001) //                bi = 000003, bj = 000002
(PID.TID 0000.0001) //       SOUTH: Tile = 000002, Process = 000001, Comm = put
(PID.TID 0000.0001) //                bi = 000002, bj = 000001
(PID.TID 0000.0001) //       NORTH: Tile = 000022, Process = 000001, Comm = put
(PID.TID 0000.0001) //                bi = 000002, bj = 000003
(PID.TID 0000.0001) // Tile number: 000013 (process no. = 000001)
(PID.TID 0000.0001) //        WEST: Tile = 000012, Process = 000001, Comm = put
(PID.TID 0000.0001) //                bi = 000002, bj = 000002
(PID.TID 0000.0001) //        EAST: Tile = 000014, Process = 000001, Comm = put
(PID.TID 0000.0001) //                bi = 000004, bj = 000002
(PID.TID 0000.0001) //       SOUTH: Tile = 000003, Process = 000001, Comm = put
(PID.TID 0000.0001) //                bi = 000003, bj = 000001
(PID.TID 0000.0001) //       NORTH: Tile = 000023, Process = 000001, Comm = put
(PID.TID 0000.0001) //                bi = 000003, bj = 000003
(PID.TID 0000.0001) // Tile number: 000014 (process no. = 000001)
(PID.TID 0000.0001) //        WEST: Tile = 000013, Process = 000001, Comm = put
(PID.TID 0000.0001) //                bi = 000003, bj = 000002
(PID.TID 0000.0001) //        EAST: Tile = 000015, Process = 000001, Comm = put
(PID.TID 0000.0001) //                bi = 000005, bj = 000002
(PID.TID 0000.0001) //       SOUTH: Tile = 000004, Process = 000001, Comm = put
(PID.TID 0000.0001) //                bi = 000004, bj = 000001
(PID.TID 0000.0001) //       NORTH: Tile = 000024, Process = 000001, Comm = put
(PID.TID 0000.0001) //                bi = 000004, bj = 000003
(PID.TID 0000.0001) // Tile number: 000015 (process no. = 000001)
(PID.TID 0000.0001) //        WEST: Tile = 000014, Process = 000001, Comm = put
(PID.TID 0000.0001) //                bi = 000004, bj = 000002
(PID.TID 0000.0001) //        EAST: Tile = 000016, Process = 000001, Comm = put
(PID.TID 0000.0001) //                bi = 000006, bj = 000002
(PID.TID 0000.0001) //       SOUTH: Tile = 000005, Process = 000001, Comm = put
(PID.TID 0000.0001) //                bi = 000005, bj = 000001
(PID.TID 0000.0001) //       NORTH: Tile = 000025, Process = 000001, Comm = put
(PID.TID 0000.0001) //                bi = 000005, bj = 000003
(PID.TID 0000.0001) // Tile number: 000016 (process no. = 000001)
(PID.TID 0000.0001) //        WEST: Tile = 000015, Process = 000001, Comm = put
(PID.TID 0000.0001) //                bi = 000005, bj = 000002
(PID.TID 0000.0001) //        EAST: Tile = 000017, Process = 000001, Comm = put
(PID.TID 0000.0001) //                bi = 000007, bj = 000002
(PID.TID 0000.0001) //       SOUTH: Tile = 000006, Process = 000001, Comm = put
(PID.TID 0000.0001) //                bi = 000006, bj = 000001
(PID.TID 0000.0001) //       NORTH: Tile = 000026, Process = 000001, Comm = put
(PID.TID 0000.0001) //                bi = 000006, bj = 000003
(PID.TID 0000.0001) // Tile number: 000017 (process no. = 000001)
(PID.TID 0000.0001) //        WEST: Tile = 000016, Process = 000001, Comm = put
(PID.TID 0000.0001) //                bi = 000006, bj = 000002
(PID.TID 0000.0001) //        EAST: Tile = 000018, Process = 000001, Comm = put
(PID.TID 0000.0001) //                bi = 000008, bj = 000002
(PID.TID 0000.0001) //       SOUTH: Tile = 000007, Process = 000001, Comm = put
(PID.TID 0000.0001) //                bi = 000007, bj = 000001
(PID.TID 0000.0001) //       NORTH: Tile = 000027, Process = 000001, Comm = put
(PID.TID 0000.0001) //                bi = 000007, bj = 000003
(PID.TID 0000.0001) // Tile number: 000018 (process no. = 000001)
(PID.TID 0000.0001) //        WEST: Tile = 000017, Process = 000001, Comm = put
(PID.TID 0000.0001) //                bi = 000007, bj = 000002
(PID.TID 0000.0001) //        EAST: Tile = 000019, Process = 000001, Comm = put
(PID.TID 0000.0001) //                bi = 000009, bj = 000002
(PID.TID 0000.0001) //       SOUTH: Tile = 000008, Process = 000001, Comm = put
(PID.TID 0000.0001) //                bi = 000008, bj = 000001
(PID.TID 0000.0001) //       NORTH: Tile = 000028, Process = 000001, Comm = put
(PID.TID 0000.0001) //                bi = 000008, bj = 000003
(PID.TID 0000.0001) // Tile number: 000019 (process no. = 000001)
(PID.TID 0000.0001) //        WEST: Tile = 000018, Process = 000001, Comm = put
(PID.TID 0000.0001) //                bi = 000008, bj = 000002
(PID.TID 0000.0001) //        EAST: Tile = 000020, Process = 000001, Comm = put
(PID.TID 0000.0001) //                bi = 000010, bj = 000002
(PID.TID 0000.0001) //       SOUTH: Tile = 000009, Process = 000001, Comm = put
(PID.TID 0000.0001) //                bi = 000009, bj = 000001
(PID.TID 0000.0001) //       NORTH: Tile = 000029, Process = 000001, Comm = put
(PID.TID 0000.0001) //                bi = 000009, bj = 000003
(PID.TID 0000.0001) // Tile number: 000020 (process no. = 000001)
(PID.TID 0000.0001) //        WEST: Tile = 000019, Process = 000001, Comm = put
(PID.TID 0000.0001) //                bi = 000009, bj = 000002
(PID.TID 0000.0001) //        EAST: Tile = 000011, Process = 000001, Comm = put
(PID.TID 0000.0001) //                bi = 000001, bj = 000002
(PID.TID 0000.0001) //       SOUTH: Tile = 000010, Process = 000001, Comm = put
(PID.TID 0000.0001) //                bi = 000010, bj = 000001
(PID.TID 0000.0001) //       NORTH: Tile = 000030, Process = 000001, Comm = put
(PID.TID 0000.0001) //                bi = 000010, bj = 000003
(PID.TID 0000.0001) // Tile number: 000021 (process no. = 000001)
(PID.TID 0000.0001) //        WEST: Tile = 000030, Process = 000001, Comm = put
(PID.TID 0000.0001) //                bi = 000010, bj = 000003
(PID.TID 0000.0001) //        EAST: Tile = 000022, Process = 000001, Comm = put
(PID.TID 0000.0001) //                bi = 000002, bj = 000003
(PID.TID 0000.0001) //       SOUTH: Tile = 000011, Process = 000001, Comm = put
(PID.TID 0000.0001) //                bi = 000001, bj = 000002
(PID.TID 0000.0001) //       NORTH: Tile = 000001, Process = 000001, Comm = put
(PID.TID 0000.0001) //                bi = 000001, bj = 000001
(PID.TID 0000.0001) // Tile number: 000022 (process no. = 000001)
(PID.TID 0000.0001) //        WEST: Tile = 000021, Process = 000001, Comm = put
(PID.TID 0000.0001) //                bi = 000001, bj = 000003
(PID.TID 0000.0001) //        EAST: Tile = 000023, Process = 000001, Comm = put
(PID.TID 0000.0001) //                bi = 000003, bj = 000003
(PID.TID 0000.0001) //       SOUTH: Tile = 000012, Process = 000001, Comm = put
(PID.TID 0000.0001) //                bi = 000002, bj = 000002
(PID.TID 0000.0001) //       NORTH: Tile = 000002, Process = 000001, Comm = put
(PID.TID 0000.0001) //                bi = 000002, bj = 000001
(PID.TID 0000.0001) // Tile number: 000023 (process no. = 000001)
(PID.TID 0000.0001) //        WEST: Tile = 000022, Process = 000001, Comm = put
(PID.TID 0000.0001) //                bi = 000002, bj = 000003
(PID.TID 0000.0001) //        EAST: Tile = 000024, Process = 000001, Comm = put
(PID.TID 0000.0001) //                bi = 000004, bj = 000003
(PID.TID 0000.0001) //       SOUTH: Tile = 000013, Process = 000001, Comm = put
(PID.TID 0000.0001) //                bi = 000003, bj = 000002
(PID.TID 0000.0001) //       NORTH: Tile = 000003, Process = 000001, Comm = put
(PID.TID 0000.0001) //                bi = 000003, bj = 000001
(PID.TID 0000.0001) // Tile number: 000024 (process no. = 000001)
(PID.TID 0000.0001) //        WEST: Tile = 000023, Process = 000001, Comm = put
(PID.TID 0000.0001) //                bi = 000003, bj = 000003
(PID.TID 0000.0001) //        EAST: Tile = 000025, Process = 000001, Comm = put
(PID.TID 0000.0001) //                bi = 000005, bj = 000003
(PID.TID 0000.0001) //       SOUTH: Tile = 000014, Process = 000001, Comm = put
(PID.TID 0000.0001) //                bi = 000004, bj = 000002
(PID.TID 0000.0001) //       NORTH: Tile = 000004, Process = 000001, Comm = put
(PID.TID 0000.0001) //                bi = 000004, bj = 000001
(PID.TID 0000.0001) // Tile number: 000025 (process no. = 000001)
(PID.TID 0000.0001) //        WEST: Tile = 000024, Process = 000001, Comm = put
(PID.TID 0000.0001) //                bi = 000004, bj = 000003
(PID.TID 0000.0001) //        EAST: Tile = 000026, Process = 000001, Comm = put
(PID.TID 0000.0001) //                bi = 000006, bj = 000003
(PID.TID 0000.0001) //       SOUTH: Tile = 000015, Process = 000001, Comm = put
(PID.TID 0000.0001) //                bi = 000005, bj = 000002
(PID.TID 0000.0001) //       NORTH: Tile = 000005, Process = 000001, Comm = put
(PID.TID 0000.0001) //                bi = 000005, bj = 000001
(PID.TID 0000.0001) // Tile number: 000026 (process no. = 000001)
(PID.TID 0000.0001) //        WEST: Tile = 000025, Process = 000001, Comm = put
(PID.TID 0000.0001) //                bi = 000005, bj = 000003
(PID.TID 0000.0001) //        EAST: Tile = 000027, Process = 000001, Comm = put
(PID.TID 0000.0001) //                bi = 000007, bj = 000003
(PID.TID 0000.0001) //       SOUTH: Tile = 000016, Process = 000001, Comm = put
(PID.TID 0000.0001) //                bi = 000006, bj = 000002
(PID.TID 0000.0001) //       NORTH: Tile = 000006, Process = 000001, Comm = put
(PID.TID 0000.0001) //                bi = 000006, bj = 000001
(PID.TID 0000.0001) // Tile number: 000027 (process no. = 000001)
(PID.TID 0000.0001) //        WEST: Tile = 000026, Process = 000001, Comm = put
(PID.TID 0000.0001) //                bi = 000006, bj = 000003
(PID.TID 0000.0001) //        EAST: Tile = 000028, Process = 000001, Comm = put
(PID.TID 0000.0001) //                bi = 000008, bj = 000003
(PID.TID 0000.0001) //       SOUTH: Tile = 000017, Process = 000001, Comm = put
(PID.TID 0000.0001) //                bi = 000007, bj = 000002
(PID.TID 0000.0001) //       NORTH: Tile = 000007, Process = 000001, Comm = put
(PID.TID 0000.0001) //                bi = 000007, bj = 000001
(PID.TID 0000.0001) // Tile number: 000028 (process no. = 000001)
(PID.TID 0000.0001) //        WEST: Tile = 000027, Process = 000001, Comm = put
(PID.TID 0000.0001) //                bi = 000007, bj = 000003
(PID.TID 0000.0001) //        EAST: Tile = 000029, Process = 000001, Comm = put
(PID.TID 0000.0001) //                bi = 000009, bj = 000003
(PID.TID 0000.0001) //       SOUTH: Tile = 000018, Process = 000001, Comm = put
(PID.TID 0000.0001) //                bi = 000008, bj = 000002
(PID.TID 0000.0001) //       NORTH: Tile = 000008, Process = 000001, Comm = put
(PID.TID 0000.0001) //                bi = 000008, bj = 000001
(PID.TID 0000.0001) // Tile number: 000029 (process no. = 000001)
(PID.TID 0000.0001) //        WEST: Tile = 000028, Process = 000001, Comm = put
(PID.TID 0000.0001) //                bi = 000008, bj = 000003
(PID.TID 0000.0001) //        EAST: Tile = 000030, Process = 000001, Comm = put
(PID.TID 0000.0001) //                bi = 000010, bj = 000003
(PID.TID 0000.0001) //       SOUTH: Tile = 000019, Process = 000001, Comm = put
(PID.TID 0000.0001) //                bi = 000009, bj = 000002
(PID.TID 0000.0001) //       NORTH: Tile = 000009, Process = 000001, Comm = put
(PID.TID 0000.0001) //                bi = 000009, bj = 000001
(PID.TID 0000.0001) // Tile number: 000030 (process no. = 000001)
(PID.TID 0000.0001) //        WEST: Tile = 000029, Process = 000001, Comm = put
(PID.TID 0000.0001) //                bi = 000009, bj = 000003
(PID.TID 0000.0001) //        EAST: Tile = 000021, Process = 000001, Comm = put
(PID.TID 0000.0001) //                bi = 000001, bj = 000003
(PID.TID 0000.0001) //       SOUTH: Tile = 000020, Process = 000001, Comm = put
(PID.TID 0000.0001) //                bi = 000010, bj = 000002
(PID.TID 0000.0001) //       NORTH: Tile = 000010, Process = 000001, Comm = put
(PID.TID 0000.0001) //                bi = 000010, bj = 000001
(PID.TID 0000.0001) 
(PID.TID 0000.0001) // =======================================================
(PID.TID 0000.0001) // Model parameter file "data"
(PID.TID 0000.0001) // =======================================================
(PID.TID 0000.0001) ># ====================
(PID.TID 0000.0001) ># | Model parameters |
(PID.TID 0000.0001) ># ====================
(PID.TID 0000.0001) >#
(PID.TID 0000.0001) ># Continuous equation parameters
(PID.TID 0000.0001) > &PARM01
(PID.TID 0000.0001) > Tref = -0.194175, -0.582524, -0.970874, -1.35922, -1.74757,
(PID.TID 0000.0001) >        -2.13592, -2.52427, -2.91262, -3.30097, -3.68932,
(PID.TID 0000.0001) >	-4.07767, -4.46602, -4.85437, -5.24272, -5.63107,
(PID.TID 0000.0001) >	-6.01942, -6.40777, -6.79612, -7.18447, -7.57282,
(PID.TID 0000.0001) >	-7.96117, -8.34951, -8.73786, -9.12621, -9.51456,
(PID.TID 0000.0001) > sRef= 25*1.,
(PID.TID 0000.0001) > viscAz=5.E-1,
(PID.TID 0000.0001) > viscAh=0.0E0,
(PID.TID 0000.0001) > no_slip_sides=.TRUE.,
(PID.TID 0000.0001) > no_slip_bottom=.TRUE.,
(PID.TID 0000.0001) > bottomDragQuadratic=2.E-3,
(PID.TID 0000.0001) > viscA4=0.E12,
(PID.TID 0000.0001) > viscC4Leith=0.1,
(PID.TID 0000.0001) > diffKhT=0.0E0
(PID.TID 0000.0001) > diffKzT=0.E-2,
(PID.TID 0000.0001) > diffKhS=0.E0,
(PID.TID 0000.0001) > diffKzS=0.E-2,
(PID.TID 0000.0001) > f0=1.0e-4,
(PID.TID 0000.0001) > beta=0.E-11,
(PID.TID 0000.0001) > tAlpha=2.E-4,
(PID.TID 0000.0001) > sBeta =0.E-4,
(PID.TID 0000.0001) > gravity=9.81,
(PID.TID 0000.0001) > rhonil=1030.0,
(PID.TID 0000.0001) > rigidLid=.FALSE.,
(PID.TID 0000.0001) > implicitFreeSurface=.TRUE.,
(PID.TID 0000.0001) > eosType='LINEAR',
(PID.TID 0000.0001) > hFacMin=0.2,
(PID.TID 0000.0001) > nonHydrostatic=.FALSE.,
(PID.TID 0000.0001) > multiDimAdvection=.TRUE.,
(PID.TID 0000.0001) > tempAdvScheme=77,
(PID.TID 0000.0001) > saltAdvScheme=77,
(PID.TID 0000.0001) > tracerAdvScheme=77,
(PID.TID 0000.0001) > readBinaryPrec=64,
(PID.TID 0000.0001) > writeBinaryPrec=64,
(PID.TID 0000.0001) > writeStatePrec=64,
(PID.TID 0000.0001) > globalFiles=.TRUE.,
(PID.TID 0000.0001) > staggerTimeStep=.TRUE.,
(PID.TID 0000.0001) > &
(PID.TID 0000.0001) >
(PID.TID 0000.0001) ># Elliptic solver parameters
(PID.TID 0000.0001) > &PARM02
(PID.TID 0000.0001) > cg2dMaxIters=1000,
(PID.TID 0000.0001) > cg2dTargetResidual=1.E-11,
(PID.TID 0000.0001) > cg3dMaxIters=10,
(PID.TID 0000.0001) > cg3dTargetResidual=1.E-13,
(PID.TID 0000.0001) > &
(PID.TID 0000.0001) >
(PID.TID 0000.0001) ># Time stepping parameters
(PID.TID 0000.0001) > &PARM03
(PID.TID 0000.0001) > niter0=0,
(PID.TID 0000.0001) >#nTimeSteps=12000,
(PID.TID 0000.0001) > nTimeSteps=20,
(PID.TID 0000.0001) > deltaT=300.,
(PID.TID 0000.0001) > abEps=0.1,
(PID.TID 0000.0001) > pChkptFreq=0.0,
(PID.TID 0000.0001) > chkptFreq=100000.0,
(PID.TID 0000.0001) > dumpFreq=30000.,
(PID.TID 0000.0001) >#cAdjFreq=30.,
(PID.TID 0000.0001) >#monitorFreq=6000.,
(PID.TID 0000.0001) > monitorFreq=300.,
(PID.TID 0000.0001) > &
(PID.TID 0000.0001) >
(PID.TID 0000.0001) ># Gridding parameters
(PID.TID 0000.0001) > &PARM04
(PID.TID 0000.0001) > usingCartesianGrid=.TRUE.,
(PID.TID 0000.0001) > usingSphericalPolarGrid=.FALSE.,
(PID.TID 0000.0001) ># delXfile='delXvar'
(PID.TID 0000.0001) > delX=200*10000.0,
(PID.TID 0000.0001) > delYfile='delYvar',
(PID.TID 0000.0001) > delZ = 25*144.0,
(PID.TID 0000.0001) > &
(PID.TID 0000.0001) >
(PID.TID 0000.0001) ># Input datasets
(PID.TID 0000.0001) > &PARM05
(PID.TID 0000.0001) > hydrogThetaFile='T.init',
(PID.TID 0000.0001) > bathyFile='topog.slope',
(PID.TID 0000.0001) > &
(PID.TID 0000.0001) 
(PID.TID 0000.0001) S/R INI_PARMS ; read PARM01 : OK
(PID.TID 0000.0001) S/R INI_PARMS ; read PARM02 : OK
(PID.TID 0000.0001) S/R INI_PARMS ; read PARM03 : OK
(PID.TID 0000.0001) S/R INI_PARMS ; read PARM04 : OK
(PID.TID 0000.0001) S/R INI_PARMS ; read PARM05 : OK
(PID.TID 0000.0001) %MON XC_max                       =   1.9950000000000E+06
(PID.TID 0000.0001) %MON XC_min                       =   5.0000000000000E+03
(PID.TID 0000.0001) %MON XC_mean                      =   1.0000000000000E+06
(PID.TID 0000.0001) %MON XC_sd                        =   5.7734305226615E+05
(PID.TID 0000.0001) %MON XG_max                       =   1.9900000000000E+06
(PID.TID 0000.0001) %MON XG_min                       =   1.0000000000000E+04
(PID.TID 0000.0001) %MON XG_mean                      =   1.0000000000000E+06
(PID.TID 0000.0001) %MON XG_sd                        =   5.7445626465380E+05
(PID.TID 0000.0001) %MON DXC_max                      =   1.0000000000000E+04
(PID.TID 0000.0001) %MON DXC_min                      =   1.0000000000000E+04
(PID.TID 0000.0001) %MON DXC_mean                     =   1.0000000000000E+04
(PID.TID 0000.0001) %MON DXC_sd                       =   0.0000000000000E+00
(PID.TID 0000.0001) %MON DXF_max                      =   1.0000000000000E+04
(PID.TID 0000.0001) %MON DXF_min                      =   1.0000000000000E+04
(PID.TID 0000.0001) %MON DXF_mean                     =   1.0000000000000E+04
(PID.TID 0000.0001) %MON DXF_sd                       =   0.0000000000000E+00
(PID.TID 0000.0001) %MON DXG_max                      =   1.0000000000000E+04
(PID.TID 0000.0001) %MON DXG_min                      =   1.0000000000000E+04
(PID.TID 0000.0001) %MON DXG_mean                     =   1.0000000000000E+04
(PID.TID 0000.0001) %MON DXG_sd                       =   0.0000000000000E+00
(PID.TID 0000.0001) %MON DXV_max                      =   1.0000000000000E+04
(PID.TID 0000.0001) %MON DXV_min                      =   1.0000000000000E+04
(PID.TID 0000.0001) %MON DXV_mean                     =   1.0000000000000E+04
(PID.TID 0000.0001) %MON DXV_sd                       =   0.0000000000000E+00
(PID.TID 0000.0001) %MON YC_max                       =   5.9499999998863E+05
(PID.TID 0000.0001) %MON YC_min                       =   2.1773852061364E+04
(PID.TID 0000.0001) %MON YC_mean                      =   3.6568248764828E+05
(PID.TID 0000.0001) %MON YC_sd                        =   1.4616293187418E+05
(PID.TID 0000.0001) %MON YG_max                       =   5.8999999997725E+05
(PID.TID 0000.0001) %MON YG_min                       =  -1.8189894035459E-12
(PID.TID 0000.0001) %MON YG_mean                      =   3.5901582098162E+05
(PID.TID 0000.0001) %MON YG_sd                        =   1.4918819495542E+05
(PID.TID 0000.0001) %MON DYC_max                      =   4.1655495879012E+04
(PID.TID 0000.0001) %MON DYC_min                      =   1.0000000030126E+04
(PID.TID 0000.0001) %MON DYC_mean                     =   1.3333333333333E+04
(PID.TID 0000.0001) %MON DYC_sd                       =   7.9859471312509E+03
(PID.TID 0000.0001) %MON DYF_max                      =   4.3547704122728E+04
(PID.TID 0000.0001) %MON DYF_min                      =   1.0000000022748E+04
(PID.TID 0000.0001) %MON DYF_mean                     =   1.3333333333333E+04
(PID.TID 0000.0001) %MON DYF_sd                       =   8.4257600310479E+03
(PID.TID 0000.0001) %MON DYG_max                      =   4.3547704122728E+04
(PID.TID 0000.0001) %MON DYG_min                      =   1.0000000022748E+04
(PID.TID 0000.0001) %MON DYG_mean                     =   1.3333333333333E+04
(PID.TID 0000.0001) %MON DYG_sd                       =   8.4257600310479E+03
(PID.TID 0000.0001) %MON DYU_max                      =   4.1655495879012E+04
(PID.TID 0000.0001) %MON DYU_min                      =   1.0000000030126E+04
(PID.TID 0000.0001) %MON DYU_mean                     =   1.3333333333333E+04
(PID.TID 0000.0001) %MON DYU_sd                       =   7.9859471312509E+03
(PID.TID 0000.0001) %MON RA_max                       =   4.3547704122728E+08
(PID.TID 0000.0001) %MON RA_min                       =   1.0000000022748E+08
(PID.TID 0000.0001) %MON RA_mean                      =   1.3333333333333E+08
(PID.TID 0000.0001) %MON RA_sd                        =   8.4257600310479E+07
(PID.TID 0000.0001) %MON RAW_max                      =   4.3547704122728E+08
(PID.TID 0000.0001) %MON RAW_min                      =   1.0000000022748E+08
(PID.TID 0000.0001) %MON RAW_mean                     =   1.3333333333333E+08
(PID.TID 0000.0001) %MON RAW_sd                       =   8.4257600310479E+07
(PID.TID 0000.0001) %MON RAS_max                      =   4.1655495879012E+08
(PID.TID 0000.0001) %MON RAS_min                      =   1.0000000030126E+08
(PID.TID 0000.0001) %MON RAS_mean                     =   1.3333333333333E+08
(PID.TID 0000.0001) %MON RAS_sd                       =   7.9859471312509E+07
(PID.TID 0000.0001) %MON RAZ_max                      =   4.1655495879012E+08
(PID.TID 0000.0001) %MON RAZ_min                      =   1.0000000030126E+08
(PID.TID 0000.0001) %MON RAZ_mean                     =   1.3333333333333E+08
(PID.TID 0000.0001) %MON RAZ_sd                       =   7.9859471312509E+07
(PID.TID 0000.0001)  MDSREADFIELD: opening global file: topog.slope
(PID.TID 0000.0001) // =======================================================
(PID.TID 0000.0001) // Field Model R_low (ini_masks_etc) at iteration          1
(PID.TID 0000.0001) // CMIN =         -3.600000000000000E+03
(PID.TID 0000.0001) // CMAX =         -6.048000000000000E+02
(PID.TID 0000.0001) // CINT =          1.109333333333333E+02
(PID.TID 0000.0001) // SYMBOLS (CMIN->CMAX): -abcdefghijklmnopqrstuvwxyz+
(PID.TID 0000.0001) //                  0.0: .
(PID.TID 0000.0001) // RANGE I (Lo:Hi:Step):(  -2: 203:   1)
(PID.TID 0000.0001) // RANGE J (Lo:Hi:Step):(  48:  -2:  -1)
(PID.TID 0000.0001) // RANGE K (Lo:Hi:Step):(   1:   1:   1)
(PID.TID 0000.0001) // =======================================================
(PID.TID 0000.0001) K =   1
(PID.TID 0000.0001) //                I=7       I=17      I=21      I=31      I=41      I=45      I=55      I=59      I=69      I=79      I=83      I=93      I=103     I=107     I=117     I=121     I=131     I=141     I=145     I=155     I=159     I=169     I=179     I=183     I=193     I=203
(PID.TID 0000.0001) // |--J--|**0123456|890123456|890123890|234567890|234567890|238901234|678901234|678901238|012345678|012345678|012389012|456789012|456789012|890123456|890123456|890123890|234567890|234567890|238901234|678901234|678901238|012345678|012345678|012389012|456789012|456789012|
(PID.TID 0000.0001) //     48 --.-------------------------------------------------------------------------------------------------------------------------------------------------------------------------------------------------------------------------------------------------------------.---
(PID.TID 0000.0001) //     47 --.-------------------------------------------------------------------------------------------------------------------------------------------------------------------------------------------------------------------------------------------------------------.---
(PID.TID 0000.0001) //     46 ....................................................................................................................................................................................................................................................................
(PID.TID 0000.0001) //     45 ........................................................................................................................................................................................................................++++++++++..................................
(PID.TID 0000.0001) //     44 ........................................................................................................................................................................................................................++++++++++..................................
(PID.TID 0000.0001) //     43 ........................................................................................................................................................................................................................++++++++++..................................
(PID.TID 0000.0001) //     42 ........................................................................................................................................................................................................................++++++++++..................................
(PID.TID 0000.0001) //     41 ........................................................................................................................................................................................................................++++++++++..................................
(PID.TID 0000.0001) //     40 ++.+++++++++++++++++++++++++++++++++++++++++++++++++++++++++++++++++++++++++++++++++++++++++++++++++++++++++++++++++++++++++++++++++++++++++++++++++++++++++++++++++++++++++++++++++++++++++++++++++++++++++++++++++++++++++++++++++++++++++++++++++++++++++++++.+++
(PID.TID 0000.0001) //     39 zz.zzzzzzzzzzzzzzzzzzzzzzzzzzzzzzzzzzzzzzzzzzzzzzzzzzzzzzzzzzzzzzzzzzzzzzzzzzzzzzzzzzzzzzzzzzzzzzzzzzzzzzzzzzzzzzzzzzzzzzzzzzzzzzzzzzzzzzzzzzzzzzzzzzzzzzzzzzzzzzzzzzzzzzzzzzzzzzzzzzzzzzzzzzzzzzzzzzzzzzzzzzzzzzzzzzzzzzzzzzzzzzzzzzzzzzzzzzzzzzzzzzzzzzzzzzzzz.zzz
(PID.TID 0000.0001) //     38 yy.yyyyyyyyyyyyyyyyyyyyyyyyyyyyyyyyyyyyyyyyyyyyyyyyyyyyyyyyyyyyyyyyyyyyyyyyyyyyyyyyyyyyyyyyyyyyyyyyyyyyyyyyyyyyyyyyyyyyyyyyyyyyyyyyyyyyyyyyyyyyyyyyyyyyyyyyyyyyyyyyyyyyyyyyyyyyyyyyyyyyyyyyyyyyyyyyyyyyyyyyyyyyyyyyyyyyyyyyyyyyyyyyyyyyyyyyyyyyyyyyyyyyyyyyyyyyy.yyy
(PID.TID 0000.0001) //     37 xx.xxxxxxxxxxxxxxxxxxxxxxxxxxxxxxxxxxxxxxxxxxxxxxxxxxxxxxxxxxxxxxxxxxxxxxxxxxxxxxxxxxxxxxxxxxxxxxxxxxxxxxxxxxxxxxxxxxxxxxxxxxxxxxxxxxxxxxxxxxxxxxxxxxxxxxxxxxxxxxxxxxxxxxxxxxxxxxxxxxxxxxxxxxxxxxxxxxxxxxxxxxxxxxxxxxxxxxxxxxxxxxxxxxxxxxxxxxxxxxxxxxxxxxxxxxxxx.xxx
(PID.TID 0000.0001) //     36 ww.wwwwwwwwwwwwwwwwwwwwwwwwwwwwwwwwwwwwwwwwwwwwwwwwwwwwwwwwwwwwwwwwwwwwwwwwwwwwwwwwwwwwwwwwwwwwwwwwwwwwwwwwwwwwwwwwwwwwwwwwwwwwwwwwwwwwwwwwwwwwwwwwwwwwwwwwwwwwwwwwwwwwwwwwwwwwwwwwwwwwwwwwwwwwwwwwwwwwwwwwwwwwwwwwwwwwwwwwwwwwwwwwwwwwwwwwwwwwwwwwwwwwwwwwwwwww.www
(PID.TID 0000.0001) //     35 ww.wwwwwwwwwwwwwwwwwwwwwwwwwwwwwwwwwwwwwwwwwwwwwwwwwwwwwwwwwwwwwwwwwwwwwwwwwwwwwwwwwwwwwwwwwwwwwwwwwwwwwwwwwwwwwwwwwwwwwwwwwwwwwwwwwwwwwwwwwwwwwwwwwwwwwwwwwwwwwwwwwwwwwwwwwwwwwwwwwwwwwwwwwwwwwwwwwwwwwwwwwwwwwwwwwwwwwwwwwwwwwwwwwwwwwwwwwwwwwwwwwwwwwwwwwwwww.www
(PID.TID 0000.0001) //     34 vv.vvvvvvvvvvvvvvvvvvvvvvvvvvvvvvvvvvvvvvvvvvvvvvvvvvvvvvvvvvvvvvvvvvvvvvvvvvvvvvvvvvvvvvvvvvvvvvvvvvvvvvvvvvvvvvvvvvvvvvvvvvvvvvvvvvvvvvvvvvvvvvvvvvvvvvvvvvvvvvvvvvvvvvvvvvvvvvvvvvvvvvvvvvvvvvvvvvvvvvvvvvvvvvvvvvvvvvvvvvvvvvvvvvvvvvvvvvvvvvvvvvvvvvvvvvvvv.vvv
(PID.TID 0000.0001) //     33 uu.uuuuuuuuuuuuuuuuuuuuuuuuuuuuuuuuuuuuuuuuuuuuuuuuuuuuuuuuuuuuuuuuuuuuuuuuuuuuuuuuuuuuuuuuuuuuuuuuuuuuuuuuuuuuuuuuuuuuuuuuuuuuuuuuuuuuuuuuuuuuuuuuuuuuuuuuuuuuuuuuuuuuuuuuuuuuuuuuuuuuuuuuuuuuuuuuuuuuuuuuuuuuuuuuuuuuuuuuuuuuuuuuuuuuuuuuuuuuuuuuuuuuuuuuuuuuu.uuu
(PID.TID 0000.0001) //     32 tt.ttttttttttttttttttttttttttttttttttttttttttttttttttttttttttttttttttttttttttttttttttttttttttttttttttttttttttttttttttttttttttttttttttttttttttttttttttttttttttttttttttttttttttttttttttttttttttttttttttttttttttttttttttttttttttttttttttttttttttttttttttttttttttttt.ttt
(PID.TID 0000.0001) //     31 ss.sssssssssssssssssssssssssssssssssssssssssssssssssssssssssssssssssssssssssssssssssssssssssssssssssssssssssssssssssssssssssssssssssssssssssssssssssssssssssssssssssssssssssssssssssssssssssssssssssssssssssssssssssssssssssssssssssssssssssssssssssssssssssssss.sss
(PID.TID 0000.0001) //     30 rr.rrrrrrrrrrrrrrrrrrrrrrrrrrrrrrrrrrrrrrrrrrrrrrrrrrrrrrrrrrrrrrrrrrrrrrrrrrrrrrrrrrrrrrrrrrrrrrrrrrrrrrrrrrrrrrrrrrrrrrrrrrrrrrrrrrrrrrrrrrrrrrrrrrrrrrrrrrrrrrrrrrrrrrrrrrrrrrrrrrrrrrrrrrrrrrrrrrrrrrrrrrrrrrrrrrrrrrrrrrrrrrrrrrrrrrrrrrrrrrrrrrrrrrrrrrrrr.rrr
(PID.TID 0000.0001) //     29 qq.qqqqqqqqqqqqqqqqqqqqqqqqqqqqqqqqqqqqqqqqqqqqqqqqqqqqqqqqqqqqqqqqqqqqqqqqqqqqqqqqqqqqqqqqqqqqqqqqqqqqqqqqqqqqqqqqqqqqqqqqqqqqqqqqqqqqqqqqqqqqqqqqqqqqqqqqqqqqqqqqqqqqqqqqqqqqqqqqqqqqqqqqqqqqqqqqqqqqqqqqqqqqqqqqqqqqqqqqqqqqqqqqqqqqqqqqqqqqqqqqqqqqqqqqqqqqq.qqq
(PID.TID 0000.0001) //     28 pp.ppppppppppppppppppppppppppppppppppppppppppppppppppppppppppppppppppppppppppppppppppppppppppppppppppppppppppppppppppppppppppppppppppppppppppppppppppppppppppppppppppppppppppppppppppppppppppppppppppppppppppppppppppppppppppppppppppppppppppppppppppppppppppppp.ppp
(PID.TID 0000.0001) //     33 uu.uuuuuuuuuuuuuuuuuuuuuuuuuuuuuuuuuuuuuuuuuuuuuuuuuuuuuuuuuuuuuuuuuuuuuuuuuuuuuuuuuuuuuuuuuuuuuuuuuuuuuuuuuuuuuuuuuuuuuuuuuuuuuuuuuuuuuuuuuuuuuuuuuuuuuuuuuuuuuuuuuuuuuuuuuuuuuuuuuuuuuuuuuuuuuuuuuuuuuuuuuuuuuuuuuuuuuuuuuuuuuuuuuuuuuuuuuuuuuuuuuuuuuuuuuuuuu.uuu
(PID.TID 0000.0001) //     32 tt.ttttttttttttttttttttttttttttttttttttttttttttttttttttttttttttttttttttttttttttttttttttttttttttttttttttttttttttttttttttttttttttttttttttttttttttttttttttttttttttttttttttttttttttttttttttttttttttttttttttttttttttttttttttttttttttttttttttttttttttttttttttttttttttt.ttt
(PID.TID 0000.0001) //     31 ss.sssssssssssssssssssssssssssssssssssssssssssssssssssssssssssssssssssssssssssssssssssssssssssssssssssssssssssssssssssssssssssssssssssssssssssssssssssssssssssssssssssssssssssssssssssssssssssssssssssssssssssssssssssssssssssssssssssssssssssssssssssssssssssss.sss
(PID.TID 0000.0001) //     30 rr.rrrrrrrrrrrrrrrrrrrrrrrrrrrrrrrrrrrrrrrrrrrrrrrrrrrrrrrrrrrrrrrrrrrrrrrrrrrrrrrrrrrrrrrrrrrrrrrrrrrrrrrrrrrrrrrrrrrrrrrrrrrrrrrrrrrrrrrrrrrrrrrrrrrrrrrrrrrrrrrrrrrrrrrrrrrrrrrrrrrrrrrrrrrrrrrrrrrrrrrrrrrrrrrrrrrrrrrrrrrrrrrrrrrrrrrrrrrrrrrrrrrrrrrrrrrrr.rrr
(PID.TID 0000.0001) //     29 qq.qqqqqqqqqqqqqqqqqqqqqqqqqqqqqqqqqqqqqqqqqqqqqqqqqqqqqqqqqqqqqqqqqqqqqqqqqqqqqqqqqqqqqqqqqqqqqqqqqqqqqqqqqqqqqqqqqqqqqqqqqqqqqqqqqqqqqqqqqqqqqqqqqqqqqqqqqqqqqqqqqqqqqqqqqqqqqqqqqqqqqqqqqqqqqqqqqqqqqqqqqqqqqqqqqqqqqqqqqqqqqqqqqqqqqqqqqqqqqqqqqqqqqqqqqqqqq.qqq
(PID.TID 0000.0001) //     28 pp.ppppppppppppppppppppppppppppppppppppppppppppppppppppppppppppppppppppppppppppppppppppppppppppppppppppppppppppppppppppppppppppppppppppppppppppppppppppppppppppppppppppppppppppppppppppppppppppppppppppppppppppppppppppppppppppppppppppppppppppppppppppppppppppp.ppp
(PID.TID 0000.0001) //     27 oo.ooooooooooooooooooooooooooooooooooooooooooooooooooooooooooooooooooooooooooooooooooooooooooooooooooooooooooooooooooooooooooooooooooooooooooooooooooooooooooooooooooooooooooooooooooooooooooooooooooooooooooooooooooooooooooooooooooooooooooooooooooooooooooooo.ooo
(PID.TID 0000.0001) //     26 nn.nnnnnnnnnnnnnnnnnnnnnnnnnnnnnnnnnnnnnnnnnnnnnnnnnnnnnnnnnnnnnnnnnnnnnnnnnnnnnnnnnnnnnnnnnnnnnnnnnnnnnnnnnnnnnnnnnnnnnnnnnnnnnnnnnnnnnnnnnnnnnnnnnnnnnnnnnnnnnnnnnnnnnnnnnnnnnnnnnnnnnnnnnnnnnnnnnnnnnnnnnnnnnnnnnnnnnnnnnnnnnnnnnnnnnnnnnnnnnnnnnnnnnnnnnnnnn.nnn
(PID.TID 0000.0001) //     25 nn.nnnnnnnnnnnnnnnnnnnnnnnnnnnnnnnnnnnnnnnnnnnnnnnnnnnnnnnnnnnnnnnnnnnnnnnnnnnnnnnnnnnnnnnnnnnnnnnnnnnnnnnnnnnnnnnnnnnnnnnnnnnnnnnnnnnnnnnnnnnnnnnnnnnnnnnnnnnnnnnnnnnnnnnnnnnnnnnnnnnnnnnnnnnnnnnnnnnnnnnnnnnnnnnnnnnnnnnnnnnnnnnnnnnnnnnnnnnnnnnnnnnnnnnnnnnnn.nnn
(PID.TID 0000.0001) //     24 mm.mmmmmmmmmmmmmmmmmmmmmmmmmmmmmmmmmmmmmmmmmmmmmmmmmmmmmmmmmmmmmmmmmmmmmmmmmmmmmmmmmmmmmmmmmmmmmmmmmmmmmmmmmmmmmmmmmmmmmmmmmmmmmmmmmmmmmmmmmmmmmmmmmmmmmmmmmmmmmmmmmmmmmmmmmmmmmmmmmmmmmmmmmmmmmmmmmmmmmmmmmmmmmmmmmmmmmmmmmmmmmmmmmmmmmmmmmmmmmmmmmmmmmmmmmmmmm.mmm
(PID.TID 0000.0001) //     23 ll.lllllllllllllllllllllllllllllllllllllllllllllllllllllllllllllllllllllllllllllllllllllllllllllllllllllllllllllllllllllllllllllllllllllllllllllllllllllllllllllllllllllllllllllllllllllllllllllllllllllllllllllllllllllllllllllllllllllllllllllllllllllllllllll.lll
(PID.TID 0000.0001) //     22 kk.kkkkkkkkkkkkkkkkkkkkkkkkkkkkkkkkkkkkkkkkkkkkkkkkkkkkkkkkkkkkkkkkkkkkkkkkkkkkkkkkkkkkkkkkkkkkkkkkkkkkkkkkkkkkkkkkkkkkkkkkkkkkkkkkkkkkkkkkkkkkkkkkkkkkkkkkkkkkkkkkkkkkkkkkkkkkkkkkkkkkkkkkkkkkkkkkkkkkkkkkkkkkkkkkkkkkkkkkkkkkkkkkkkkkkkkkkkkkkkkkkkkkkkkkkkkkk.kkk
(PID.TID 0000.0001) //     21 jj.jjjjjjjjjjjjjjjjjjjjjjjjjjjjjjjjjjjjjjjjjjjjjjjjjjjjjjjjjjjjjjjjjjjjjjjjjjjjjjjjjjjjjjjjjjjjjjjjjjjjjjjjjjjjjjjjjjjjjjjjjjjjjjjjjjjjjjjjjjjjjjjjjjjjjjjjjjjjjjjjjjjjjjjjjjjjjjjjjjjjjjjjjjjjjjjjjjjjjjjjjjjjjjjjjjjjjjjjjjjjjjjjjjjjjjjjjjjjjjjjjjjjjjjjjjjjj.jjj
(PID.TID 0000.0001) //     20 ii.iiiiiiiiiiiiiiiiiiiiiiiiiiiiiiiiiiiiiiiiiiiiiiiiiiiiiiiiiiiiiiiiiiiiiiiiiiiiiiiiiiiiiiiiiiiiiiiiiiiiiiiiiiiiiiiiiiiiiiiiiiiiiiiiiiiiiiiiiiiiiiiiiiiiiiiiiiiiiiiiiiiiiiiiiiiiiiiiiiiiiiiiiiiiiiiiiiiiiiiiiiiiiiiiiiiiiiiiiiiiiiiiiiiiiiiiiiiiiiiiiiiiiiiiiiiii.iii
(PID.TID 0000.0001) //     19 hh.hhhhhhhhhhhhhhhhhhhhhhhhhhhhhhhhhhhhhhhhhhhhhhhhhhhhhhhhhhhhhhhhhhhhhhhhhhhhhhhhhhhhhhhhhhhhhhhhhhhhhhhhhhhhhhhhhhhhhhhhhhhhhhhhhhhhhhhhhhhhhhhhhhhhhhhhhhhhhhhhhhhhhhhhhhhhhhhhhhhhhhhhhhhhhhhhhhhhhhhhhhhhhhhhhhhhhhhhhhhhhhhhhhhhhhhhhhhhhhhhhhhhhhhhhhhhh.hhh
(PID.TID 0000.0001) //     18 gg.ggggggggggggggggggggggggggggggggggggggggggggggggggggggggggggggggggggggggggggggggggggggggggggggggggggggggggggggggggggggggggggggggggggggggggggggggggggggggggggggggggggggggggggggggggggggggggggggggggggggggggggggggggggggggggggggggggggggggggggggggggggggggggggg.ggg
(PID.TID 0000.0001) //     17 ff.fffffffffffffffffffffffffffffffffffffffffffffffffffffffffffffffffffffffffffffffffffffffffffffffffffffffffffffffffffffffffffffffffffffffffffffffffffffffffffffffffffffffffffffffffffffffffffffffffffffffffffffffffffffffffffffffffffffffffffffffffffffffffffff.fff
(PID.TID 0000.0001) //     16 ee.eeeeeeeeeeeeeeeeeeeeeeeeeeeeeeeeeeeeeeeeeeeeeeeeeeeeeeeeeeeeeeeeeeeeeeeeeeeeeeeeeeeeeeeeeeeeeeeeeeeeeeeeeeeeeeeeeeeeeeeeeeeeeeeeeeeeeeeeeeeeeeeeeeeeeeeeeeeeeeeeeeeeeeeeeeeeeeeeeeeeeeeeeeeeeeeeeeeeeeeeeeeeeeeeeeeeeeeeeeeeeeeeeeeeeeeeeeeeeeeeeeeeeeeeeeeee.eee
(PID.TID 0000.0001) //     15 dd.ddddddddddddddddddddddddddddddddddddddddddddddddddddddddddddddddddddddddddddddddddddddddddddddddddddddddddddddddddddddddddddddddddddddddddddddddddddddddddddddddddddddddddddddddddddddddddddddddddddddddddddddddddddddddddddddddddddddddddddddddddddddddddddd.ddd
(PID.TID 0000.0001) //     14 dd.ddddddddddddddddddddddddddddddddddddddddddddddddddddddddddddddddddddddddddddddddddddddddddddddddddddddddddddddddddddddddddddddddddddddddddddddddddddddddddddddddddddddddddddddddddddddddddddddddddddddddddddddddddddddddddddddddddddddddddddddddddddddddddddd.ddd
(PID.TID 0000.0001) //     13 cc.ccccccccccccccccccccccccccccccccccccccccccccccccccccccccccccccccccccccccccccccccccccccccccccccccccccccccccccccccccccccccccccccccccccccccccccccccccccccccccccccccccccccccccccccccccccccccccccccccccccccccccccccccccccccccccccccccccccccccccccccccccccccccccccc.ccc
(PID.TID 0000.0001) //     18 gg.ggggggggggggggggggggggggggggggggggggggggggggggggggggggggggggggggggggggggggggggggggggggggggggggggggggggggggggggggggggggggggggggggggggggggggggggggggggggggggggggggggggggggggggggggggggggggggggggggggggggggggggggggggggggggggggggggggggggggggggggggggggggggggggg.ggg
(PID.TID 0000.0001) //     17 ff.fffffffffffffffffffffffffffffffffffffffffffffffffffffffffffffffffffffffffffffffffffffffffffffffffffffffffffffffffffffffffffffffffffffffffffffffffffffffffffffffffffffffffffffffffffffffffffffffffffffffffffffffffffffffffffffffffffffffffffffffffffffffffffff.fff
(PID.TID 0000.0001) //     16 ee.eeeeeeeeeeeeeeeeeeeeeeeeeeeeeeeeeeeeeeeeeeeeeeeeeeeeeeeeeeeeeeeeeeeeeeeeeeeeeeeeeeeeeeeeeeeeeeeeeeeeeeeeeeeeeeeeeeeeeeeeeeeeeeeeeeeeeeeeeeeeeeeeeeeeeeeeeeeeeeeeeeeeeeeeeeeeeeeeeeeeeeeeeeeeeeeeeeeeeeeeeeeeeeeeeeeeeeeeeeeeeeeeeeeeeeeeeeeeeeeeeeeeeeeeeeeee.eee
(PID.TID 0000.0001) //     15 dd.ddddddddddddddddddddddddddddddddddddddddddddddddddddddddddddddddddddddddddddddddddddddddddddddddddddddddddddddddddddddddddddddddddddddddddddddddddddddddddddddddddddddddddddddddddddddddddddddddddddddddddddddddddddddddddddddddddddddddddddddddddddddddddddd.ddd
(PID.TID 0000.0001) //     14 dd.ddddddddddddddddddddddddddddddddddddddddddddddddddddddddddddddddddddddddddddddddddddddddddddddddddddddddddddddddddddddddddddddddddddddddddddddddddddddddddddddddddddddddddddddddddddddddddddddddddddddddddddddddddddddddddddddddddddddddddddddddddddddddddddd.ddd
(PID.TID 0000.0001) //     13 cc.ccccccccccccccccccccccccccccccccccccccccccccccccccccccccccccccccccccccccccccccccccccccccccccccccccccccccccccccccccccccccccccccccccccccccccccccccccccccccccccccccccccccccccccccccccccccccccccccccccccccccccccccccccccccccccccccccccccccccccccccccccccccccccccc.ccc
(PID.TID 0000.0001) //     12 bb.bbbbbbbbbbbbbbbbbbbbbbbbbbbbbbbbbbbbbbbbbbbbbbbbbbbbbbbbbbbbbbbbbbbbbbbbbbbbbbbbbbbbbbbbbbbbbbbbbbbbbbbbbbbbbbbbbbbbbbbbbbbbbbbbbbbbbbbbbbbbbbbbbbbbbbbbbbbbbbbbbbbbbbbbbbbbbbbbbbbbbbbbbbbbbbbbbbbbbbbbbbbbbbbbbbbbbbbbbbbbbbbbbbbbbbbbbbbbbbbbbbbbbbbbbbbbb.bbb
(PID.TID 0000.0001) //     11 aa.aaaaaaaaaaaaaaaaaaaaaaaaaaaaaaaaaaaaaaaaaaaaaaaaaaaaaaaaaaaaaaaaaaaaaaaaaaaaaaaaaaaaaaaaaaaaaaaaaaaaaaaaaaaaaaaaaaaaaaaaaaaaaaaaaaaaaaaaaaaaaaaaaaaaaaaaaaaaaaaaaaaaaaaaaaaaaaaaaaaaaaaaaaaaaaaaaaaaaaaaaaaaaaaaaaaaaaaaaaaaaaaaaaaaaaaaaaaaaaaaaaaaaaaaaaaaa.aaa
(PID.TID 0000.0001) //     10 --.-------------------------------------------------------------------------------------------------------------------------------------------------------------------------------------------------------------------------------------------------------------.---
(PID.TID 0000.0001) //      9 --.-------------------------------------------------------------------------------------------------------------------------------------------------------------------------------------------------------------------------------------------------------------.---
(PID.TID 0000.0001) //      8 --.-------------------------------------------------------------------------------------------------------------------------------------------------------------------------------------------------------------------------------------------------------------.---
(PID.TID 0000.0001) //      7 --.-------------------------------------------------------------------------------------------------------------------------------------------------------------------------------------------------------------------------------------------------------------.---
(PID.TID 0000.0001) //      6 --.-------------------------------------------------------------------------------------------------------------------------------------------------------------------------------------------------------------------------------------------------------------.---
(PID.TID 0000.0001) //      5 --.-------------------------------------------------------------------------------------------------------------------------------------------------------------------------------------------------------------------------------------------------------------.---
(PID.TID 0000.0001) //      4 --.-------------------------------------------------------------------------------------------------------------------------------------------------------------------------------------------------------------------------------------------------------------.---
(PID.TID 0000.0001) //      3 --.-------------------------------------------------------------------------------------------------------------------------------------------------------------------------------------------------------------------------------------------------------------.---
(PID.TID 0000.0001) //      2 --.-------------------------------------------------------------------------------------------------------------------------------------------------------------------------------------------------------------------------------------------------------------.---
(PID.TID 0000.0001) //      1 ....................................................................................................................................................................................................................................................................
(PID.TID 0000.0001) //      0 ........................................................................................................................................................................................................................++++++++++..................................
(PID.TID 0000.0001) //     -1 ........................................................................................................................................................................................................................++++++++++..................................
(PID.TID 0000.0001) //     -2 ........................................................................................................................................................................................................................++++++++++..................................
(PID.TID 0000.0001) // =======================================================
(PID.TID 0000.0001) // END OF FIELD                                          =
(PID.TID 0000.0001) // =======================================================
(PID.TID 0000.0001) 
(PID.TID 0000.0001) // =======================================================
(PID.TID 0000.0001) // Field Model Ro_surf (ini_masks_etc) at iteration          1
(PID.TID 0000.0001) // CMIN =          1.000000000000000E+32
(PID.TID 0000.0001) // CMAX =         -1.000000000000000E+32
(PID.TID 0000.0001) // CINT =          0.000000000000000E+00
(PID.TID 0000.0001) // SYMBOLS (CMIN->CMAX): -abcdefghijklmnopqrstuvwxyz+
(PID.TID 0000.0001) //                  0.0: .
(PID.TID 0000.0001) // RANGE I (Lo:Hi:Step):(  -2: 203:   1)
(PID.TID 0000.0001) // RANGE J (Lo:Hi:Step):(  48:  -2:  -1)
(PID.TID 0000.0001) // RANGE K (Lo:Hi:Step):(   1:   1:   1)
(PID.TID 0000.0001) // =======================================================
(PID.TID 0000.0001) // =======================================================
(PID.TID 0000.0001) // END OF FIELD                                          =
(PID.TID 0000.0001) // =======================================================
(PID.TID 0000.0001) 
(PID.TID 0000.0001) // =======================================================
(PID.TID 0000.0001) // Field hFacC at iteration          1
(PID.TID 0000.0001) // CMIN =          1.000000000000000E+00
(PID.TID 0000.0001) // CMAX =          1.000000000000000E+00
(PID.TID 0000.0001) // CINT =          0.000000000000000E+00
(PID.TID 0000.0001) // SYMBOLS (CMIN->CMAX): -abcdefghijklmnopqrstuvwxyz+
(PID.TID 0000.0001) //                  0.0: .
(PID.TID 0000.0001) // RANGE I (Lo:Hi:Step):(  -2: 203:   1)
(PID.TID 0000.0001) // RANGE J (Lo:Hi:Step):(  48:  -2:  -1)
(PID.TID 0000.0001) // RANGE K (Lo:Hi:Step):(   1:   1:   1)
(PID.TID 0000.0001) // =======================================================
(PID.TID 0000.0001) // =======================================================
(PID.TID 0000.0001) // END OF FIELD                                          =
(PID.TID 0000.0001) // =======================================================
(PID.TID 0000.0001) 
(PID.TID 0000.0001) // =======================================================
(PID.TID 0000.0001) // Field hFacW at iteration          1
(PID.TID 0000.0001) // CMIN =          1.000000000000000E+00
(PID.TID 0000.0001) // CMAX =          1.000000000000000E+00
(PID.TID 0000.0001) // CINT =          0.000000000000000E+00
(PID.TID 0000.0001) // SYMBOLS (CMIN->CMAX): -abcdefghijklmnopqrstuvwxyz+
(PID.TID 0000.0001) //                  0.0: .
(PID.TID 0000.0001) // RANGE I (Lo:Hi:Step):(  -2: 203:   1)
(PID.TID 0000.0001) // RANGE J (Lo:Hi:Step):(  48:  -2:  -1)
(PID.TID 0000.0001) // RANGE K (Lo:Hi:Step):(   1:   1:   1)
(PID.TID 0000.0001) // =======================================================
(PID.TID 0000.0001) // =======================================================
(PID.TID 0000.0001) // END OF FIELD                                          =
(PID.TID 0000.0001) // =======================================================
(PID.TID 0000.0001) 
(PID.TID 0000.0001) // =======================================================
(PID.TID 0000.0001) // Field hFacS at iteration          1
(PID.TID 0000.0001) // CMIN =          1.000000000000000E+00
(PID.TID 0000.0001) // CMAX =          1.000000000000000E+00
(PID.TID 0000.0001) // CINT =          0.000000000000000E+00
(PID.TID 0000.0001) // SYMBOLS (CMIN->CMAX): -abcdefghijklmnopqrstuvwxyz+
(PID.TID 0000.0001) //                  0.0: .
(PID.TID 0000.0001) // RANGE I (Lo:Hi:Step):(  -2: 203:   1)
(PID.TID 0000.0001) // RANGE J (Lo:Hi:Step):(  48:  -2:  -1)
(PID.TID 0000.0001) // RANGE K (Lo:Hi:Step):(   1:   1:   1)
(PID.TID 0000.0001) // =======================================================
(PID.TID 0000.0001) // =======================================================
(PID.TID 0000.0001) // END OF FIELD                                          =
(PID.TID 0000.0001) // =======================================================
(PID.TID 0000.0001) 
(PID.TID 0000.0001)  PACKAGES_BOOT: opening data.pkg
(PID.TID 0000.0001)  OPEN_COPY_DATA_FILE: opening file data.pkg
(PID.TID 0000.0001) // =======================================================
(PID.TID 0000.0001) // Parameter file "data.pkg"
(PID.TID 0000.0001) // =======================================================
(PID.TID 0000.0001) ># Packages
(PID.TID 0000.0001) > &PACKAGES
(PID.TID 0000.0001) > useOBCS=.TRUE.,
(PID.TID 0000.0001) > &
(PID.TID 0000.0001) 
(PID.TID 0000.0001)  PACKAGES_BOOT: finished reading data.pkg
(PID.TID 0000.0001)  OBCS_READPARMS: opening data.obcs
(PID.TID 0000.0001)  OPEN_COPY_DATA_FILE: opening file data.obcs
(PID.TID 0000.0001) // =======================================================
(PID.TID 0000.0001) // Parameter file "data.obcs"
(PID.TID 0000.0001) // =======================================================
(PID.TID 0000.0001) ># Open-boundaries
(PID.TID 0000.0001) > &OBCS_PARM01
(PID.TID 0000.0001) ># OB_Ieast=30*-1,
(PID.TID 0000.0001) > OB_Iwest=45*1,
(PID.TID 0000.0001) > OB_Jnorth=200*-1,
(PID.TID 0000.0001) ># OB_Jsouth=100*1
(PID.TID 0000.0001) ># useOrlanskiEast=.TRUE.,
(PID.TID 0000.0001) > useOrlanskiWest=.TRUE.,
(PID.TID 0000.0001) > useOrlanskiNorth=.FALSE.,
(PID.TID 0000.0001) ># useOrlanskiSouth=.TRUE.,
(PID.TID 0000.0001) > &
(PID.TID 0000.0001) >
(PID.TID 0000.0001) > &OBCS_PARM02
(PID.TID 0000.0001) > CMAX=0.5,
(PID.TID 0000.0001) ># CMAX=2.0,
(PID.TID 0000.0001) > cvelTimeScale=10000.,
(PID.TID 0000.0001) ># CFIX=0.2,
(PID.TID 0000.0001) > useFixedCEast=.FALSE.,
(PID.TID 0000.0001) > useFixedCWest=.FALSE.,
(PID.TID 0000.0001) > &
(PID.TID 0000.0001) 
 OB Jn = 45 45 45 45 45 45 45 45 45 45 45 45 45 45 45 45 45 45 45 45 45 45 45 45
 45 45 45 45 45 45 45 45 45 45 45 45 45 45 45 45 45 45 45 45 45 45 45 45 45 45
 45 45 45 45 45 45 45 45 45 45 45 45 45 45 45 45 45 45 45 45 45 45 45 45 45 45
 45 45 45 45 45 45 45 45 45 45 45 45 45 45 45 45 45 45 45 45 45 45 45 45 45 45
 45 45 45 45 45 45 45 45 45 45 45 45 45 45 45 45 45 45 45 45 45 45 45 45 45 45
 45 45 45 45 45 45 45 45 45 45 45 45 45 45 45 45 45 45 45 45 45 45 45 45 45 45
 45 45 45 45 45 45 45 45 45 45 45 45 45 45 45 45 45 45 45 45 45 45 45 45 45 45
 45 45 45 45 45 45 45 45 45 45 45 45 45 45 45 45 45 45 45 45
 OB Js = 0 0 0 0 0 0 0 0 0 0 0 0 0 0 0 0 0 0 0 0 0 0 0 0 0 0 0 0 0 0 0 0 0 0 0 0
 0 0 0 0 0 0 0 0 0 0 0 0 0 0 0 0 0 0 0 0 0 0 0 0 0 0 0 0 0 0 0 0 0 0 0 0 0 0 0 0
 0 0 0 0 0 0 0 0 0 0 0 0 0 0 0 0 0 0 0 0 0 0 0 0 0 0 0 0 0 0 0 0 0 0 0 0 0 0 0 0
 0 0 0 0 0 0 0 0 0 0 0 0 0 0 0 0 0 0 0 0 0 0 0 0 0 0 0 0 0 0 0 0 0 0 0 0 0 0 0 0
 0 0 0 0 0 0 0 0 0 0 0 0 0 0 0 0 0 0 0 0 0 0 0 0 0 0 0 0 0 0 0 0 0 0 0 0 0 0 0 0
 0 0 0 0
 OB Ie = 0 0 0 0 0 0 0 0 0 0 0 0 0 0 0 0 0 0 0 0 0 0 0 0 0 0 0 0 0 0 0 0 0 0 0 0
 0 0 0 0 0 0 0 0 0
 OB Iw = 1 1 1 1 1 1 1 1 1 1 1 1 1 1 1 1 1 1 1 1 1 1 1 1 1 1 1 1 1 1 1 1 1 1 1 1
 1 1 1 1 1 1 1 1 1
(PID.TID 0000.0001)  OBCS_READPARMS: finished reading data.obcs
(PID.TID 0000.0001) 
(PID.TID 0000.0001) // ===================================
(PID.TID 0000.0001) // GAD parameters :
(PID.TID 0000.0001) // ===================================
(PID.TID 0000.0001) tempAdvScheme =   /* Temp. Horiz.Advection scheme selector */
(PID.TID 0000.0001)                      77
(PID.TID 0000.0001)     ;
(PID.TID 0000.0001) tempVertAdvScheme =   /* Temp. Vert. Advection scheme selector */
(PID.TID 0000.0001)                      77
(PID.TID 0000.0001)     ;
(PID.TID 0000.0001) tempMultiDimAdvec =   /* use Muti-Dim Advec method for Temp */
(PID.TID 0000.0001)                   T
(PID.TID 0000.0001)     ;
(PID.TID 0000.0001) tempAdamsBashforth =   /* use Adams-Bashforth time-stepping for Temp */
(PID.TID 0000.0001)                   F
(PID.TID 0000.0001)     ;
(PID.TID 0000.0001) saltAdvScheme =   /* Salt. Horiz.advection scheme selector */
(PID.TID 0000.0001)                      77
(PID.TID 0000.0001)     ;
(PID.TID 0000.0001) saltVertAdvScheme =   /* Salt. Vert. Advection scheme selector */
(PID.TID 0000.0001)                      77
(PID.TID 0000.0001)     ;
(PID.TID 0000.0001) saltMultiDimAdvec =   /* use Muti-Dim Advec method for Salt */
(PID.TID 0000.0001)                   T
(PID.TID 0000.0001)     ;
(PID.TID 0000.0001) saltAdamsBashforth =   /* use Adams-Bashforth time-stepping for Salt */
(PID.TID 0000.0001)                   F
(PID.TID 0000.0001)     ;
(PID.TID 0000.0001) // ===================================
(PID.TID 0000.0001) OBCS_CHECK: #define ALLOW_OBCS
(PID.TID 0000.0001) OBCS_CHECK: #define ALLOW_ORLANSKI
(PID.TID 0000.0001) OBCS_CHECK: OK
(PID.TID 0000.0001) %MON fCori_max                    =   1.0000000000000E-04
(PID.TID 0000.0001) %MON fCori_min                    =   1.0000000000000E-04
(PID.TID 0000.0001) %MON fCori_mean                   =   1.0000000000000E-04
(PID.TID 0000.0001) %MON fCori_sd                     =   5.4210108624275E-20
(PID.TID 0000.0001) %MON fCoriG_max                   =   1.0000000000000E-04
(PID.TID 0000.0001) %MON fCoriG_min                   =   1.0000000000000E-04
(PID.TID 0000.0001) %MON fCoriG_mean                  =   1.0000000000000E-04
(PID.TID 0000.0001) %MON fCoriG_sd                    =   5.4210108624275E-20
(PID.TID 0000.0001) %MON fCoriCos_max                 =   0.0000000000000E+00
(PID.TID 0000.0001) %MON fCoriCos_min                 =   0.0000000000000E+00
(PID.TID 0000.0001) %MON fCoriCos_mean                =   0.0000000000000E+00
(PID.TID 0000.0001) %MON fCoriCos_sd                  =   0.0000000000000E+00
(PID.TID 0000.0001) // CG2D normalisation factor =          0.6985784986531311214433965E-04
(PID.TID 0000.0001) 
(PID.TID 0000.0001) // CG3D normalisation factor =          0.3621430937017829786233822E-06
(PID.TID 0000.0001) 
(PID.TID 0000.0001) CONFIG_CHECK: OK
(PID.TID 0000.0001) // =======================================================
(PID.TID 0000.0001) // Model configuration
(PID.TID 0000.0001) // =======================================================
(PID.TID 0000.0001) //
(PID.TID 0000.0001) // "Physical" paramters ( PARM01 in namelist )
(PID.TID 0000.0001) //
(PID.TID 0000.0001) buoyancyRelation = OCEANIC
(PID.TID 0000.0001) tRef =   /* Reference temperature profile ( oC or oK ) */
(PID.TID 0000.0001)                -1.941750000000000E-01,      /* K =  1 */
(PID.TID 0000.0001)                -5.825240000000000E-01,      /* K =  2 */
(PID.TID 0000.0001)                -9.708740000000000E-01,      /* K =  3 */
(PID.TID 0000.0001)                -1.359220000000000E+00,      /* K =  4 */
(PID.TID 0000.0001)                -1.747570000000000E+00,      /* K =  5 */
(PID.TID 0000.0001)                -2.135920000000000E+00,      /* K =  6 */
(PID.TID 0000.0001)                -2.524270000000000E+00,      /* K =  7 */
(PID.TID 0000.0001)                -2.912620000000000E+00,      /* K =  8 */
(PID.TID 0000.0001)                -3.300970000000000E+00,      /* K =  9 */
(PID.TID 0000.0001)                -3.689320000000000E+00,      /* K = 10 */
(PID.TID 0000.0001)                -4.077670000000000E+00,      /* K = 11 */
(PID.TID 0000.0001)                -4.466020000000000E+00,      /* K = 12 */
(PID.TID 0000.0001)                -4.854370000000000E+00,      /* K = 13 */
(PID.TID 0000.0001)                -5.242720000000000E+00,      /* K = 14 */
(PID.TID 0000.0001)                -5.631070000000000E+00,      /* K = 15 */
(PID.TID 0000.0001)                -6.019420000000000E+00,      /* K = 16 */
(PID.TID 0000.0001)                -6.407770000000000E+00,      /* K = 17 */
(PID.TID 0000.0001)                -6.796120000000000E+00,      /* K = 18 */
(PID.TID 0000.0001)                -7.184470000000000E+00,      /* K = 19 */
(PID.TID 0000.0001)                -7.572820000000000E+00,      /* K = 20 */
(PID.TID 0000.0001)                -7.961170000000000E+00,      /* K = 21 */
(PID.TID 0000.0001)                -8.349510000000000E+00,      /* K = 22 */
(PID.TID 0000.0001)                -8.737860000000000E+00,      /* K = 23 */
(PID.TID 0000.0001)                -9.126210000000000E+00,      /* K = 24 */
(PID.TID 0000.0001)                -9.514559999999999E+00       /* K = 25 */
(PID.TID 0000.0001)     ;
(PID.TID 0000.0001) sRef =   /* Reference salinity profile ( ppt ) */
(PID.TID 0000.0001)    25 @  1.000000000000000E+00              /* K =  1: 25 */
(PID.TID 0000.0001)     ;
(PID.TID 0000.0001) viscAh =   /* Lateral eddy viscosity ( m^2/s ) */
(PID.TID 0000.0001)                 0.000000000000000E+00
(PID.TID 0000.0001)     ;
(PID.TID 0000.0001) viscAhMax =   /* Maximum lateral eddy viscosity ( m^2/s ) */
(PID.TID 0000.0001)                 1.000000000000000E+21
(PID.TID 0000.0001)     ;
(PID.TID 0000.0001) viscAhGrid =   /* Grid dependent lateral eddy viscosity ( non-dim. ) */
(PID.TID 0000.0001)                 0.000000000000000E+00
(PID.TID 0000.0001)     ;
(PID.TID 0000.0001) viscC2leith =   /* Leith harmonic viscosity factor ( non-dom. ) */
(PID.TID 0000.0001)                 0.000000000000000E+00
(PID.TID 0000.0001)     ;
(PID.TID 0000.0001) viscA4 =   /* Lateral biharmonic viscosity ( m^4/s ) */
(PID.TID 0000.0001)                 0.000000000000000E+00
(PID.TID 0000.0001)     ;
(PID.TID 0000.0001) viscA4Max =   /* Maximum biharmonic viscosity ( m^2/s ) */
(PID.TID 0000.0001)                 1.000000000000000E+21
(PID.TID 0000.0001)     ;
(PID.TID 0000.0001) viscA4Grid =   /* Grid dependent biharmonic viscosity ( non-dim. ) */
(PID.TID 0000.0001)                 0.000000000000000E+00
(PID.TID 0000.0001)     ;
(PID.TID 0000.0001) viscC4leith =   /* Leith biharmonic viscosity factor ( non-dom. ) */
(PID.TID 0000.0001)                 1.000000000000000E-01
(PID.TID 0000.0001)     ;
(PID.TID 0000.0001) no_slip_sides =  /* Viscous BCs: No-slip sides */
(PID.TID 0000.0001)                   T
(PID.TID 0000.0001)     ;
(PID.TID 0000.0001) viscAr =   /* Vertical eddy viscosity ( units of r^2/s ) */
(PID.TID 0000.0001)                 5.000000000000000E-01
(PID.TID 0000.0001)     ;
(PID.TID 0000.0001) diffKhT =   /* Laplacian diffusion of heat laterally ( m^2/s ) */
(PID.TID 0000.0001)                 0.000000000000000E+00
(PID.TID 0000.0001)     ;
(PID.TID 0000.0001) diffK4T =   /* Bihaarmonic diffusion of heat laterally ( m^4/s ) */
(PID.TID 0000.0001)                 0.000000000000000E+00
(PID.TID 0000.0001)     ;
(PID.TID 0000.0001) diffKrT =   /* Laplacian diffusion of heat vertically ( m^2/s ) */
(PID.TID 0000.0001)                 0.000000000000000E+00
(PID.TID 0000.0001)     ;
(PID.TID 0000.0001) diffKhS =   /* Laplacian diffusion of salt laterally ( m^2/s ) */
(PID.TID 0000.0001)                 0.000000000000000E+00
(PID.TID 0000.0001)     ;
(PID.TID 0000.0001) diffK4S =   /* Bihaarmonic diffusion of salt laterally ( m^4/s ) */
(PID.TID 0000.0001)                 0.000000000000000E+00
(PID.TID 0000.0001)     ;
(PID.TID 0000.0001) diffKrS =   /* Laplacian diffusion of salt vertically ( m^2/s ) */
(PID.TID 0000.0001)                 0.000000000000000E+00
(PID.TID 0000.0001)     ;
(PID.TID 0000.0001) diffKrBL79surf =   /* Surface diffusion for Bryan and Lewis 1979 ( m^2/s ) */
(PID.TID 0000.0001)                 0.000000000000000E+00
(PID.TID 0000.0001)     ;
(PID.TID 0000.0001) diffKrBL79deep =   /* Deep diffusion for Bryan and Lewis 1979 ( m^2/s ) */
(PID.TID 0000.0001)                 0.000000000000000E+00
(PID.TID 0000.0001)     ;
(PID.TID 0000.0001) diffKrBL79scl =   /* Depth scale for Bryan and Lewis 1979 ( m ) */
(PID.TID 0000.0001)                 2.000000000000000E+02
(PID.TID 0000.0001)     ;
(PID.TID 0000.0001) diffKrBL79Ho =   /* Turning depth for Bryan and Lewis 1979 ( m ) */
(PID.TID 0000.0001)                -2.000000000000000E+03
(PID.TID 0000.0001)     ;
(PID.TID 0000.0001)  Equation of State : eosType = LINEAR
(PID.TID 0000.0001) tAlpha =   /* Linear EOS thermal expansion coefficient ( 1/degree ) */
(PID.TID 0000.0001)                 2.000000000000000E-04
(PID.TID 0000.0001)     ;
(PID.TID 0000.0001) sBeta =   /* Linear EOS haline contraction coefficient ( 1/ppt ) */
(PID.TID 0000.0001)                 0.000000000000000E+00
(PID.TID 0000.0001)     ;
(PID.TID 0000.0001) rhonil =   /* Reference density ( kg/m^3 ) */
(PID.TID 0000.0001)                 1.030000000000000E+03
(PID.TID 0000.0001)     ;
(PID.TID 0000.0001) rhoConst =   /* Reference density ( kg/m^3 ) */
(PID.TID 0000.0001)                 1.030000000000000E+03
(PID.TID 0000.0001)     ;
(PID.TID 0000.0001) rhoConstFresh =   /* Reference density ( kg/m^3 ) */
(PID.TID 0000.0001)                 1.030000000000000E+03
(PID.TID 0000.0001)     ;
(PID.TID 0000.0001) gravity =   /* Gravitational acceleration ( m/s^2 ) */
(PID.TID 0000.0001)                 9.810000000000000E+00
(PID.TID 0000.0001)     ;
(PID.TID 0000.0001) gBaro =   /* Barotropic gravity ( m/s^2 ) */
(PID.TID 0000.0001)                 9.810000000000000E+00
(PID.TID 0000.0001)     ;
(PID.TID 0000.0001) rotationPeriod =   /* Rotation Period ( s ) */
(PID.TID 0000.0001)                 8.640000000000000E+04
(PID.TID 0000.0001)     ;
(PID.TID 0000.0001) omega =   /* Angular velocity ( rad/s ) */
(PID.TID 0000.0001)                 7.272205216643040E-05
(PID.TID 0000.0001)     ;
(PID.TID 0000.0001) f0 =   /* Reference coriolis parameter ( 1/s ) */
(PID.TID 0000.0001)                 1.000000000000000E-04
(PID.TID 0000.0001)     ;
(PID.TID 0000.0001) beta =   /* Beta ( 1/(m.s) ) */
(PID.TID 0000.0001)                 0.000000000000000E+00
(PID.TID 0000.0001)     ;
(PID.TID 0000.0001) freeSurfFac =   /* Implicit free surface factor */
(PID.TID 0000.0001)                 1.000000000000000E+00
(PID.TID 0000.0001)     ;
(PID.TID 0000.0001) implicitFreeSurface =   /* Implicit free surface on/off flag */
(PID.TID 0000.0001)                   T
(PID.TID 0000.0001)     ;
(PID.TID 0000.0001) rigidLid =   /* Rigid lid on/off flag */
(PID.TID 0000.0001)                   F
(PID.TID 0000.0001)     ;
(PID.TID 0000.0001) implicSurfPress =   /* Surface Pressure implicit factor (0-1)*/
(PID.TID 0000.0001)                 1.000000000000000E+00
(PID.TID 0000.0001)     ;
(PID.TID 0000.0001) implicDiv2Dflow =   /* Barot. Flow Div. implicit factor (0-1)*/
(PID.TID 0000.0001)                 1.000000000000000E+00
(PID.TID 0000.0001)     ;
(PID.TID 0000.0001) exactConserv =   /* Exact Volume Conservation on/off flag*/
(PID.TID 0000.0001)                   F
(PID.TID 0000.0001)     ;
(PID.TID 0000.0001) uniformLin_PhiSurf =   /* use uniform Bo_surf on/off flag*/
(PID.TID 0000.0001)                   T
(PID.TID 0000.0001)     ;
(PID.TID 0000.0001) nonlinFreeSurf =   /* Non-linear Free Surf. options (-1,0,1,2,3)*/
(PID.TID 0000.0001)                       0
(PID.TID 0000.0001)     ;
(PID.TID 0000.0001)      -1,0= Off ; 1,2,3= On, 2=+rescale gU,gV, 3=+update cg2d solv.
(PID.TID 0000.0001) hFacInf =   /* lower threshold for hFac (nonlinFreeSurf only)*/
(PID.TID 0000.0001)                 2.000000000000000E-01
(PID.TID 0000.0001)     ;
(PID.TID 0000.0001) hFacSup =   /* upper threshold for hFac (nonlinFreeSurf only)*/
(PID.TID 0000.0001)                 2.000000000000000E+00
(PID.TID 0000.0001)     ;
(PID.TID 0000.0001) select_rStar =   /* r* Coordinate options (not yet implemented)*/
(PID.TID 0000.0001)                       0
(PID.TID 0000.0001)     ;
(PID.TID 0000.0001) useRealFreshWaterFlux =   /* Real Fresh Water Flux on/off flag*/
(PID.TID 0000.0001)                   F
(PID.TID 0000.0001)     ;
(PID.TID 0000.0001) convertFW2Salt = /* convert F.W. Flux to Salt Flux (-1=use local S)(ppt)*/
(PID.TID 0000.0001)                 3.500000000000000E+01
(PID.TID 0000.0001)     ;
(PID.TID 0000.0001) nonHydrostatic =  /* Non-Hydrostatic on/off flag */
(PID.TID 0000.0001)                   F
(PID.TID 0000.0001)     ;
(PID.TID 0000.0001) momStepping =  /* Momentum equation on/off flag */
(PID.TID 0000.0001)                   T
(PID.TID 0000.0001)     ;
(PID.TID 0000.0001) momAdvection =  /* Momentum advection on/off flag */
(PID.TID 0000.0001)                   T
(PID.TID 0000.0001)     ;
(PID.TID 0000.0001) momViscosity =  /* Momentum viscosity on/off flag */
(PID.TID 0000.0001)                   T
(PID.TID 0000.0001)     ;
(PID.TID 0000.0001) momImplVertAdv =/* Momentum implicit vert. advection on/off*/
(PID.TID 0000.0001)                   F
(PID.TID 0000.0001)     ;
(PID.TID 0000.0001) implicitViscosity = /* Implicit viscosity on/off flag */
(PID.TID 0000.0001)                   F
(PID.TID 0000.0001)     ;
(PID.TID 0000.0001) useCoriolis =  /* Coriolis on/off flag */
(PID.TID 0000.0001)                   T
(PID.TID 0000.0001)     ;
(PID.TID 0000.0001) useCDscheme =  /* CD scheme on/off flag */
(PID.TID 0000.0001)                   F
(PID.TID 0000.0001)     ;
(PID.TID 0000.0001) useJamartWetPoints= /* Coriolis WetPoints method flag */
(PID.TID 0000.0001)                   F
(PID.TID 0000.0001)     ;
(PID.TID 0000.0001) useJamartMomAdv= /* V.I. Non-linear terms Jamart flag */
(PID.TID 0000.0001)                   F
(PID.TID 0000.0001)     ;
(PID.TID 0000.0001) SadournyCoriolis= /* Sadourny Coriolis discr. flag */
(PID.TID 0000.0001)                   F
(PID.TID 0000.0001)     ;
(PID.TID 0000.0001) upwindVorticity= /* Upwind bias vorticity flag */
(PID.TID 0000.0001)                   F
(PID.TID 0000.0001)     ;
(PID.TID 0000.0001) useAbsVorticity= /* Work with f+zeta in Coriolis */
(PID.TID 0000.0001)                   F
(PID.TID 0000.0001)     ;
(PID.TID 0000.0001) highOrderVorticity= /* High order interp. of vort. flag */
(PID.TID 0000.0001)                   F
(PID.TID 0000.0001)     ;
(PID.TID 0000.0001) momForcing =  /* Momentum forcing on/off flag */
(PID.TID 0000.0001)                   T
(PID.TID 0000.0001)     ;
(PID.TID 0000.0001) momPressureForcing =  /* Momentum pressure term on/off flag */
(PID.TID 0000.0001)                   T
(PID.TID 0000.0001)     ;
(PID.TID 0000.0001) staggerTimeStep =   /* Stagger time stepping on/off flag */
(PID.TID 0000.0001)                   T
(PID.TID 0000.0001)     ;
(PID.TID 0000.0001) multiDimAdvection =   /* enable/disable Multi-Dim Advection */
(PID.TID 0000.0001)                   T
(PID.TID 0000.0001)     ;
(PID.TID 0000.0001) useMultiDimAdvec =   /* Multi-Dim Advection is/is-not used */
(PID.TID 0000.0001)                   T
(PID.TID 0000.0001)     ;
(PID.TID 0000.0001) implicitDiffusion =/* Implicit Diffusion on/off flag */
(PID.TID 0000.0001)                   F
(PID.TID 0000.0001)     ;
(PID.TID 0000.0001) tempStepping =  /* Temperature equation on/off flag */
(PID.TID 0000.0001)                   T
(PID.TID 0000.0001)     ;
(PID.TID 0000.0001) tempAdvection=  /* Temperature advection on/off flag */
(PID.TID 0000.0001)                   T
(PID.TID 0000.0001)     ;
(PID.TID 0000.0001) tempImplVertAdv =/* Temp. implicit vert. advection on/off */
(PID.TID 0000.0001)                   F
(PID.TID 0000.0001)     ;
(PID.TID 0000.0001) tempForcing  =  /* Temperature forcing on/off flag */
(PID.TID 0000.0001)                   T
(PID.TID 0000.0001)     ;
(PID.TID 0000.0001) saltStepping =  /* Salinity equation on/off flag */
(PID.TID 0000.0001)                   T
(PID.TID 0000.0001)     ;
(PID.TID 0000.0001) saltAdvection=  /* Salinity advection on/off flag */
(PID.TID 0000.0001)                   T
(PID.TID 0000.0001)     ;
(PID.TID 0000.0001) saltImplVertAdv =/* Sali. implicit vert. advection on/off */
(PID.TID 0000.0001)                   F
(PID.TID 0000.0001)     ;
(PID.TID 0000.0001) saltForcing  =  /* Salinity forcing on/off flag */
(PID.TID 0000.0001)                   T
(PID.TID 0000.0001)     ;
(PID.TID 0000.0001) //
(PID.TID 0000.0001) // Elliptic solver(s) paramters ( PARM02 in namelist )
(PID.TID 0000.0001) //
(PID.TID 0000.0001) cg2dMaxIters =   /* Upper limit on 2d con. grad iterations  */
(PID.TID 0000.0001)                    1000
(PID.TID 0000.0001)     ;
(PID.TID 0000.0001) cg2dChkResFreq =   /* 2d con. grad convergence test frequency */
(PID.TID 0000.0001)                       1
(PID.TID 0000.0001)     ;
(PID.TID 0000.0001) cg2dTargetResidual =   /* 2d con. grad target residual  */
(PID.TID 0000.0001)                 9.999999999999999E-12
(PID.TID 0000.0001)     ;
(PID.TID 0000.0001) //
(PID.TID 0000.0001) // Time stepping paramters ( PARM03 in namelist )
(PID.TID 0000.0001) //
(PID.TID 0000.0001) nIter0 =   /* Base timestep number  */
(PID.TID 0000.0001)                       0
(PID.TID 0000.0001)     ;
(PID.TID 0000.0001) nTimeSteps =   /* Number of timesteps */
(PID.TID 0000.0001)                      20
(PID.TID 0000.0001)     ;
(PID.TID 0000.0001) deltatTmom =   /* Momentum equation timestep ( s ) */
(PID.TID 0000.0001)                 3.000000000000000E+02
(PID.TID 0000.0001)     ;
(PID.TID 0000.0001) deltaTfreesurf =   /* FreeSurface equation timestep ( s ) */
(PID.TID 0000.0001)                 3.000000000000000E+02
(PID.TID 0000.0001)     ;
(PID.TID 0000.0001) deltatTtracer =   /* Tracer equation timestep ( s ) */
(PID.TID 0000.0001)                 3.000000000000000E+02
(PID.TID 0000.0001)     ;
(PID.TID 0000.0001) deltatTClock  =   /* Model clock timestep ( s ) */
(PID.TID 0000.0001)                 3.000000000000000E+02
(PID.TID 0000.0001)     ;
(PID.TID 0000.0001) cAdjFreq =   /* Convective adjustment interval ( s ) */
(PID.TID 0000.0001)                 0.000000000000000E+00
(PID.TID 0000.0001)     ;
(PID.TID 0000.0001) forcing_In_AB =   /* put T,S Forcing in Adams-Bash. stepping */
(PID.TID 0000.0001)                   T
(PID.TID 0000.0001)     ;
(PID.TID 0000.0001) abeps =   /* Adams-Bashforth stabilizing weight */
(PID.TID 0000.0001)                 1.000000000000000E-01
(PID.TID 0000.0001)     ;
(PID.TID 0000.0001) startTime =   /* Run start time ( s ). */
(PID.TID 0000.0001)                 0.000000000000000E+00
(PID.TID 0000.0001)     ;
(PID.TID 0000.0001) endTime =   /* Integration ending time ( s ). */
(PID.TID 0000.0001)                 6.000000000000000E+03
(PID.TID 0000.0001)     ;
(PID.TID 0000.0001) pChkPtFreq =   /* Permanent restart/checkpoint file interval ( s ). */
(PID.TID 0000.0001)                 0.000000000000000E+00
(PID.TID 0000.0001)     ;
(PID.TID 0000.0001) chkPtFreq =   /* Rolling restart/checkpoint file interval ( s ). */
(PID.TID 0000.0001)                 1.000000000000000E+05
(PID.TID 0000.0001)     ;
(PID.TID 0000.0001) dumpFreq =   /* Model state write out interval ( s ). */
(PID.TID 0000.0001)                 3.000000000000000E+04
(PID.TID 0000.0001)     ;
(PID.TID 0000.0001) externForcingPeriod =   /* forcing period (s) */
(PID.TID 0000.0001)                 0.000000000000000E+00
(PID.TID 0000.0001)     ;
(PID.TID 0000.0001) externForcingCycle =   /* period of the cyle (s). */
(PID.TID 0000.0001)                 0.000000000000000E+00
(PID.TID 0000.0001)     ;
(PID.TID 0000.0001) tauThetaClimRelax =   /* relaxation time scale (s) */
(PID.TID 0000.0001)                 0.000000000000000E+00
(PID.TID 0000.0001)     ;
(PID.TID 0000.0001) tauSaltClimRelax =   /* relaxation time scale (s) */
(PID.TID 0000.0001)                 0.000000000000000E+00
(PID.TID 0000.0001)     ;
(PID.TID 0000.0001) latBandClimRelax =   /* max. Lat. where relaxation */
(PID.TID 0000.0001)                 8.818410084852436E+07
(PID.TID 0000.0001)     ;
(PID.TID 0000.0001) //
(PID.TID 0000.0001) // Gridding paramters ( PARM04 in namelist )
(PID.TID 0000.0001) //
(PID.TID 0000.0001) usingCartesianGrid =   /* Cartesian coordinates flag ( True / False ) */
(PID.TID 0000.0001)                   T
(PID.TID 0000.0001)     ;
(PID.TID 0000.0001) usingSphericalPolarGrid =   /* Spherical coordinates flag ( True / False ) */
(PID.TID 0000.0001)                   F
(PID.TID 0000.0001)     ;
(PID.TID 0000.0001) usingCylindricalGrid =   /* Spherical coordinates flag ( True / False ) */
(PID.TID 0000.0001)                   F
(PID.TID 0000.0001)     ;
(PID.TID 0000.0001) groundAtK1 =   /* Lower Boundary (ground) at the surface(k=1) ( T / F ) */
(PID.TID 0000.0001)                   F
(PID.TID 0000.0001)     ;
(PID.TID 0000.0001) Ro_SeaLevel =   /* r(1) ( units of r ) */
(PID.TID 0000.0001)                 0.000000000000000E+00
(PID.TID 0000.0001)     ;
(PID.TID 0000.0001) rkFac =   /* minus Vertical index orientation  */
(PID.TID 0000.0001)                 1.000000000000000E+00
(PID.TID 0000.0001)     ;
(PID.TID 0000.0001) horiVertRatio =   /* Ratio on units : Horiz - Vertical */
(PID.TID 0000.0001)                 1.000000000000000E+00
(PID.TID 0000.0001)     ;
(PID.TID 0000.0001) drC =   /* C spacing ( units of r ) */
(PID.TID 0000.0001)                 7.200000000000000E+01,      /* K =  1 */
(PID.TID 0000.0001)    24 @  1.440000000000000E+02              /* K =  2: 25 */
(PID.TID 0000.0001)     ;
(PID.TID 0000.0001) drF =   /* W spacing ( units of r ) */
(PID.TID 0000.0001)    25 @  1.440000000000000E+02              /* K =  1: 25 */
(PID.TID 0000.0001)     ;
(PID.TID 0000.0001) delX =   /* U spacing ( m - cartesian, degrees - spherical ) */
(PID.TID 0000.0001)   200 @  1.000000000000000E+04              /* I =  1:200 */
(PID.TID 0000.0001)     ;
(PID.TID 0000.0001) delY =   /* V spacing ( m - cartesian, degrees - spherical ) */
(PID.TID 0000.0001)                 4.354770412272808E+04,      /* J =  1 */
(PID.TID 0000.0001)                 3.976328763529614E+04,      /* J =  2 */
(PID.TID 0000.0001)                 3.845253979986927E+04,      /* J =  3 */
(PID.TID 0000.0001)                 3.330179774422351E+04,      /* J =  4 */
(PID.TID 0000.0001)                 2.498218561664100E+04,      /* J =  5 */
(PID.TID 0000.0001)                 1.850347835747289E+04,      /* J =  6 */
(PID.TID 0000.0001)                 1.476940894853175E+04,      /* J =  7 */
(PID.TID 0000.0001)                 1.272781949244290E+04,      /* J =  8 */
(PID.TID 0000.0001)                 1.159189758968330E+04,      /* J =  9 */
(PID.TID 0000.0001)                 1.094219501627191E+04,      /* J = 10 */
(PID.TID 0000.0001)                 1.056279034603045E+04,      /* J = 11 */
(PID.TID 0000.0001)                 1.033823866459392E+04,      /* J = 12 */
(PID.TID 0000.0001)                 1.020398171822501E+04,      /* J = 13 */
(PID.TID 0000.0001)                 1.012328472029299E+04,      /* J = 14 */
(PID.TID 0000.0001)                 1.007461407944328E+04,      /* J = 15 */
(PID.TID 0000.0001)                 1.004519587625975E+04,      /* J = 16 */
(PID.TID 0000.0001)                 1.002739060034890E+04,      /* J = 17 */
(PID.TID 0000.0001)                 1.001660509967246E+04,      /* J = 18 */
(PID.TID 0000.0001)                 1.001006850448283E+04,      /* J = 19 */
(PID.TID 0000.0001)                 1.000610575317793E+04,      /* J = 20 */
(PID.TID 0000.0001)                 1.000370292038679E+04,      /* J = 21 */
(PID.TID 0000.0001)                 1.000224578530626E+04,      /* J = 22 */
(PID.TID 0000.0001)                 1.000136208265968E+04,      /* J = 23 */
(PID.TID 0000.0001)                 1.000082612466494E+04,      /* J = 24 */
(PID.TID 0000.0001)                 1.000050106249572E+04,      /* J = 25 */
(PID.TID 0000.0001)                 1.000030390702810E+04,      /* J = 26 */
(PID.TID 0000.0001)                 1.000018432792299E+04,      /* J = 27 */
(PID.TID 0000.0001)                 1.000011180016617E+04,      /* J = 28 */
(PID.TID 0000.0001)                 1.000006781009222E+04,      /* J = 29 */
(PID.TID 0000.0001)                 1.000004112884983E+04,      /* J = 30 */
(PID.TID 0000.0001)                 1.000002494588998E+04,      /* J = 31 */
(PID.TID 0000.0001)                 1.000001513044032E+04,      /* J = 32 */
(PID.TID 0000.0001)                 1.000000917707345E+04,      /* J = 33 */
(PID.TID 0000.0001)                 1.000000556617549E+04,      /* J = 34 */
(PID.TID 0000.0001)                 1.000000337605576E+04,      /* J = 35 */
(PID.TID 0000.0001)                 1.000000204768121E+04,      /* J = 36 */
(PID.TID 0000.0001)                 1.000000124198138E+04,      /* J = 37 */
(PID.TID 0000.0001)                 1.000000075329977E+04,      /* J = 38 */
(PID.TID 0000.0001)                 1.000000045689940E+04,      /* J = 39 */
(PID.TID 0000.0001)                 1.000000027712349E+04,      /* J = 40 */
(PID.TID 0000.0001)                 1.000000016808389E+04,      /* J = 41 */
(PID.TID 0000.0001)                 1.000000010194804E+04,      /* J = 42 */
(PID.TID 0000.0001)                 1.000000006183461E+04,      /* J = 43 */
(PID.TID 0000.0001)                 1.000000003750459E+04,      /* J = 44 */
(PID.TID 0000.0001)                 1.000000002274768E+04       /* J = 45 */
(PID.TID 0000.0001)     ;
(PID.TID 0000.0001) phiMin =    /* South edge (ignored - cartesian, degrees - spherical ) */
(PID.TID 0000.0001)                 0.000000000000000E+00
(PID.TID 0000.0001)     ;
(PID.TID 0000.0001) thetaMin =    /* West edge ( ignored - cartesian, degrees - spherical ) */
(PID.TID 0000.0001)                 0.000000000000000E+00
(PID.TID 0000.0001)     ;
(PID.TID 0000.0001) rSphere =    /* Radius ( ignored - cartesian, m - spherical ) */
(PID.TID 0000.0001)                 6.370000000000000E+06
(PID.TID 0000.0001)     ;
(PID.TID 0000.0001) xcoord =   /* P-point X coord ( m - cartesian, degrees - spherical ) */
(PID.TID 0000.0001)                 5.000000000000000E+03,      /* I =  1 */
(PID.TID 0000.0001)                 1.500000000000000E+04,      /* I =  2 */
(PID.TID 0000.0001)                 2.500000000000000E+04,      /* I =  3 */
(PID.TID 0000.0001)                 3.500000000000000E+04,      /* I =  4 */
(PID.TID 0000.0001)                 4.500000000000000E+04,      /* I =  5 */
(PID.TID 0000.0001)                 5.500000000000000E+04,      /* I =  6 */
(PID.TID 0000.0001)                 6.500000000000000E+04,      /* I =  7 */
(PID.TID 0000.0001)                 7.500000000000000E+04,      /* I =  8 */
(PID.TID 0000.0001)                 8.500000000000000E+04,      /* I =  9 */
(PID.TID 0000.0001)                 9.500000000000000E+04,      /* I = 10 */
(PID.TID 0000.0001)                 1.050000000000000E+05,      /* I = 11 */
(PID.TID 0000.0001)                 1.150000000000000E+05,      /* I = 12 */
(PID.TID 0000.0001)                 1.250000000000000E+05,      /* I = 13 */
(PID.TID 0000.0001)                 1.350000000000000E+05,      /* I = 14 */
(PID.TID 0000.0001)                 1.450000000000000E+05,      /* I = 15 */
(PID.TID 0000.0001)                 1.550000000000000E+05,      /* I = 16 */
(PID.TID 0000.0001)                 1.650000000000000E+05,      /* I = 17 */
(PID.TID 0000.0001)                 1.750000000000000E+05,      /* I = 18 */
(PID.TID 0000.0001)                 1.850000000000000E+05,      /* I = 19 */
(PID.TID 0000.0001)                 1.950000000000000E+05,      /* I = 20 */
(PID.TID 0000.0001)                 2.050000000000000E+05,      /* I = 21 */
(PID.TID 0000.0001)                 2.150000000000000E+05,      /* I = 22 */
(PID.TID 0000.0001)                 2.250000000000000E+05,      /* I = 23 */
(PID.TID 0000.0001)                 2.350000000000000E+05,      /* I = 24 */
(PID.TID 0000.0001)                 2.450000000000000E+05,      /* I = 25 */
(PID.TID 0000.0001)                 2.550000000000000E+05,      /* I = 26 */
(PID.TID 0000.0001)                 2.650000000000000E+05,      /* I = 27 */
(PID.TID 0000.0001)                 2.750000000000000E+05,      /* I = 28 */
(PID.TID 0000.0001)                 2.850000000000000E+05,      /* I = 29 */
(PID.TID 0000.0001)                 2.950000000000000E+05,      /* I = 30 */
(PID.TID 0000.0001)                 3.050000000000000E+05,      /* I = 31 */
(PID.TID 0000.0001)                 3.150000000000000E+05,      /* I = 32 */
(PID.TID 0000.0001)                 3.250000000000000E+05,      /* I = 33 */
(PID.TID 0000.0001)                 3.350000000000000E+05,      /* I = 34 */
(PID.TID 0000.0001)                 3.450000000000000E+05,      /* I = 35 */
(PID.TID 0000.0001)                 3.550000000000000E+05,      /* I = 36 */
(PID.TID 0000.0001)                 3.650000000000000E+05,      /* I = 37 */
(PID.TID 0000.0001)                 3.750000000000000E+05,      /* I = 38 */
(PID.TID 0000.0001)                 3.850000000000000E+05,      /* I = 39 */
(PID.TID 0000.0001)                 3.950000000000000E+05,      /* I = 40 */
(PID.TID 0000.0001)                 4.050000000000000E+05,      /* I = 41 */
(PID.TID 0000.0001)                 4.150000000000000E+05,      /* I = 42 */
(PID.TID 0000.0001)                 4.250000000000000E+05,      /* I = 43 */
(PID.TID 0000.0001)                 4.350000000000000E+05,      /* I = 44 */
(PID.TID 0000.0001)                 4.450000000000000E+05,      /* I = 45 */
(PID.TID 0000.0001)                 4.550000000000000E+05,      /* I = 46 */
(PID.TID 0000.0001)                 4.650000000000000E+05,      /* I = 47 */
(PID.TID 0000.0001)                 4.750000000000000E+05,      /* I = 48 */
(PID.TID 0000.0001)                 4.850000000000000E+05,      /* I = 49 */
(PID.TID 0000.0001)                 4.950000000000000E+05,      /* I = 50 */
(PID.TID 0000.0001)                 5.050000000000000E+05,      /* I = 51 */
(PID.TID 0000.0001)                 5.150000000000000E+05,      /* I = 52 */
(PID.TID 0000.0001)                 5.250000000000000E+05,      /* I = 53 */
(PID.TID 0000.0001)                 5.350000000000000E+05,      /* I = 54 */
(PID.TID 0000.0001)                 5.450000000000000E+05,      /* I = 55 */
(PID.TID 0000.0001)                 5.550000000000000E+05,      /* I = 56 */
(PID.TID 0000.0001)                 5.650000000000000E+05,      /* I = 57 */
(PID.TID 0000.0001)                 5.750000000000000E+05,      /* I = 58 */
(PID.TID 0000.0001)                 5.850000000000000E+05,      /* I = 59 */
(PID.TID 0000.0001)                 5.950000000000000E+05,      /* I = 60 */
(PID.TID 0000.0001)                 6.050000000000000E+05,      /* I = 61 */
(PID.TID 0000.0001)                 6.150000000000000E+05,      /* I = 62 */
(PID.TID 0000.0001)                 6.250000000000000E+05,      /* I = 63 */
(PID.TID 0000.0001)                 6.350000000000000E+05,      /* I = 64 */
(PID.TID 0000.0001)                 6.450000000000000E+05,      /* I = 65 */
(PID.TID 0000.0001)                 6.550000000000000E+05,      /* I = 66 */
(PID.TID 0000.0001)                 6.650000000000000E+05,      /* I = 67 */
(PID.TID 0000.0001)                 6.750000000000000E+05,      /* I = 68 */
(PID.TID 0000.0001)                 6.850000000000000E+05,      /* I = 69 */
(PID.TID 0000.0001)                 6.950000000000000E+05,      /* I = 70 */
(PID.TID 0000.0001)                 7.050000000000000E+05,      /* I = 71 */
(PID.TID 0000.0001)                 7.150000000000000E+05,      /* I = 72 */
(PID.TID 0000.0001)                 7.250000000000000E+05,      /* I = 73 */
(PID.TID 0000.0001)                 7.350000000000000E+05,      /* I = 74 */
(PID.TID 0000.0001)                 7.450000000000000E+05,      /* I = 75 */
(PID.TID 0000.0001)                 7.550000000000000E+05,      /* I = 76 */
(PID.TID 0000.0001)                 7.650000000000000E+05,      /* I = 77 */
(PID.TID 0000.0001)                 7.750000000000000E+05,      /* I = 78 */
(PID.TID 0000.0001)                 7.850000000000000E+05,      /* I = 79 */
(PID.TID 0000.0001)                 7.950000000000000E+05,      /* I = 80 */
(PID.TID 0000.0001)                 8.050000000000000E+05,      /* I = 81 */
(PID.TID 0000.0001)                 8.150000000000000E+05,      /* I = 82 */
(PID.TID 0000.0001)                 8.250000000000000E+05,      /* I = 83 */
(PID.TID 0000.0001)                 8.350000000000000E+05,      /* I = 84 */
(PID.TID 0000.0001)                 8.450000000000000E+05,      /* I = 85 */
(PID.TID 0000.0001)                 8.550000000000000E+05,      /* I = 86 */
(PID.TID 0000.0001)                 8.650000000000000E+05,      /* I = 87 */
(PID.TID 0000.0001)                 8.750000000000000E+05,      /* I = 88 */
(PID.TID 0000.0001)                 8.850000000000000E+05,      /* I = 89 */
(PID.TID 0000.0001)                 8.950000000000000E+05,      /* I = 90 */
(PID.TID 0000.0001)                 9.050000000000000E+05,      /* I = 91 */
(PID.TID 0000.0001)                 9.150000000000000E+05,      /* I = 92 */
(PID.TID 0000.0001)                 9.250000000000000E+05,      /* I = 93 */
(PID.TID 0000.0001)                 9.350000000000000E+05,      /* I = 94 */
(PID.TID 0000.0001)                 9.450000000000000E+05,      /* I = 95 */
(PID.TID 0000.0001)                 9.550000000000000E+05,      /* I = 96 */
(PID.TID 0000.0001)                 9.650000000000000E+05,      /* I = 97 */
(PID.TID 0000.0001)                 9.750000000000000E+05,      /* I = 98 */
(PID.TID 0000.0001)                 9.850000000000000E+05,      /* I = 99 */
(PID.TID 0000.0001)                 9.950000000000000E+05,      /* I =100 */
(PID.TID 0000.0001)                 1.005000000000000E+06,      /* I =101 */
(PID.TID 0000.0001)                 1.015000000000000E+06,      /* I =102 */
(PID.TID 0000.0001)                 1.025000000000000E+06,      /* I =103 */
(PID.TID 0000.0001)                 1.035000000000000E+06,      /* I =104 */
(PID.TID 0000.0001)                 1.045000000000000E+06,      /* I =105 */
(PID.TID 0000.0001)                 1.055000000000000E+06,      /* I =106 */
(PID.TID 0000.0001)                 1.065000000000000E+06,      /* I =107 */
(PID.TID 0000.0001)                 1.075000000000000E+06,      /* I =108 */
(PID.TID 0000.0001)                 1.085000000000000E+06,      /* I =109 */
(PID.TID 0000.0001)                 1.095000000000000E+06,      /* I =110 */
(PID.TID 0000.0001)                 1.105000000000000E+06,      /* I =111 */
(PID.TID 0000.0001)                 1.115000000000000E+06,      /* I =112 */
(PID.TID 0000.0001)                 1.125000000000000E+06,      /* I =113 */
(PID.TID 0000.0001)                 1.135000000000000E+06,      /* I =114 */
(PID.TID 0000.0001)                 1.145000000000000E+06,      /* I =115 */
(PID.TID 0000.0001)                 1.155000000000000E+06,      /* I =116 */
(PID.TID 0000.0001)                 1.165000000000000E+06,      /* I =117 */
(PID.TID 0000.0001)                 1.175000000000000E+06,      /* I =118 */
(PID.TID 0000.0001)                 1.185000000000000E+06,      /* I =119 */
(PID.TID 0000.0001)                 1.195000000000000E+06,      /* I =120 */
(PID.TID 0000.0001)                 1.205000000000000E+06,      /* I =121 */
(PID.TID 0000.0001)                 1.215000000000000E+06,      /* I =122 */
(PID.TID 0000.0001)                 1.225000000000000E+06,      /* I =123 */
(PID.TID 0000.0001)                 1.235000000000000E+06,      /* I =124 */
(PID.TID 0000.0001)                 1.245000000000000E+06,      /* I =125 */
(PID.TID 0000.0001)                 1.255000000000000E+06,      /* I =126 */
(PID.TID 0000.0001)                 1.265000000000000E+06,      /* I =127 */
(PID.TID 0000.0001)                 1.275000000000000E+06,      /* I =128 */
(PID.TID 0000.0001)                 1.285000000000000E+06,      /* I =129 */
(PID.TID 0000.0001)                 1.295000000000000E+06,      /* I =130 */
(PID.TID 0000.0001)                 1.305000000000000E+06,      /* I =131 */
(PID.TID 0000.0001)                 1.315000000000000E+06,      /* I =132 */
(PID.TID 0000.0001)                 1.325000000000000E+06,      /* I =133 */
(PID.TID 0000.0001)                 1.335000000000000E+06,      /* I =134 */
(PID.TID 0000.0001)                 1.345000000000000E+06,      /* I =135 */
(PID.TID 0000.0001)                 1.355000000000000E+06,      /* I =136 */
(PID.TID 0000.0001)                 1.365000000000000E+06,      /* I =137 */
(PID.TID 0000.0001)                 1.375000000000000E+06,      /* I =138 */
(PID.TID 0000.0001)                 1.385000000000000E+06,      /* I =139 */
(PID.TID 0000.0001)                 1.395000000000000E+06,      /* I =140 */
(PID.TID 0000.0001)                 1.405000000000000E+06,      /* I =141 */
(PID.TID 0000.0001)                 1.415000000000000E+06,      /* I =142 */
(PID.TID 0000.0001)                 1.425000000000000E+06,      /* I =143 */
(PID.TID 0000.0001)                 1.435000000000000E+06,      /* I =144 */
(PID.TID 0000.0001)                 1.445000000000000E+06,      /* I =145 */
(PID.TID 0000.0001)                 1.455000000000000E+06,      /* I =146 */
(PID.TID 0000.0001)                 1.465000000000000E+06,      /* I =147 */
(PID.TID 0000.0001)                 1.475000000000000E+06,      /* I =148 */
(PID.TID 0000.0001)                 1.485000000000000E+06,      /* I =149 */
(PID.TID 0000.0001)                 1.495000000000000E+06,      /* I =150 */
(PID.TID 0000.0001)                 1.505000000000000E+06,      /* I =151 */
(PID.TID 0000.0001)                 1.515000000000000E+06,      /* I =152 */
(PID.TID 0000.0001)                 1.525000000000000E+06,      /* I =153 */
(PID.TID 0000.0001)                 1.535000000000000E+06,      /* I =154 */
(PID.TID 0000.0001)                 1.545000000000000E+06,      /* I =155 */
(PID.TID 0000.0001)                 1.555000000000000E+06,      /* I =156 */
(PID.TID 0000.0001)                 1.565000000000000E+06,      /* I =157 */
(PID.TID 0000.0001)                 1.575000000000000E+06,      /* I =158 */
(PID.TID 0000.0001)                 1.585000000000000E+06,      /* I =159 */
(PID.TID 0000.0001)                 1.595000000000000E+06,      /* I =160 */
(PID.TID 0000.0001)                 1.605000000000000E+06,      /* I =161 */
(PID.TID 0000.0001)                 1.615000000000000E+06,      /* I =162 */
(PID.TID 0000.0001)                 1.625000000000000E+06,      /* I =163 */
(PID.TID 0000.0001)                 1.635000000000000E+06,      /* I =164 */
(PID.TID 0000.0001)                 1.645000000000000E+06,      /* I =165 */
(PID.TID 0000.0001)                 1.655000000000000E+06,      /* I =166 */
(PID.TID 0000.0001)                 1.665000000000000E+06,      /* I =167 */
(PID.TID 0000.0001)                 1.675000000000000E+06,      /* I =168 */
(PID.TID 0000.0001)                 1.685000000000000E+06,      /* I =169 */
(PID.TID 0000.0001)                 1.695000000000000E+06,      /* I =170 */
(PID.TID 0000.0001)                 1.705000000000000E+06,      /* I =171 */
(PID.TID 0000.0001)                 1.715000000000000E+06,      /* I =172 */
(PID.TID 0000.0001)                 1.725000000000000E+06,      /* I =173 */
(PID.TID 0000.0001)                 1.735000000000000E+06,      /* I =174 */
(PID.TID 0000.0001)                 1.745000000000000E+06,      /* I =175 */
(PID.TID 0000.0001)                 1.755000000000000E+06,      /* I =176 */
(PID.TID 0000.0001)                 1.765000000000000E+06,      /* I =177 */
(PID.TID 0000.0001)                 1.775000000000000E+06,      /* I =178 */
(PID.TID 0000.0001)                 1.785000000000000E+06,      /* I =179 */
(PID.TID 0000.0001)                 1.795000000000000E+06,      /* I =180 */
(PID.TID 0000.0001)                 1.805000000000000E+06,      /* I =181 */
(PID.TID 0000.0001)                 1.815000000000000E+06,      /* I =182 */
(PID.TID 0000.0001)                 1.825000000000000E+06,      /* I =183 */
(PID.TID 0000.0001)                 1.835000000000000E+06,      /* I =184 */
(PID.TID 0000.0001)                 1.845000000000000E+06,      /* I =185 */
(PID.TID 0000.0001)                 1.855000000000000E+06,      /* I =186 */
(PID.TID 0000.0001)                 1.865000000000000E+06,      /* I =187 */
(PID.TID 0000.0001)                 1.875000000000000E+06,      /* I =188 */
(PID.TID 0000.0001)                 1.885000000000000E+06,      /* I =189 */
(PID.TID 0000.0001)                 1.895000000000000E+06,      /* I =190 */
(PID.TID 0000.0001)                 1.905000000000000E+06,      /* I =191 */
(PID.TID 0000.0001)                 1.915000000000000E+06,      /* I =192 */
(PID.TID 0000.0001)                 1.925000000000000E+06,      /* I =193 */
(PID.TID 0000.0001)                 1.935000000000000E+06,      /* I =194 */
(PID.TID 0000.0001)                 1.945000000000000E+06,      /* I =195 */
(PID.TID 0000.0001)                 1.955000000000000E+06,      /* I =196 */
(PID.TID 0000.0001)                 1.965000000000000E+06,      /* I =197 */
(PID.TID 0000.0001)                 1.975000000000000E+06,      /* I =198 */
(PID.TID 0000.0001)                 1.985000000000000E+06,      /* I =199 */
(PID.TID 0000.0001)                 1.995000000000000E+06       /* I =200 */
(PID.TID 0000.0001)     ;
(PID.TID 0000.0001) ycoord =   /* P-point Y coord ( m - cartesian, degrees - spherical ) */
(PID.TID 0000.0001)                 2.177385206136404E+04,      /* J =  1 */
(PID.TID 0000.0001)                 6.342934794037614E+04,      /* J =  2 */
(PID.TID 0000.0001)                 1.025372616579589E+05,      /* J =  3 */
(PID.TID 0000.0001)                 1.384144304300052E+05,      /* J =  4 */
(PID.TID 0000.0001)                 1.675564221104375E+05,      /* J =  5 */
(PID.TID 0000.0001)                 1.892992540974945E+05,      /* J =  6 */
(PID.TID 0000.0001)                 2.059356977504968E+05,      /* J =  7 */
(PID.TID 0000.0001)                 2.196843119709841E+05,      /* J =  8 */
(PID.TID 0000.0001)                 2.318441705120472E+05,      /* J =  9 */
(PID.TID 0000.0001)                 2.431112168150248E+05,      /* J = 10 */
(PID.TID 0000.0001)                 2.538637094961760E+05,      /* J = 11 */
(PID.TID 0000.0001)                 2.643142240014882E+05,      /* J = 12 */
(PID.TID 0000.0001)                 2.745853341928977E+05,      /* J = 13 */
(PID.TID 0000.0001)                 2.847489674121566E+05,      /* J = 14 */
(PID.TID 0000.0001)                 2.948479168120248E+05,      /* J = 15 */
(PID.TID 0000.0001)                 3.049078217898763E+05,      /* J = 16 */
(PID.TID 0000.0001)                 3.149441150281806E+05,      /* J = 17 */
(PID.TID 0000.0001)                 3.249661128781913E+05,      /* J = 18 */
(PID.TID 0000.0001)                 3.349794496802689E+05,      /* J = 19 */
(PID.TID 0000.0001)                 3.449875368090994E+05,      /* J = 20 */
(PID.TID 0000.0001)                 3.549924411458817E+05,      /* J = 21 */
(PID.TID 0000.0001)                 3.649954154987283E+05,      /* J = 22 */
(PID.TID 0000.0001)                 3.749972194327113E+05,      /* J = 23 */
(PID.TID 0000.0001)                 3.849983135363735E+05,      /* J = 24 */
(PID.TID 0000.0001)                 3.949989771299538E+05,      /* J = 25 */
(PID.TID 0000.0001)                 4.049993796147157E+05,      /* J = 26 */
(PID.TID 0000.0001)                 4.149996237321913E+05,      /* J = 27 */
(PID.TID 0000.0001)                 4.249997717962359E+05,      /* J = 28 */
(PID.TID 0000.0001)                 4.349998616013651E+05,      /* J = 29 */
(PID.TID 0000.0001)                 4.449999160708361E+05,      /* J = 30 */
(PID.TID 0000.0001)                 4.549999491082059E+05,      /* J = 31 */
(PID.TID 0000.0001)                 4.649999691463710E+05,      /* J = 32 */
(PID.TID 0000.0001)                 4.749999813001279E+05,      /* J = 33 */
(PID.TID 0000.0001)                 4.849999886717524E+05,      /* J = 34 */
(PID.TID 0000.0001)                 4.949999931428680E+05,      /* J = 35 */
(PID.TID 0000.0001)                 5.049999958547364E+05,      /* J = 36 */
(PID.TID 0000.0001)                 5.149999974995677E+05,      /* J = 37 */
(PID.TID 0000.0001)                 5.249999984972083E+05,      /* J = 38 */
(PID.TID 0000.0001)                 5.349999991023079E+05,      /* J = 39 */
(PID.TID 0000.0001)                 5.449999994693194E+05,      /* J = 40 */
(PID.TID 0000.0001)                 5.549999996919231E+05,      /* J = 41 */
(PID.TID 0000.0001)                 5.649999998269391E+05,      /* J = 42 */
(PID.TID 0000.0001)                 5.749999999088305E+05,      /* J = 43 */
(PID.TID 0000.0001)                 5.849999999585000E+05,      /* J = 44 */
(PID.TID 0000.0001)                 5.949999999886262E+05       /* J = 45 */
(PID.TID 0000.0001)     ;
(PID.TID 0000.0001) rcoord =   /* P-point R coordinate (  units of r ) */
(PID.TID 0000.0001)                -7.200000000000000E+01,      /* K =  1 */
(PID.TID 0000.0001)                -2.160000000000000E+02,      /* K =  2 */
(PID.TID 0000.0001)                -3.600000000000000E+02,      /* K =  3 */
(PID.TID 0000.0001)                -5.040000000000000E+02,      /* K =  4 */
(PID.TID 0000.0001)                -6.480000000000000E+02,      /* K =  5 */
(PID.TID 0000.0001)                -7.920000000000000E+02,      /* K =  6 */
(PID.TID 0000.0001)                -9.360000000000000E+02,      /* K =  7 */
(PID.TID 0000.0001)                -1.080000000000000E+03,      /* K =  8 */
(PID.TID 0000.0001)                -1.224000000000000E+03,      /* K =  9 */
(PID.TID 0000.0001)                -1.368000000000000E+03,      /* K = 10 */
(PID.TID 0000.0001)                -1.512000000000000E+03,      /* K = 11 */
(PID.TID 0000.0001)                -1.656000000000000E+03,      /* K = 12 */
(PID.TID 0000.0001)                -1.800000000000000E+03,      /* K = 13 */
(PID.TID 0000.0001)                -1.944000000000000E+03,      /* K = 14 */
(PID.TID 0000.0001)                -2.088000000000000E+03,      /* K = 15 */
(PID.TID 0000.0001)                -2.232000000000000E+03,      /* K = 16 */
(PID.TID 0000.0001)                -2.376000000000000E+03,      /* K = 17 */
(PID.TID 0000.0001)                -2.520000000000000E+03,      /* K = 18 */
(PID.TID 0000.0001)                -2.664000000000000E+03,      /* K = 19 */
(PID.TID 0000.0001)                -2.808000000000000E+03,      /* K = 20 */
(PID.TID 0000.0001)                -2.952000000000000E+03,      /* K = 21 */
(PID.TID 0000.0001)                -3.096000000000000E+03,      /* K = 22 */
(PID.TID 0000.0001)                -3.240000000000000E+03,      /* K = 23 */
(PID.TID 0000.0001)                -3.384000000000000E+03,      /* K = 24 */
(PID.TID 0000.0001)                -3.528000000000000E+03       /* K = 25 */
(PID.TID 0000.0001)     ;
(PID.TID 0000.0001) rF =   /* W-Interf. R coordinate (  units of r ) */
(PID.TID 0000.0001)                 0.000000000000000E+00,      /* K =  1 */
(PID.TID 0000.0001)                -1.440000000000000E+02,      /* K =  2 */
(PID.TID 0000.0001)                -2.880000000000000E+02,      /* K =  3 */
(PID.TID 0000.0001)                -4.320000000000000E+02,      /* K =  4 */
(PID.TID 0000.0001)                -5.760000000000000E+02,      /* K =  5 */
(PID.TID 0000.0001)                -7.200000000000000E+02,      /* K =  6 */
(PID.TID 0000.0001)                -8.640000000000000E+02,      /* K =  7 */
(PID.TID 0000.0001)                -1.008000000000000E+03,      /* K =  8 */
(PID.TID 0000.0001)                -1.152000000000000E+03,      /* K =  9 */
(PID.TID 0000.0001)                -1.296000000000000E+03,      /* K = 10 */
(PID.TID 0000.0001)                -1.440000000000000E+03,      /* K = 11 */
(PID.TID 0000.0001)                -1.584000000000000E+03,      /* K = 12 */
(PID.TID 0000.0001)                -1.728000000000000E+03,      /* K = 13 */
(PID.TID 0000.0001)                -1.872000000000000E+03,      /* K = 14 */
(PID.TID 0000.0001)                -2.016000000000000E+03,      /* K = 15 */
(PID.TID 0000.0001)                -2.160000000000000E+03,      /* K = 16 */
(PID.TID 0000.0001)                -2.304000000000000E+03,      /* K = 17 */
(PID.TID 0000.0001)                -2.448000000000000E+03,      /* K = 18 */
(PID.TID 0000.0001)                -2.592000000000000E+03,      /* K = 19 */
(PID.TID 0000.0001)                -2.736000000000000E+03,      /* K = 20 */
(PID.TID 0000.0001)                -2.880000000000000E+03,      /* K = 21 */
(PID.TID 0000.0001)                -3.024000000000000E+03,      /* K = 22 */
(PID.TID 0000.0001)                -3.168000000000000E+03,      /* K = 23 */
(PID.TID 0000.0001)                -3.312000000000000E+03,      /* K = 24 */
(PID.TID 0000.0001)                -3.456000000000000E+03,      /* K = 25 */
(PID.TID 0000.0001)                -3.600000000000000E+03       /* K = 26 */
(PID.TID 0000.0001)     ;
(PID.TID 0000.0001) dxF =  /* dxF(:,1,:,1) ( m - cartesian, degrees - spherical ) */
(PID.TID 0000.0001)   200 @  1.000000000000000E+04              /* I =  1:200 */
(PID.TID 0000.0001)     ;
(PID.TID 0000.0001) dxF =  /* dxF(1,:,1,:) ( m - cartesian, degrees - spherical ) */
(PID.TID 0000.0001)    45 @  1.000000000000000E+04              /* J =  1: 45 */
(PID.TID 0000.0001)     ;
(PID.TID 0000.0001) dyF =  /* dyF(:,1,:,1) ( m - cartesian, degrees - spherical ) */
(PID.TID 0000.0001)   200 @  4.354770412272808E+04              /* I =  1:200 */
(PID.TID 0000.0001)     ;
(PID.TID 0000.0001) dyF =  /* dyF(1,:,1,:) ( m - cartesian, degrees - spherical ) */
(PID.TID 0000.0001)                 4.354770412272808E+04,      /* J =  1 */
(PID.TID 0000.0001)                 3.976328763529614E+04,      /* J =  2 */
(PID.TID 0000.0001)                 3.845253979986927E+04,      /* J =  3 */
(PID.TID 0000.0001)                 3.330179774422351E+04,      /* J =  4 */
(PID.TID 0000.0001)                 2.498218561664100E+04,      /* J =  5 */
(PID.TID 0000.0001)                 1.850347835747289E+04,      /* J =  6 */
(PID.TID 0000.0001)                 1.476940894853175E+04,      /* J =  7 */
(PID.TID 0000.0001)                 1.272781949244290E+04,      /* J =  8 */
(PID.TID 0000.0001)                 1.159189758968330E+04,      /* J =  9 */
(PID.TID 0000.0001)                 1.094219501627191E+04,      /* J = 10 */
(PID.TID 0000.0001)                 1.056279034603045E+04,      /* J = 11 */
(PID.TID 0000.0001)                 1.033823866459392E+04,      /* J = 12 */
(PID.TID 0000.0001)                 1.020398171822501E+04,      /* J = 13 */
(PID.TID 0000.0001)                 1.012328472029299E+04,      /* J = 14 */
(PID.TID 0000.0001)                 1.007461407944328E+04,      /* J = 15 */
(PID.TID 0000.0001)                 1.004519587625975E+04,      /* J = 16 */
(PID.TID 0000.0001)                 1.002739060034890E+04,      /* J = 17 */
(PID.TID 0000.0001)                 1.001660509967246E+04,      /* J = 18 */
(PID.TID 0000.0001)                 1.001006850448283E+04,      /* J = 19 */
(PID.TID 0000.0001)                 1.000610575317793E+04,      /* J = 20 */
(PID.TID 0000.0001)                 1.000370292038679E+04,      /* J = 21 */
(PID.TID 0000.0001)                 1.000224578530626E+04,      /* J = 22 */
(PID.TID 0000.0001)                 1.000136208265968E+04,      /* J = 23 */
(PID.TID 0000.0001)                 1.000082612466494E+04,      /* J = 24 */
(PID.TID 0000.0001)                 1.000050106249572E+04,      /* J = 25 */
(PID.TID 0000.0001)                 1.000030390702810E+04,      /* J = 26 */
(PID.TID 0000.0001)                 1.000018432792299E+04,      /* J = 27 */
(PID.TID 0000.0001)                 1.000011180016617E+04,      /* J = 28 */
(PID.TID 0000.0001)                 1.000006781009222E+04,      /* J = 29 */
(PID.TID 0000.0001)                 1.000004112884983E+04,      /* J = 30 */
(PID.TID 0000.0001)                 1.000002494588998E+04,      /* J = 31 */
(PID.TID 0000.0001)                 1.000001513044032E+04,      /* J = 32 */
(PID.TID 0000.0001)                 1.000000917707345E+04,      /* J = 33 */
(PID.TID 0000.0001)                 1.000000556617549E+04,      /* J = 34 */
(PID.TID 0000.0001)                 1.000000337605576E+04,      /* J = 35 */
(PID.TID 0000.0001)                 1.000000204768121E+04,      /* J = 36 */
(PID.TID 0000.0001)                 1.000000124198138E+04,      /* J = 37 */
(PID.TID 0000.0001)                 1.000000075329977E+04,      /* J = 38 */
(PID.TID 0000.0001)                 1.000000045689940E+04,      /* J = 39 */
(PID.TID 0000.0001)                 1.000000027712349E+04,      /* J = 40 */
(PID.TID 0000.0001)                 1.000000016808389E+04,      /* J = 41 */
(PID.TID 0000.0001)                 1.000000010194804E+04,      /* J = 42 */
(PID.TID 0000.0001)                 1.000000006183461E+04,      /* J = 43 */
(PID.TID 0000.0001)                 1.000000003750459E+04,      /* J = 44 */
(PID.TID 0000.0001)                 1.000000002274768E+04       /* J = 45 */
(PID.TID 0000.0001)     ;
(PID.TID 0000.0001) dxG =  /* dxG(:,1,:,1) ( m - cartesian, degrees - spherical ) */
(PID.TID 0000.0001)   200 @  1.000000000000000E+04              /* I =  1:200 */
(PID.TID 0000.0001)     ;
(PID.TID 0000.0001) dxG =  /* dxG(1,:,1,:) ( m - cartesian, degrees - spherical ) */
(PID.TID 0000.0001)    45 @  1.000000000000000E+04              /* J =  1: 45 */
(PID.TID 0000.0001)     ;
(PID.TID 0000.0001) dyG =  /* dyG(:,1,:,1) ( m - cartesian, degrees - spherical ) */
(PID.TID 0000.0001)   200 @  4.354770412272808E+04              /* I =  1:200 */
(PID.TID 0000.0001)     ;
(PID.TID 0000.0001) dyG =  /* dyG(1,:,1,:) ( m - cartesian, degrees - spherical ) */
(PID.TID 0000.0001)                 4.354770412272808E+04,      /* J =  1 */
(PID.TID 0000.0001)                 3.976328763529614E+04,      /* J =  2 */
(PID.TID 0000.0001)                 3.845253979986927E+04,      /* J =  3 */
(PID.TID 0000.0001)                 3.330179774422351E+04,      /* J =  4 */
(PID.TID 0000.0001)                 2.498218561664100E+04,      /* J =  5 */
(PID.TID 0000.0001)                 1.850347835747289E+04,      /* J =  6 */
(PID.TID 0000.0001)                 1.476940894853175E+04,      /* J =  7 */
(PID.TID 0000.0001)                 1.272781949244290E+04,      /* J =  8 */
(PID.TID 0000.0001)                 1.159189758968330E+04,      /* J =  9 */
(PID.TID 0000.0001)                 1.094219501627191E+04,      /* J = 10 */
(PID.TID 0000.0001)                 1.056279034603045E+04,      /* J = 11 */
(PID.TID 0000.0001)                 1.033823866459392E+04,      /* J = 12 */
(PID.TID 0000.0001)                 1.020398171822501E+04,      /* J = 13 */
(PID.TID 0000.0001)                 1.012328472029299E+04,      /* J = 14 */
(PID.TID 0000.0001)                 1.007461407944328E+04,      /* J = 15 */
(PID.TID 0000.0001)                 1.004519587625975E+04,      /* J = 16 */
(PID.TID 0000.0001)                 1.002739060034890E+04,      /* J = 17 */
(PID.TID 0000.0001)                 1.001660509967246E+04,      /* J = 18 */
(PID.TID 0000.0001)                 1.001006850448283E+04,      /* J = 19 */
(PID.TID 0000.0001)                 1.000610575317793E+04,      /* J = 20 */
(PID.TID 0000.0001)                 1.000370292038679E+04,      /* J = 21 */
(PID.TID 0000.0001)                 1.000224578530626E+04,      /* J = 22 */
(PID.TID 0000.0001)                 1.000136208265968E+04,      /* J = 23 */
(PID.TID 0000.0001)                 1.000082612466494E+04,      /* J = 24 */
(PID.TID 0000.0001)                 1.000050106249572E+04,      /* J = 25 */
(PID.TID 0000.0001)                 1.000030390702810E+04,      /* J = 26 */
(PID.TID 0000.0001)                 1.000018432792299E+04,      /* J = 27 */
(PID.TID 0000.0001)                 1.000011180016617E+04,      /* J = 28 */
(PID.TID 0000.0001)                 1.000006781009222E+04,      /* J = 29 */
(PID.TID 0000.0001)                 1.000004112884983E+04,      /* J = 30 */
(PID.TID 0000.0001)                 1.000002494588998E+04,      /* J = 31 */
(PID.TID 0000.0001)                 1.000001513044032E+04,      /* J = 32 */
(PID.TID 0000.0001)                 1.000000917707345E+04,      /* J = 33 */
(PID.TID 0000.0001)                 1.000000556617549E+04,      /* J = 34 */
(PID.TID 0000.0001)                 1.000000337605576E+04,      /* J = 35 */
(PID.TID 0000.0001)                 1.000000204768121E+04,      /* J = 36 */
(PID.TID 0000.0001)                 1.000000124198138E+04,      /* J = 37 */
(PID.TID 0000.0001)                 1.000000075329977E+04,      /* J = 38 */
(PID.TID 0000.0001)                 1.000000045689940E+04,      /* J = 39 */
(PID.TID 0000.0001)                 1.000000027712349E+04,      /* J = 40 */
(PID.TID 0000.0001)                 1.000000016808389E+04,      /* J = 41 */
(PID.TID 0000.0001)                 1.000000010194804E+04,      /* J = 42 */
(PID.TID 0000.0001)                 1.000000006183461E+04,      /* J = 43 */
(PID.TID 0000.0001)                 1.000000003750459E+04,      /* J = 44 */
(PID.TID 0000.0001)                 1.000000002274768E+04       /* J = 45 */
(PID.TID 0000.0001)     ;
(PID.TID 0000.0001) dxC =  /* dxC(:,1,:,1) ( m - cartesian, degrees - spherical ) */
(PID.TID 0000.0001)   200 @  1.000000000000000E+04              /* I =  1:200 */
(PID.TID 0000.0001)     ;
(PID.TID 0000.0001) dxC =  /* dxC(1,:,1,:) ( m - cartesian, degrees - spherical ) */
(PID.TID 0000.0001)    45 @  1.000000000000000E+04              /* J =  1: 45 */
(PID.TID 0000.0001)     ;
(PID.TID 0000.0001) dyC =  /* dyC(:,1,:,1) ( m - cartesian, degrees - spherical ) */
(PID.TID 0000.0001)   200 @  2.677385207273788E+04              /* I =  1:200 */
(PID.TID 0000.0001)     ;
(PID.TID 0000.0001) dyC =  /* dyC(1,:,1,:) ( m - cartesian, degrees - spherical ) */
(PID.TID 0000.0001)                 2.677385207273788E+04,      /* J =  1 */
(PID.TID 0000.0001)                 4.165549587901211E+04,      /* J =  2 */
(PID.TID 0000.0001)                 3.910791371758271E+04,      /* J =  3 */
(PID.TID 0000.0001)                 3.587716877204639E+04,      /* J =  4 */
(PID.TID 0000.0001)                 2.914199168043226E+04,      /* J =  5 */
(PID.TID 0000.0001)                 2.174283198705695E+04,      /* J =  6 */
(PID.TID 0000.0001)                 1.663644365300232E+04,      /* J =  7 */
(PID.TID 0000.0001)                 1.374861422048732E+04,      /* J =  8 */
(PID.TID 0000.0001)                 1.215985854106310E+04,      /* J =  9 */
(PID.TID 0000.0001)                 1.126704630297760E+04,      /* J = 10 */
(PID.TID 0000.0001)                 1.075249268115118E+04,      /* J = 11 */
(PID.TID 0000.0001)                 1.045051450531219E+04,      /* J = 12 */
(PID.TID 0000.0001)                 1.027111019140946E+04,      /* J = 13 */
(PID.TID 0000.0001)                 1.016363321925900E+04,      /* J = 14 */
(PID.TID 0000.0001)                 1.009894939986813E+04,      /* J = 15 */
(PID.TID 0000.0001)                 1.005990497785152E+04,      /* J = 16 */
(PID.TID 0000.0001)                 1.003629323830432E+04,      /* J = 17 */
(PID.TID 0000.0001)                 1.002199785001068E+04,      /* J = 18 */
(PID.TID 0000.0001)                 1.001333680207765E+04,      /* J = 19 */
(PID.TID 0000.0001)                 1.000808712883038E+04,      /* J = 20 */
(PID.TID 0000.0001)                 1.000490433678236E+04,      /* J = 21 */
(PID.TID 0000.0001)                 1.000297435284652E+04,      /* J = 22 */
(PID.TID 0000.0001)                 1.000180393398297E+04,      /* J = 23 */
(PID.TID 0000.0001)                 1.000109410366231E+04,      /* J = 24 */
(PID.TID 0000.0001)                 1.000066359358033E+04,      /* J = 25 */
(PID.TID 0000.0001)                 1.000040248476191E+04,      /* J = 26 */
(PID.TID 0000.0001)                 1.000024411747555E+04,      /* J = 27 */
(PID.TID 0000.0001)                 1.000014806404458E+04,      /* J = 28 */
(PID.TID 0000.0001)                 1.000008980512919E+04,      /* J = 29 */
(PID.TID 0000.0001)                 1.000005446947102E+04,      /* J = 30 */
(PID.TID 0000.0001)                 1.000003303736990E+04,      /* J = 31 */
(PID.TID 0000.0001)                 1.000002003816515E+04,      /* J = 32 */
(PID.TID 0000.0001)                 1.000001215375688E+04,      /* J = 33 */
(PID.TID 0000.0001)                 1.000000737162447E+04,      /* J = 34 */
(PID.TID 0000.0001)                 1.000000447111562E+04,      /* J = 35 */
(PID.TID 0000.0001)                 1.000000271186848E+04,      /* J = 36 */
(PID.TID 0000.0001)                 1.000000164483129E+04,      /* J = 37 */
(PID.TID 0000.0001)                 1.000000099764058E+04,      /* J = 38 */
(PID.TID 0000.0001)                 1.000000060509959E+04,      /* J = 39 */
(PID.TID 0000.0001)                 1.000000036701145E+04,      /* J = 40 */
(PID.TID 0000.0001)                 1.000000022260369E+04,      /* J = 41 */
(PID.TID 0000.0001)                 1.000000013501597E+04,      /* J = 42 */
(PID.TID 0000.0001)                 1.000000008189132E+04,      /* J = 43 */
(PID.TID 0000.0001)                 1.000000004966960E+04,      /* J = 44 */
(PID.TID 0000.0001)                 1.000000003012614E+04       /* J = 45 */
(PID.TID 0000.0001)     ;
(PID.TID 0000.0001) dxV =  /* dxV(:,1,:,1) ( m - cartesian, degrees - spherical ) */
(PID.TID 0000.0001)   200 @  1.000000000000000E+04              /* I =  1:200 */
(PID.TID 0000.0001)     ;
(PID.TID 0000.0001) dxV =  /* dxV(1,:,1,:) ( m - cartesian, degrees - spherical ) */
(PID.TID 0000.0001)    45 @  1.000000000000000E+04              /* J =  1: 45 */
(PID.TID 0000.0001)     ;
(PID.TID 0000.0001) dyU =  /* dyU(:,1,:,1) ( m - cartesian, degrees - spherical ) */
(PID.TID 0000.0001)   200 @  2.677385207273788E+04              /* I =  1:200 */
(PID.TID 0000.0001)     ;
(PID.TID 0000.0001) dyU =  /* dyU(1,:,1,:) ( m - cartesian, degrees - spherical ) */
(PID.TID 0000.0001)                 2.677385207273788E+04,      /* J =  1 */
(PID.TID 0000.0001)                 4.165549587901211E+04,      /* J =  2 */
(PID.TID 0000.0001)                 3.910791371758271E+04,      /* J =  3 */
(PID.TID 0000.0001)                 3.587716877204639E+04,      /* J =  4 */
(PID.TID 0000.0001)                 2.914199168043226E+04,      /* J =  5 */
(PID.TID 0000.0001)                 2.174283198705695E+04,      /* J =  6 */
(PID.TID 0000.0001)                 1.663644365300232E+04,      /* J =  7 */
(PID.TID 0000.0001)                 1.374861422048732E+04,      /* J =  8 */
(PID.TID 0000.0001)                 1.215985854106310E+04,      /* J =  9 */
(PID.TID 0000.0001)                 1.126704630297760E+04,      /* J = 10 */
(PID.TID 0000.0001)                 1.075249268115118E+04,      /* J = 11 */
(PID.TID 0000.0001)                 1.045051450531219E+04,      /* J = 12 */
(PID.TID 0000.0001)                 1.027111019140946E+04,      /* J = 13 */
(PID.TID 0000.0001)                 1.016363321925900E+04,      /* J = 14 */
(PID.TID 0000.0001)                 1.009894939986813E+04,      /* J = 15 */
(PID.TID 0000.0001)                 1.005990497785152E+04,      /* J = 16 */
(PID.TID 0000.0001)                 1.003629323830432E+04,      /* J = 17 */
(PID.TID 0000.0001)                 1.002199785001068E+04,      /* J = 18 */
(PID.TID 0000.0001)                 1.001333680207765E+04,      /* J = 19 */
(PID.TID 0000.0001)                 1.000808712883038E+04,      /* J = 20 */
(PID.TID 0000.0001)                 1.000490433678236E+04,      /* J = 21 */
(PID.TID 0000.0001)                 1.000297435284652E+04,      /* J = 22 */
(PID.TID 0000.0001)                 1.000180393398297E+04,      /* J = 23 */
(PID.TID 0000.0001)                 1.000109410366231E+04,      /* J = 24 */
(PID.TID 0000.0001)                 1.000066359358033E+04,      /* J = 25 */
(PID.TID 0000.0001)                 1.000040248476191E+04,      /* J = 26 */
(PID.TID 0000.0001)                 1.000024411747555E+04,      /* J = 27 */
(PID.TID 0000.0001)                 1.000014806404458E+04,      /* J = 28 */
(PID.TID 0000.0001)                 1.000008980512919E+04,      /* J = 29 */
(PID.TID 0000.0001)                 1.000005446947102E+04,      /* J = 30 */
(PID.TID 0000.0001)                 1.000003303736990E+04,      /* J = 31 */
(PID.TID 0000.0001)                 1.000002003816515E+04,      /* J = 32 */
(PID.TID 0000.0001)                 1.000001215375688E+04,      /* J = 33 */
(PID.TID 0000.0001)                 1.000000737162447E+04,      /* J = 34 */
(PID.TID 0000.0001)                 1.000000447111562E+04,      /* J = 35 */
(PID.TID 0000.0001)                 1.000000271186848E+04,      /* J = 36 */
(PID.TID 0000.0001)                 1.000000164483129E+04,      /* J = 37 */
(PID.TID 0000.0001)                 1.000000099764058E+04,      /* J = 38 */
(PID.TID 0000.0001)                 1.000000060509959E+04,      /* J = 39 */
(PID.TID 0000.0001)                 1.000000036701145E+04,      /* J = 40 */
(PID.TID 0000.0001)                 1.000000022260369E+04,      /* J = 41 */
(PID.TID 0000.0001)                 1.000000013501597E+04,      /* J = 42 */
(PID.TID 0000.0001)                 1.000000008189132E+04,      /* J = 43 */
(PID.TID 0000.0001)                 1.000000004966960E+04,      /* J = 44 */
(PID.TID 0000.0001)                 1.000000003012614E+04       /* J = 45 */
(PID.TID 0000.0001)     ;
(PID.TID 0000.0001) rA =  /* rA(:,1,:,1) ( m - cartesian, degrees - spherical ) */
(PID.TID 0000.0001)   200 @  4.354770412272808E+08              /* I =  1:200 */
(PID.TID 0000.0001)     ;
(PID.TID 0000.0001) rA =  /* rA(1,:,1,:) ( m - cartesian, degrees - spherical ) */
(PID.TID 0000.0001)                 4.354770412272808E+08,      /* J =  1 */
(PID.TID 0000.0001)                 3.976328763529614E+08,      /* J =  2 */
(PID.TID 0000.0001)                 3.845253979986927E+08,      /* J =  3 */
(PID.TID 0000.0001)                 3.330179774422351E+08,      /* J =  4 */
(PID.TID 0000.0001)                 2.498218561664100E+08,      /* J =  5 */
(PID.TID 0000.0001)                 1.850347835747289E+08,      /* J =  6 */
(PID.TID 0000.0001)                 1.476940894853175E+08,      /* J =  7 */
(PID.TID 0000.0001)                 1.272781949244290E+08,      /* J =  8 */
(PID.TID 0000.0001)                 1.159189758968330E+08,      /* J =  9 */
(PID.TID 0000.0001)                 1.094219501627191E+08,      /* J = 10 */
(PID.TID 0000.0001)                 1.056279034603045E+08,      /* J = 11 */
(PID.TID 0000.0001)                 1.033823866459392E+08,      /* J = 12 */
(PID.TID 0000.0001)                 1.020398171822501E+08,      /* J = 13 */
(PID.TID 0000.0001)                 1.012328472029299E+08,      /* J = 14 */
(PID.TID 0000.0001)                 1.007461407944328E+08,      /* J = 15 */
(PID.TID 0000.0001)                 1.004519587625975E+08,      /* J = 16 */
(PID.TID 0000.0001)                 1.002739060034890E+08,      /* J = 17 */
(PID.TID 0000.0001)                 1.001660509967246E+08,      /* J = 18 */
(PID.TID 0000.0001)                 1.001006850448283E+08,      /* J = 19 */
(PID.TID 0000.0001)                 1.000610575317793E+08,      /* J = 20 */
(PID.TID 0000.0001)                 1.000370292038679E+08,      /* J = 21 */
(PID.TID 0000.0001)                 1.000224578530626E+08,      /* J = 22 */
(PID.TID 0000.0001)                 1.000136208265968E+08,      /* J = 23 */
(PID.TID 0000.0001)                 1.000082612466494E+08,      /* J = 24 */
(PID.TID 0000.0001)                 1.000050106249572E+08,      /* J = 25 */
(PID.TID 0000.0001)                 1.000030390702810E+08,      /* J = 26 */
(PID.TID 0000.0001)                 1.000018432792299E+08,      /* J = 27 */
(PID.TID 0000.0001)                 1.000011180016617E+08,      /* J = 28 */
(PID.TID 0000.0001)                 1.000006781009222E+08,      /* J = 29 */
(PID.TID 0000.0001)                 1.000004112884983E+08,      /* J = 30 */
(PID.TID 0000.0001)                 1.000002494588998E+08,      /* J = 31 */
(PID.TID 0000.0001)                 1.000001513044032E+08,      /* J = 32 */
(PID.TID 0000.0001)                 1.000000917707345E+08,      /* J = 33 */
(PID.TID 0000.0001)                 1.000000556617549E+08,      /* J = 34 */
(PID.TID 0000.0001)                 1.000000337605576E+08,      /* J = 35 */
(PID.TID 0000.0001)                 1.000000204768121E+08,      /* J = 36 */
(PID.TID 0000.0001)                 1.000000124198138E+08,      /* J = 37 */
(PID.TID 0000.0001)                 1.000000075329977E+08,      /* J = 38 */
(PID.TID 0000.0001)                 1.000000045689940E+08,      /* J = 39 */
(PID.TID 0000.0001)                 1.000000027712349E+08,      /* J = 40 */
(PID.TID 0000.0001)                 1.000000016808389E+08,      /* J = 41 */
(PID.TID 0000.0001)                 1.000000010194803E+08,      /* J = 42 */
(PID.TID 0000.0001)                 1.000000006183461E+08,      /* J = 43 */
(PID.TID 0000.0001)                 1.000000003750459E+08,      /* J = 44 */
(PID.TID 0000.0001)                 1.000000002274768E+08       /* J = 45 */
(PID.TID 0000.0001)     ;
(PID.TID 0000.0001) rAw =  /* rAw(:,1,:,1) ( m - cartesian, degrees - spherical ) */
(PID.TID 0000.0001)   200 @  4.354770412272808E+08              /* I =  1:200 */
(PID.TID 0000.0001)     ;
(PID.TID 0000.0001) rAw =  /* rAw(1,:,1,:) ( m - cartesian, degrees - spherical ) */
(PID.TID 0000.0001)                 4.354770412272808E+08,      /* J =  1 */
(PID.TID 0000.0001)                 3.976328763529614E+08,      /* J =  2 */
(PID.TID 0000.0001)                 3.845253979986927E+08,      /* J =  3 */
(PID.TID 0000.0001)                 3.330179774422351E+08,      /* J =  4 */
(PID.TID 0000.0001)                 2.498218561664100E+08,      /* J =  5 */
(PID.TID 0000.0001)                 1.850347835747289E+08,      /* J =  6 */
(PID.TID 0000.0001)                 1.476940894853175E+08,      /* J =  7 */
(PID.TID 0000.0001)                 1.272781949244290E+08,      /* J =  8 */
(PID.TID 0000.0001)                 1.159189758968330E+08,      /* J =  9 */
(PID.TID 0000.0001)                 1.094219501627191E+08,      /* J = 10 */
(PID.TID 0000.0001)                 1.056279034603045E+08,      /* J = 11 */
(PID.TID 0000.0001)                 1.033823866459392E+08,      /* J = 12 */
(PID.TID 0000.0001)                 1.020398171822501E+08,      /* J = 13 */
(PID.TID 0000.0001)                 1.012328472029299E+08,      /* J = 14 */
(PID.TID 0000.0001)                 1.007461407944328E+08,      /* J = 15 */
(PID.TID 0000.0001)                 1.004519587625975E+08,      /* J = 16 */
(PID.TID 0000.0001)                 1.002739060034890E+08,      /* J = 17 */
(PID.TID 0000.0001)                 1.001660509967246E+08,      /* J = 18 */
(PID.TID 0000.0001)                 1.001006850448283E+08,      /* J = 19 */
(PID.TID 0000.0001)                 1.000610575317793E+08,      /* J = 20 */
(PID.TID 0000.0001)                 1.000370292038679E+08,      /* J = 21 */
(PID.TID 0000.0001)                 1.000224578530626E+08,      /* J = 22 */
(PID.TID 0000.0001)                 1.000136208265968E+08,      /* J = 23 */
(PID.TID 0000.0001)                 1.000082612466494E+08,      /* J = 24 */
(PID.TID 0000.0001)                 1.000050106249572E+08,      /* J = 25 */
(PID.TID 0000.0001)                 1.000030390702810E+08,      /* J = 26 */
(PID.TID 0000.0001)                 1.000018432792299E+08,      /* J = 27 */
(PID.TID 0000.0001)                 1.000011180016617E+08,      /* J = 28 */
(PID.TID 0000.0001)                 1.000006781009222E+08,      /* J = 29 */
(PID.TID 0000.0001)                 1.000004112884983E+08,      /* J = 30 */
(PID.TID 0000.0001)                 1.000002494588998E+08,      /* J = 31 */
(PID.TID 0000.0001)                 1.000001513044032E+08,      /* J = 32 */
(PID.TID 0000.0001)                 1.000000917707345E+08,      /* J = 33 */
(PID.TID 0000.0001)                 1.000000556617549E+08,      /* J = 34 */
(PID.TID 0000.0001)                 1.000000337605576E+08,      /* J = 35 */
(PID.TID 0000.0001)                 1.000000204768121E+08,      /* J = 36 */
(PID.TID 0000.0001)                 1.000000124198138E+08,      /* J = 37 */
(PID.TID 0000.0001)                 1.000000075329977E+08,      /* J = 38 */
(PID.TID 0000.0001)                 1.000000045689940E+08,      /* J = 39 */
(PID.TID 0000.0001)                 1.000000027712349E+08,      /* J = 40 */
(PID.TID 0000.0001)                 1.000000016808389E+08,      /* J = 41 */
(PID.TID 0000.0001)                 1.000000010194803E+08,      /* J = 42 */
(PID.TID 0000.0001)                 1.000000006183461E+08,      /* J = 43 */
(PID.TID 0000.0001)                 1.000000003750459E+08,      /* J = 44 */
(PID.TID 0000.0001)                 1.000000002274768E+08       /* J = 45 */
(PID.TID 0000.0001)     ;
(PID.TID 0000.0001) rAs =  /* rAs(:,1,:,1) ( m - cartesian, degrees - spherical ) */
(PID.TID 0000.0001)   200 @  2.677385207273788E+08              /* I =  1:200 */
(PID.TID 0000.0001)     ;
(PID.TID 0000.0001) rAs =  /* rAs(1,:,1,:) ( m - cartesian, degrees - spherical ) */
(PID.TID 0000.0001)                 2.677385207273788E+08,      /* J =  1 */
(PID.TID 0000.0001)                 4.165549587901211E+08,      /* J =  2 */
(PID.TID 0000.0001)                 3.910791371758270E+08,      /* J =  3 */
(PID.TID 0000.0001)                 3.587716877204639E+08,      /* J =  4 */
(PID.TID 0000.0001)                 2.914199168043225E+08,      /* J =  5 */
(PID.TID 0000.0001)                 2.174283198705695E+08,      /* J =  6 */
(PID.TID 0000.0001)                 1.663644365300232E+08,      /* J =  7 */
(PID.TID 0000.0001)                 1.374861422048733E+08,      /* J =  8 */
(PID.TID 0000.0001)                 1.215985854106310E+08,      /* J =  9 */
(PID.TID 0000.0001)                 1.126704630297760E+08,      /* J = 10 */
(PID.TID 0000.0001)                 1.075249268115118E+08,      /* J = 11 */
(PID.TID 0000.0001)                 1.045051450531218E+08,      /* J = 12 */
(PID.TID 0000.0001)                 1.027111019140946E+08,      /* J = 13 */
(PID.TID 0000.0001)                 1.016363321925900E+08,      /* J = 14 */
(PID.TID 0000.0001)                 1.009894939986813E+08,      /* J = 15 */
(PID.TID 0000.0001)                 1.005990497785152E+08,      /* J = 16 */
(PID.TID 0000.0001)                 1.003629323830432E+08,      /* J = 17 */
(PID.TID 0000.0001)                 1.002199785001068E+08,      /* J = 18 */
(PID.TID 0000.0001)                 1.001333680207765E+08,      /* J = 19 */
(PID.TID 0000.0001)                 1.000808712883038E+08,      /* J = 20 */
(PID.TID 0000.0001)                 1.000490433678236E+08,      /* J = 21 */
(PID.TID 0000.0001)                 1.000297435284652E+08,      /* J = 22 */
(PID.TID 0000.0001)                 1.000180393398297E+08,      /* J = 23 */
(PID.TID 0000.0001)                 1.000109410366231E+08,      /* J = 24 */
(PID.TID 0000.0001)                 1.000066359358033E+08,      /* J = 25 */
(PID.TID 0000.0001)                 1.000040248476191E+08,      /* J = 26 */
(PID.TID 0000.0001)                 1.000024411747555E+08,      /* J = 27 */
(PID.TID 0000.0001)                 1.000014806404458E+08,      /* J = 28 */
(PID.TID 0000.0001)                 1.000008980512919E+08,      /* J = 29 */
(PID.TID 0000.0001)                 1.000005446947102E+08,      /* J = 30 */
(PID.TID 0000.0001)                 1.000003303736990E+08,      /* J = 31 */
(PID.TID 0000.0001)                 1.000002003816515E+08,      /* J = 32 */
(PID.TID 0000.0001)                 1.000001215375689E+08,      /* J = 33 */
(PID.TID 0000.0001)                 1.000000737162447E+08,      /* J = 34 */
(PID.TID 0000.0001)                 1.000000447111562E+08,      /* J = 35 */
(PID.TID 0000.0001)                 1.000000271186848E+08,      /* J = 36 */
(PID.TID 0000.0001)                 1.000000164483129E+08,      /* J = 37 */
(PID.TID 0000.0001)                 1.000000099764058E+08,      /* J = 38 */
(PID.TID 0000.0001)                 1.000000060509959E+08,      /* J = 39 */
(PID.TID 0000.0001)                 1.000000036701145E+08,      /* J = 40 */
(PID.TID 0000.0001)                 1.000000022260369E+08,      /* J = 41 */
(PID.TID 0000.0001)                 1.000000013501597E+08,      /* J = 42 */
(PID.TID 0000.0001)                 1.000000008189132E+08,      /* J = 43 */
(PID.TID 0000.0001)                 1.000000004966960E+08,      /* J = 44 */
(PID.TID 0000.0001)                 1.000000003012614E+08       /* J = 45 */
(PID.TID 0000.0001)     ;
(PID.TID 0000.0001) 
(PID.TID 0000.0001)  MDSREADFIELD: opening global file: T.init
(PID.TID 0000.0001) // =======================================================
(PID.TID 0000.0001) // Field Initial Temperature at iteration          1
(PID.TID 0000.0001) // CMIN =         -1.941747572815533E-01
(PID.TID 0000.0001) // CMAX =         -1.941747572815533E-01
(PID.TID 0000.0001) // CINT =          0.000000000000000E+00
(PID.TID 0000.0001) // SYMBOLS (CMIN->CMAX): -abcdefghijklmnopqrstuvwxyz+
(PID.TID 0000.0001) //                  0.0: .
(PID.TID 0000.0001) // RANGE I (Lo:Hi:Step):(   1: 200:   1)
(PID.TID 0000.0001) // RANGE J (Lo:Hi:Step):(  45:   1:  -1)
(PID.TID 0000.0001) // RANGE K (Lo:Hi:Step):(   1:   1:   1)
(PID.TID 0000.0001) // =======================================================
(PID.TID 0000.0001) // =======================================================
(PID.TID 0000.0001) // END OF FIELD                                          =
(PID.TID 0000.0001) // =======================================================
(PID.TID 0000.0001) 
(PID.TID 0000.0001) // =======================================================
(PID.TID 0000.0001) // Field Initial Salinity at iteration          1
(PID.TID 0000.0001) // CMIN =          1.000000000000000E+00
(PID.TID 0000.0001) // CMAX =          1.000000000000000E+00
(PID.TID 0000.0001) // CINT =          0.000000000000000E+00
(PID.TID 0000.0001) // SYMBOLS (CMIN->CMAX): -abcdefghijklmnopqrstuvwxyz+
(PID.TID 0000.0001) //                  0.0: .
(PID.TID 0000.0001) // RANGE I (Lo:Hi:Step):(   1: 200:   1)
(PID.TID 0000.0001) // RANGE J (Lo:Hi:Step):(  45:   1:  -1)
(PID.TID 0000.0001) // RANGE K (Lo:Hi:Step):(   1:   1:   1)
(PID.TID 0000.0001) // =======================================================
(PID.TID 0000.0001) // =======================================================
(PID.TID 0000.0001) // END OF FIELD                                          =
(PID.TID 0000.0001) // =======================================================
(PID.TID 0000.0001) 
(PID.TID 0000.0001) Start initial hydrostatic pressure computation
(PID.TID 0000.0001) Pressure is predetermined for buoyancyRelation OCEANIC
(PID.TID 0000.0001) 
(PID.TID 0000.0001) // =======================================================
(PID.TID 0000.0001) // Model current state
(PID.TID 0000.0001) // =======================================================
(PID.TID 0000.0001) 
(PID.TID 0000.0001) // =======================================================
(PID.TID 0000.0001) // Begin MONITOR dynamic field statistics
(PID.TID 0000.0001) // =======================================================
(PID.TID 0000.0001) %MON time_tsnumber                =                     0
(PID.TID 0000.0001) %MON time_secondsf                =   0.0000000000000E+00
(PID.TID 0000.0001) %MON dynstat_eta_max              =   0.0000000000000E+00
(PID.TID 0000.0001) %MON dynstat_eta_min              =   0.0000000000000E+00
(PID.TID 0000.0001) %MON dynstat_eta_mean             =   0.0000000000000E+00
(PID.TID 0000.0001) %MON dynstat_eta_sd               =   0.0000000000000E+00
(PID.TID 0000.0001) %MON dynstat_eta_del2             =   0.0000000000000E+00
(PID.TID 0000.0001) %MON dynstat_uvel_max             =   0.0000000000000E+00
(PID.TID 0000.0001) %MON dynstat_uvel_min             =   0.0000000000000E+00
(PID.TID 0000.0001) %MON dynstat_uvel_mean            =   0.0000000000000E+00
(PID.TID 0000.0001) %MON dynstat_uvel_sd              =   0.0000000000000E+00
(PID.TID 0000.0001) %MON dynstat_uvel_del2            =   0.0000000000000E+00
(PID.TID 0000.0001) %MON dynstat_vvel_max             =   0.0000000000000E+00
(PID.TID 0000.0001) %MON dynstat_vvel_min             =  -1.9393425212476E+00
(PID.TID 0000.0001) %MON dynstat_vvel_mean            =  -3.4481281093507E-05
(PID.TID 0000.0001) %MON dynstat_vvel_sd              =   6.8634250558140E-03
(PID.TID 0000.0001) %MON dynstat_vvel_del2            =   4.7959883259205E-05
(PID.TID 0000.0001) %MON dynstat_wvel_max             =   4.8654876599978E-02
(PID.TID 0000.0001) %MON dynstat_wvel_min             =  -4.8654876671778E-02
(PID.TID 0000.0001) %MON dynstat_wvel_mean            =  -1.8038706057127E-22
(PID.TID 0000.0001) %MON dynstat_wvel_sd              =   3.1707972158465E-04
(PID.TID 0000.0001) %MON dynstat_wvel_del2            =   4.1329437904732E-06
(PID.TID 0000.0001) %MON dynstat_theta_max            =  -1.9417475728155E-01
(PID.TID 0000.0001) %MON dynstat_theta_min            =  -9.7087381093410E+00
(PID.TID 0000.0001) %MON dynstat_theta_mean           =  -4.1282029734286E+00
(PID.TID 0000.0001) %MON dynstat_theta_sd             =   2.6834035016147E+00
(PID.TID 0000.0001) %MON dynstat_theta_del2           =   4.4351272023061E-04
(PID.TID 0000.0001) %MON dynstat_salt_max             =   2.0000000000000E+00
(PID.TID 0000.0001) %MON dynstat_salt_min             =   1.0000000000000E+00
(PID.TID 0000.0001) %MON dynstat_salt_mean            =   1.0000284002028E+00
(PID.TID 0000.0001) %MON dynstat_salt_sd              =   5.1195250063010E-03
(PID.TID 0000.0001) %MON dynstat_salt_del2            =   5.5335980057108E-05
(PID.TID 0000.0001) %MON advcfl_uvel_max              =   0.0000000000000E+00
(PID.TID 0000.0001) %MON advcfl_vvel_max              =   5.8180275462155E-02
(PID.TID 0000.0001) %MON advcfl_wvel_max              =   2.0272865279907E-01
(PID.TID 0000.0001) %MON advcfl_W_hf_max              =   2.0272865279907E-01
(PID.TID 0000.0001) %MON pe_b_mean                    =   0.0000000000000E+00
(PID.TID 0000.0001) %MON ke_max                       =   9.4026235437356E-01
(PID.TID 0000.0001) %MON ke_mean                      =   2.2000289742655E-05
(PID.TID 0000.0001) %MON ke_vol                       =   2.7059236822588E+15
(PID.TID 0000.0001) %MON vort_r_min                   =  -1.9393425212476E-04
(PID.TID 0000.0001) %MON vort_r_max                   =   1.0515998621734E-04
(PID.TID 0000.0001) %MON vort_a_mean                  =   1.0000000000001E-04
(PID.TID 0000.0001) %MON vort_a_sd                    =   7.5823205995655E-07
(PID.TID 0000.0001) %MON vort_p_mean                  =   1.1277618388223E-04
(PID.TID 0000.0001) %MON vort_p_sd                    =   7.1146391807452E-05
(PID.TID 0000.0001) %MON surfExpan_theta_mean         =   2.0884615731473E-12
(PID.TID 0000.0001) %MON surfExpan_salt_mean          =  -1.1786743486735E-21
(PID.TID 0000.0001) // =======================================================
(PID.TID 0000.0001) // End MONITOR dynamic field statistics
(PID.TID 0000.0001) // =======================================================
 cg2d: Sum(rhs),rhsMax =  -1.79399772433238E+00  1.13119284727715E+00
(PID.TID 0000.0001)                    cg2d_init_res =    1.12170834187779E+00
(PID.TID 0000.0001)                       cg2d_iters =    78
(PID.TID 0000.0001)                         cg2d_res =    8.27727320578679E-12
(PID.TID 0000.0001) // =======================================================
(PID.TID 0000.0001) // Begin MONITOR dynamic field statistics
(PID.TID 0000.0001) // =======================================================
(PID.TID 0000.0001) %MON time_tsnumber                =                     1
(PID.TID 0000.0001) %MON time_secondsf                =   3.0000000000000E+02
(PID.TID 0000.0001) %MON dynstat_eta_max              =   3.0475899545130E+00
(PID.TID 0000.0001) %MON dynstat_eta_min              =   0.0000000000000E+00
(PID.TID 0000.0001) %MON dynstat_eta_mean             =   2.5813385030270E-03
(PID.TID 0000.0001) %MON dynstat_eta_sd               =   5.2437937258344E-02
(PID.TID 0000.0001) %MON dynstat_eta_del2             =   7.7949661303752E-04
(PID.TID 0000.0001) %MON dynstat_uvel_max             =   2.3857549712629E-01
(PID.TID 0000.0001) %MON dynstat_uvel_min             =  -3.6257406326658E-02
(PID.TID 0000.0001) %MON dynstat_uvel_mean            =   3.9200721675955E-05
(PID.TID 0000.0001) %MON dynstat_uvel_sd              =   2.1435116992299E-03
(PID.TID 0000.0001) %MON dynstat_uvel_del2            =   2.3922082552270E-05
(PID.TID 0000.0001) %MON dynstat_vvel_max             =   1.5624566750975E-06
(PID.TID 0000.0001) %MON dynstat_vvel_min             =  -1.9393425212476E+00
(PID.TID 0000.0001) %MON dynstat_vvel_mean            =  -1.0469502755662E-04
(PID.TID 0000.0001) %MON dynstat_vvel_sd              =   7.5358863362745E-03
(PID.TID 0000.0001) %MON dynstat_vvel_del2            =   5.1798265365740E-05
(PID.TID 0000.0001) %MON dynstat_wvel_max             =   2.8453732666448E-02
(PID.TID 0000.0001) %MON dynstat_wvel_min             =  -4.8654876671778E-02
(PID.TID 0000.0001) %MON dynstat_wvel_mean            =  -1.1220339136841E-22
(PID.TID 0000.0001) %MON dynstat_wvel_sd              =   2.5619345515294E-04
(PID.TID 0000.0001) %MON dynstat_wvel_del2            =   2.7330430688626E-06
(PID.TID 0000.0001) %MON dynstat_theta_max            =  -1.9417475728155E-01
(PID.TID 0000.0001) %MON dynstat_theta_min            =  -9.7087381093410E+00
(PID.TID 0000.0001) %MON dynstat_theta_mean           =  -4.1282112077303E+00
(PID.TID 0000.0001) %MON dynstat_theta_sd             =   2.6833953070199E+00
(PID.TID 0000.0001) %MON dynstat_theta_del2           =   4.3485451105791E-04
(PID.TID 0000.0001) %MON dynstat_salt_max             =   2.0000000000000E+00
(PID.TID 0000.0001) %MON dynstat_salt_min             =   1.0000000000000E+00
(PID.TID 0000.0001) %MON dynstat_salt_mean            =   1.0000292676600E+00
(PID.TID 0000.0001) %MON dynstat_salt_sd              =   5.1227749651441E-03
(PID.TID 0000.0001) %MON dynstat_salt_del2            =   5.4236572178562E-05
(PID.TID 0000.0001) %MON advcfl_uvel_max              =   7.1572649137888E-03
(PID.TID 0000.0001) %MON advcfl_vvel_max              =   5.8180275462155E-02
(PID.TID 0000.0001) %MON advcfl_wvel_max              =   2.0272865279907E-01
(PID.TID 0000.0001) %MON advcfl_W_hf_max              =   2.0272865279907E-01
(PID.TID 0000.0001) %MON pe_b_mean                    =   5.0606543254453E-06
(PID.TID 0000.0001) %MON ke_max                       =   9.9689088168438E-01
(PID.TID 0000.0001) %MON ke_mean                      =   2.8813297728601E-05
(PID.TID 0000.0001) %MON ke_vol                       =   2.7059236822588E+15
(PID.TID 0000.0001) %MON vort_r_min                   =  -1.9393425212476E-04
(PID.TID 0000.0001) %MON vort_r_max                   =   1.2822883596384E-04
(PID.TID 0000.0001) %MON vort_a_mean                  =   1.0000000000001E-04
(PID.TID 0000.0001) %MON vort_a_sd                    =   8.7317703239174E-07
(PID.TID 0000.0001) %MON vort_p_mean                  =   1.1277618388223E-04
(PID.TID 0000.0001) %MON vort_p_sd                    =   7.1134840095604E-05
(PID.TID 0000.0001) %MON surfExpan_theta_mean         =  -1.4135447951585E-08
(PID.TID 0000.0001) %MON surfExpan_salt_mean          =  -1.7431582885079E-21
(PID.TID 0000.0001) // =======================================================
(PID.TID 0000.0001) // End MONITOR dynamic field statistics
(PID.TID 0000.0001) // =======================================================
 cg2d: Sum(rhs),rhsMax =  -8.38656873338725E+00  4.83954155335005E-01
(PID.TID 0000.0001)                    cg2d_init_res =    1.76499803761851E+00
(PID.TID 0000.0001)                       cg2d_iters =    83
(PID.TID 0000.0001)                         cg2d_res =    9.71342971170485E-12
(PID.TID 0000.0001) // =======================================================
(PID.TID 0000.0001) // Begin MONITOR dynamic field statistics
(PID.TID 0000.0001) // =======================================================
(PID.TID 0000.0001) %MON time_tsnumber                =                     2
(PID.TID 0000.0001) %MON time_secondsf                =   6.0000000000000E+02
(PID.TID 0000.0001) %MON dynstat_eta_max              =   2.3966546939833E+00
(PID.TID 0000.0001) %MON dynstat_eta_min              =   0.0000000000000E+00
(PID.TID 0000.0001) %MON dynstat_eta_mean             =   5.1626770061175E-03
(PID.TID 0000.0001) %MON dynstat_eta_sd               =   6.5642965975826E-02
(PID.TID 0000.0001) %MON dynstat_eta_del2             =   8.0890200461578E-04
(PID.TID 0000.0001) %MON dynstat_uvel_max             =   3.3467416510037E-01
(PID.TID 0000.0001) %MON dynstat_uvel_min             =  -1.0669874772062E-01
(PID.TID 0000.0001) %MON dynstat_uvel_mean            =   7.5611162712232E-05
(PID.TID 0000.0001) %MON dynstat_uvel_sd              =   3.6797177679851E-03
(PID.TID 0000.0001) %MON dynstat_uvel_del2            =   3.8292725758490E-05
(PID.TID 0000.0001) %MON dynstat_vvel_max             =   9.5227305076279E-06
(PID.TID 0000.0001) %MON dynstat_vvel_min             =  -1.9393425212476E+00
(PID.TID 0000.0001) %MON dynstat_vvel_mean            =  -2.0578333585799E-04
(PID.TID 0000.0001) %MON dynstat_vvel_sd              =   8.5763189343613E-03
(PID.TID 0000.0001) %MON dynstat_vvel_del2            =   5.4691526385126E-05
(PID.TID 0000.0001) %MON dynstat_wvel_max             =   2.2126377131141E-02
(PID.TID 0000.0001) %MON dynstat_wvel_min             =  -4.8654876671778E-02
(PID.TID 0000.0001) %MON dynstat_wvel_mean            =  -1.4819818427399E-22
(PID.TID 0000.0001) %MON dynstat_wvel_sd              =   2.4223972308622E-04
(PID.TID 0000.0001) %MON dynstat_wvel_del2            =   2.4350939751985E-06
(PID.TID 0000.0001) %MON dynstat_theta_max            =  -1.9417475728155E-01
(PID.TID 0000.0001) %MON dynstat_theta_min            =  -9.7087381093410E+00
(PID.TID 0000.0001) %MON dynstat_theta_mean           =  -4.1282194419153E+00
(PID.TID 0000.0001) %MON dynstat_theta_sd             =   2.6833879512193E+00
(PID.TID 0000.0001) %MON dynstat_theta_del2           =   4.2627307525865E-04
(PID.TID 0000.0001) %MON dynstat_salt_max             =   2.0000000000000E+00
(PID.TID 0000.0001) %MON dynstat_salt_min             =   1.0000000000000E+00
(PID.TID 0000.0001) %MON dynstat_salt_mean            =   1.0000301351172E+00
(PID.TID 0000.0001) %MON dynstat_salt_sd              =   5.1322731698221E-03
(PID.TID 0000.0001) %MON dynstat_salt_del2            =   5.3153174651481E-05
(PID.TID 0000.0001) %MON advcfl_uvel_max              =   1.0040224953011E-02
(PID.TID 0000.0001) %MON advcfl_vvel_max              =   5.8180275462155E-02
(PID.TID 0000.0001) %MON advcfl_wvel_max              =   2.0272865279907E-01
(PID.TID 0000.0001) %MON advcfl_W_hf_max              =   2.0272865279907E-01
(PID.TID 0000.0001) %MON pe_b_mean                    =   7.9601046960554E-06
(PID.TID 0000.0001) %MON ke_max                       =   1.0418202700934E+00
(PID.TID 0000.0001) %MON ke_mean                      =   4.1108893044813E-05
(PID.TID 0000.0001) %MON ke_vol                       =   2.7059236822588E+15
(PID.TID 0000.0001) %MON vort_r_min                   =  -1.9393425212476E-04
(PID.TID 0000.0001) %MON vort_r_max                   =   1.3595798314703E-04
(PID.TID 0000.0001) %MON vort_a_mean                  =   1.0000000000001E-04
(PID.TID 0000.0001) %MON vort_a_sd                    =   9.6366671049673E-07
(PID.TID 0000.0001) %MON vort_p_mean                  =   1.1277618388223E-04
(PID.TID 0000.0001) %MON vort_p_sd                    =   7.1129649618420E-05
(PID.TID 0000.0001) %MON surfExpan_theta_mean         =  -2.9035385476422E-09
(PID.TID 0000.0001) %MON surfExpan_salt_mean          =  -5.5666854376874E-15
(PID.TID 0000.0001) // =======================================================
(PID.TID 0000.0001) // End MONITOR dynamic field statistics
(PID.TID 0000.0001) // =======================================================
 cg2d: Sum(rhs),rhsMax =  -2.85012521861412E+01  2.13607182643884E-01
(PID.TID 0000.0001)                    cg2d_init_res =    2.23260927836063E+00
(PID.TID 0000.0001)                       cg2d_iters =    86
(PID.TID 0000.0001)                         cg2d_res =    9.30832426532904E-12
(PID.TID 0000.0001) // =======================================================
(PID.TID 0000.0001) // Begin MONITOR dynamic field statistics
(PID.TID 0000.0001) // =======================================================
(PID.TID 0000.0001) %MON time_tsnumber                =                     3
(PID.TID 0000.0001) %MON time_secondsf                =   9.0000000000000E+02
(PID.TID 0000.0001) %MON dynstat_eta_max              =   1.4893938542534E+00
(PID.TID 0000.0001) %MON dynstat_eta_min              =   0.0000000000000E+00
(PID.TID 0000.0001) %MON dynstat_eta_mean             =   7.7440155092137E-03
(PID.TID 0000.0001) %MON dynstat_eta_sd               =   6.7451532034613E-02
(PID.TID 0000.0001) %MON dynstat_eta_del2             =   7.4926950038922E-04
(PID.TID 0000.0001) %MON dynstat_uvel_max             =   3.5898826051584E-01
(PID.TID 0000.0001) %MON dynstat_uvel_min             =  -1.7505551911967E-01
(PID.TID 0000.0001) %MON dynstat_uvel_mean            =   9.2257635434652E-05
(PID.TID 0000.0001) %MON dynstat_uvel_sd              =   4.4885121611611E-03
(PID.TID 0000.0001) %MON dynstat_uvel_del2            =   4.4968879729092E-05
(PID.TID 0000.0001) %MON dynstat_vvel_max             =   2.9998209825754E-05
(PID.TID 0000.0001) %MON dynstat_vvel_min             =  -1.9393425212476E+00
(PID.TID 0000.0001) %MON dynstat_vvel_mean            =  -3.3517431495448E-04
(PID.TID 0000.0001) %MON dynstat_vvel_sd              =   9.3742278358688E-03
(PID.TID 0000.0001) %MON dynstat_vvel_del2            =   5.9366687518185E-05
(PID.TID 0000.0001) %MON dynstat_wvel_max             =   2.1710447060663E-02
(PID.TID 0000.0001) %MON dynstat_wvel_min             =  -4.8654876671778E-02
(PID.TID 0000.0001) %MON dynstat_wvel_mean            =  -2.5242680378699E-22
(PID.TID 0000.0001) %MON dynstat_wvel_sd              =   2.4055108000503E-04
(PID.TID 0000.0001) %MON dynstat_wvel_del2            =   2.4721964233370E-06
(PID.TID 0000.0001) %MON dynstat_theta_max            =  -1.9417475728155E-01
(PID.TID 0000.0001) %MON dynstat_theta_min            =  -9.7087381093410E+00
(PID.TID 0000.0001) %MON dynstat_theta_mean           =  -4.1282276765593E+00
(PID.TID 0000.0001) %MON dynstat_theta_sd             =   2.6833813709192E+00
(PID.TID 0000.0001) %MON dynstat_theta_del2           =   4.1790563732477E-04
(PID.TID 0000.0001) %MON dynstat_salt_max             =   2.0000000000000E+00
(PID.TID 0000.0001) %MON dynstat_salt_min             =   1.0000000000000E+00
(PID.TID 0000.0001) %MON dynstat_salt_mean            =   1.0000310025744E+00
(PID.TID 0000.0001) %MON dynstat_salt_sd              =   5.1475900024860E-03
(PID.TID 0000.0001) %MON dynstat_salt_del2            =   5.2090116757390E-05
(PID.TID 0000.0001) %MON advcfl_uvel_max              =   1.0769647815475E-02
(PID.TID 0000.0001) %MON advcfl_vvel_max              =   5.8180275462155E-02
(PID.TID 0000.0001) %MON advcfl_wvel_max              =   2.0272865279907E-01
(PID.TID 0000.0001) %MON advcfl_W_hf_max              =   2.0272865279907E-01
(PID.TID 0000.0001) %MON pe_b_mean                    =   8.4632081240756E-06
(PID.TID 0000.0001) %MON ke_max                       =   1.0504595848101E+00
(PID.TID 0000.0001) %MON ke_mean                      =   5.1118315664893E-05
(PID.TID 0000.0001) %MON ke_vol                       =   2.7059236822588E+15
(PID.TID 0000.0001) %MON vort_r_min                   =  -1.9393425212476E-04
(PID.TID 0000.0001) %MON vort_r_max                   =   1.3634352435601E-04
(PID.TID 0000.0001) %MON vort_a_mean                  =   1.0000000000001E-04
(PID.TID 0000.0001) %MON vort_a_sd                    =   1.0020565801249E-06
(PID.TID 0000.0001) %MON vort_p_mean                  =   1.1277618388223E-04
(PID.TID 0000.0001) %MON vort_p_sd                    =   7.1127730663625E-05
(PID.TID 0000.0001) %MON surfExpan_theta_mean         =   2.3664091970942E-09
(PID.TID 0000.0001) %MON surfExpan_salt_mean          =  -2.3781518691213E-14
(PID.TID 0000.0001) // =======================================================
(PID.TID 0000.0001) // End MONITOR dynamic field statistics
(PID.TID 0000.0001) // =======================================================
 cg2d: Sum(rhs),rhsMax =  -7.23366984160373E+01  1.12217308127631E-01
(PID.TID 0000.0001)                    cg2d_init_res =    2.56269431845744E+00
(PID.TID 0000.0001)                       cg2d_iters =    89
(PID.TID 0000.0001)                         cg2d_res =    7.31544282152495E-12
(PID.TID 0000.0001) // =======================================================
(PID.TID 0000.0001) // Begin MONITOR dynamic field statistics
(PID.TID 0000.0001) // =======================================================
(PID.TID 0000.0001) %MON time_tsnumber                =                     4
(PID.TID 0000.0001) %MON time_secondsf                =   1.2000000000000E+03
(PID.TID 0000.0001) %MON dynstat_eta_max              =   9.4342089908973E-01
(PID.TID 0000.0001) %MON dynstat_eta_min              =   0.0000000000000E+00
(PID.TID 0000.0001) %MON dynstat_eta_mean             =   1.0325354012319E-02
(PID.TID 0000.0001) %MON dynstat_eta_sd               =   6.5613723267212E-02
(PID.TID 0000.0001) %MON dynstat_eta_del2             =   6.3202372226409E-04
(PID.TID 0000.0001) %MON dynstat_uvel_max             =   3.5008706241687E-01
(PID.TID 0000.0001) %MON dynstat_uvel_min             =  -2.1791077316854E-01
(PID.TID 0000.0001) %MON dynstat_uvel_mean            =   8.7148337164346E-05
(PID.TID 0000.0001) %MON dynstat_uvel_sd              =   4.8031094113155E-03
(PID.TID 0000.0001) %MON dynstat_uvel_del2            =   4.6300574509580E-05
(PID.TID 0000.0001) %MON dynstat_vvel_max             =   6.9700368258008E-05
(PID.TID 0000.0001) %MON dynstat_vvel_min             =  -1.9393425212476E+00
(PID.TID 0000.0001) %MON dynstat_vvel_mean            =  -4.9531424805469E-04
(PID.TID 0000.0001) %MON dynstat_vvel_sd              =   9.9546486678309E-03
(PID.TID 0000.0001) %MON dynstat_vvel_del2            =   6.2558007076829E-05
(PID.TID 0000.0001) %MON dynstat_wvel_max             =   2.2208081325873E-02
(PID.TID 0000.0001) %MON dynstat_wvel_min             =  -4.8654876671778E-02
(PID.TID 0000.0001) %MON dynstat_wvel_mean            =  -2.4568782862948E-23
(PID.TID 0000.0001) %MON dynstat_wvel_sd              =   2.4119305697474E-04
(PID.TID 0000.0001) %MON dynstat_wvel_del2            =   2.5402045972093E-06
(PID.TID 0000.0001) %MON dynstat_theta_max            =  -1.9417475728155E-01
(PID.TID 0000.0001) %MON dynstat_theta_min            =  -9.7087381093410E+00
(PID.TID 0000.0001) %MON dynstat_theta_mean           =  -4.1282359113249E+00
(PID.TID 0000.0001) %MON dynstat_theta_sd             =   2.6833755082503E+00
(PID.TID 0000.0001) %MON dynstat_theta_del2           =   4.0976311880182E-04
(PID.TID 0000.0001) %MON dynstat_salt_max             =   2.0000000000000E+00
(PID.TID 0000.0001) %MON dynstat_salt_min             =   1.0000000000000E+00
(PID.TID 0000.0001) %MON dynstat_salt_mean            =   1.0000318700316E+00
(PID.TID 0000.0001) %MON dynstat_salt_sd              =   5.1682913822062E-03
(PID.TID 0000.0001) %MON dynstat_salt_del2            =   5.1051312178982E-05
(PID.TID 0000.0001) %MON advcfl_uvel_max              =   1.0502611872506E-02
(PID.TID 0000.0001) %MON advcfl_vvel_max              =   5.8180275462155E-02
(PID.TID 0000.0001) %MON advcfl_wvel_max              =   2.0272865279907E-01
(PID.TID 0000.0001) %MON advcfl_W_hf_max              =   2.0272865279907E-01
(PID.TID 0000.0001) %MON pe_b_mean                    =   8.0998609051218E-06
(PID.TID 0000.0001) %MON ke_max                       =   1.0535167504678E+00
(PID.TID 0000.0001) %MON ke_mean                      =   5.7873474978404E-05
(PID.TID 0000.0001) %MON ke_vol                       =   2.7059236822588E+15
(PID.TID 0000.0001) %MON vort_r_min                   =  -1.9393425212476E-04
(PID.TID 0000.0001) %MON vort_r_max                   =   1.3506998284414E-04
(PID.TID 0000.0001) %MON vort_a_mean                  =   1.0000000000001E-04
(PID.TID 0000.0001) %MON vort_a_sd                    =   1.0118019778163E-06
(PID.TID 0000.0001) %MON vort_p_mean                  =   1.1277618388223E-04
(PID.TID 0000.0001) %MON vort_p_sd                    =   7.1127550171134E-05
(PID.TID 0000.0001) %MON surfExpan_theta_mean         =   3.8540400989739E-09
(PID.TID 0000.0001) %MON surfExpan_salt_mean          =  -5.5309255538066E-14
(PID.TID 0000.0001) // =======================================================
(PID.TID 0000.0001) // End MONITOR dynamic field statistics
(PID.TID 0000.0001) // =======================================================
 cg2d: Sum(rhs),rhsMax =  -1.42507076907065E+02  7.12019865195572E-02
(PID.TID 0000.0001)                    cg2d_init_res =    2.93263187862838E+00
(PID.TID 0000.0001)                       cg2d_iters =    90
(PID.TID 0000.0001)                         cg2d_res =    8.10685887587848E-12
(PID.TID 0000.0001) // =======================================================
(PID.TID 0000.0001) // Begin MONITOR dynamic field statistics
(PID.TID 0000.0001) // =======================================================
(PID.TID 0000.0001) %MON time_tsnumber                =                     5
(PID.TID 0000.0001) %MON time_secondsf                =   1.5000000000000E+03
(PID.TID 0000.0001) %MON dynstat_eta_max              =   7.7217254076009E-01
(PID.TID 0000.0001) %MON dynstat_eta_min              =   0.0000000000000E+00
(PID.TID 0000.0001) %MON dynstat_eta_mean             =   1.2906692515425E-02
(PID.TID 0000.0001) %MON dynstat_eta_sd               =   6.1705130830617E-02
(PID.TID 0000.0001) %MON dynstat_eta_del2             =   4.9493259637487E-04
(PID.TID 0000.0001) %MON dynstat_uvel_max             =   3.3670419297173E-01
(PID.TID 0000.0001) %MON dynstat_uvel_min             =  -2.3621175151739E-01
(PID.TID 0000.0001) %MON dynstat_uvel_mean            =   6.4802556795668E-05
(PID.TID 0000.0001) %MON dynstat_uvel_sd              =   4.8911314485689E-03
(PID.TID 0000.0001) %MON dynstat_uvel_del2            =   4.4348843975234E-05
(PID.TID 0000.0001) %MON dynstat_vvel_max             =   1.3196241047141E-04
(PID.TID 0000.0001) %MON dynstat_vvel_min             =  -1.9393425212476E+00
(PID.TID 0000.0001) %MON dynstat_vvel_mean            =  -6.8489290801042E-04
(PID.TID 0000.0001) %MON dynstat_vvel_sd              =   1.0371074456600E-02
(PID.TID 0000.0001) %MON dynstat_vvel_del2            =   6.4136059791225E-05
(PID.TID 0000.0001) %MON dynstat_wvel_max             =   2.2519273632899E-02
(PID.TID 0000.0001) %MON dynstat_wvel_min             =  -4.8654876671778E-02
(PID.TID 0000.0001) %MON dynstat_wvel_mean            =  -4.2487426229586E-22
(PID.TID 0000.0001) %MON dynstat_wvel_sd              =   2.4199755227077E-04
(PID.TID 0000.0001) %MON dynstat_wvel_del2            =   2.5871672511044E-06
(PID.TID 0000.0001) %MON dynstat_theta_max            =  -1.9417475728155E-01
(PID.TID 0000.0001) %MON dynstat_theta_min            =  -9.7087381093410E+00
(PID.TID 0000.0001) %MON dynstat_theta_mean           =  -4.1282441460935E+00
(PID.TID 0000.0001) %MON dynstat_theta_sd             =   2.6833703142941E+00
(PID.TID 0000.0001) %MON dynstat_theta_del2           =   4.0185470607951E-04
(PID.TID 0000.0001) %MON dynstat_salt_max             =   2.0000000000000E+00
(PID.TID 0000.0001) %MON dynstat_salt_min             =   1.0000000000000E+00
(PID.TID 0000.0001) %MON dynstat_salt_mean            =   1.0000327374888E+00
(PID.TID 0000.0001) %MON dynstat_salt_sd              =   5.1939805973868E-03
(PID.TID 0000.0001) %MON dynstat_salt_del2            =   5.0038757020756E-05
(PID.TID 0000.0001) %MON advcfl_uvel_max              =   1.0101125789152E-02
(PID.TID 0000.0001) %MON advcfl_vvel_max              =   5.8180275462155E-02
(PID.TID 0000.0001) %MON advcfl_wvel_max              =   2.0272865279907E-01
(PID.TID 0000.0001) %MON advcfl_W_hf_max              =   2.0272865279907E-01
(PID.TID 0000.0001) %MON pe_b_mean                    =   7.2963183673857E-06
(PID.TID 0000.0001) %MON ke_max                       =   1.0589794892277E+00
(PID.TID 0000.0001) %MON ke_mean                      =   6.2353673504529E-05
(PID.TID 0000.0001) %MON ke_vol                       =   2.7059236822588E+15
(PID.TID 0000.0001) %MON vort_r_min                   =  -1.9393425212476E-04
(PID.TID 0000.0001) %MON vort_r_max                   =   1.3378038614102E-04
(PID.TID 0000.0001) %MON vort_a_mean                  =   1.0000000000001E-04
(PID.TID 0000.0001) %MON vort_a_sd                    =   1.0098433108384E-06
(PID.TID 0000.0001) %MON vort_p_mean                  =   1.1277618388223E-04
(PID.TID 0000.0001) %MON vort_p_sd                    =   7.1127998537813E-05
(PID.TID 0000.0001) %MON surfExpan_theta_mean         =   4.0171989135032E-09
(PID.TID 0000.0001) %MON surfExpan_salt_mean          =  -1.0261333469606E-13
(PID.TID 0000.0001) // =======================================================
(PID.TID 0000.0001) // End MONITOR dynamic field statistics
(PID.TID 0000.0001) // =======================================================
 cg2d: Sum(rhs),rhsMax =  -1.97082444034600E+02  6.17819837901542E-02
(PID.TID 0000.0001)                    cg2d_init_res =    2.69395894927635E+00
(PID.TID 0000.0001)                       cg2d_iters =    90
(PID.TID 0000.0001)                         cg2d_res =    9.12191656318048E-12
(PID.TID 0000.0001) // =======================================================
(PID.TID 0000.0001) // Begin MONITOR dynamic field statistics
(PID.TID 0000.0001) // =======================================================
(PID.TID 0000.0001) %MON time_tsnumber                =                     6
(PID.TID 0000.0001) %MON time_secondsf                =   1.8000000000000E+03
(PID.TID 0000.0001) %MON dynstat_eta_max              =   6.3571945636034E-01
(PID.TID 0000.0001) %MON dynstat_eta_min              =   0.0000000000000E+00
(PID.TID 0000.0001) %MON dynstat_eta_mean             =   1.5488031018531E-02
(PID.TID 0000.0001) %MON dynstat_eta_sd               =   5.5998670060604E-02
(PID.TID 0000.0001) %MON dynstat_eta_del2             =   3.5775253899369E-04
(PID.TID 0000.0001) %MON dynstat_uvel_max             =   3.3585698620264E-01
(PID.TID 0000.0001) %MON dynstat_uvel_min             =  -2.4058436190238E-01
(PID.TID 0000.0001) %MON dynstat_uvel_mean            =   2.9202414715927E-05
(PID.TID 0000.0001) %MON dynstat_uvel_sd              =   4.9467847587520E-03
(PID.TID 0000.0001) %MON dynstat_uvel_del2            =   4.1815705828036E-05
(PID.TID 0000.0001) %MON dynstat_vvel_max             =   2.0999317737842E-04
(PID.TID 0000.0001) %MON dynstat_vvel_min             =  -1.9393425212476E+00
(PID.TID 0000.0001) %MON dynstat_vvel_mean            =  -8.9793356447834E-04
(PID.TID 0000.0001) %MON dynstat_vvel_sd              =   1.0647609705103E-02
(PID.TID 0000.0001) %MON dynstat_vvel_del2            =   6.4864466993710E-05
(PID.TID 0000.0001) %MON dynstat_wvel_max             =   2.2596879215567E-02
(PID.TID 0000.0001) %MON dynstat_wvel_min             =  -4.8654876671778E-02
(PID.TID 0000.0001) %MON dynstat_wvel_mean            =  -2.9218757472236E-22
(PID.TID 0000.0001) %MON dynstat_wvel_sd              =   2.4268578884525E-04
(PID.TID 0000.0001) %MON dynstat_wvel_del2            =   2.6380385928959E-06
(PID.TID 0000.0001) %MON dynstat_theta_max            =  -1.9417475728155E-01
(PID.TID 0000.0001) %MON dynstat_theta_min            =  -9.7087381093410E+00
(PID.TID 0000.0001) %MON dynstat_theta_mean           =  -4.1282523808293E+00
(PID.TID 0000.0001) %MON dynstat_theta_sd             =   2.6833657458869E+00
(PID.TID 0000.0001) %MON dynstat_theta_del2           =   3.9425900706051E-04
(PID.TID 0000.0001) %MON dynstat_salt_max             =   2.0000000000000E+00
(PID.TID 0000.0001) %MON dynstat_salt_min             =   1.0000000000000E+00
(PID.TID 0000.0001) %MON dynstat_salt_mean            =   1.0000336049460E+00
(PID.TID 0000.0001) %MON dynstat_salt_sd              =   5.2242967327614E-03
(PID.TID 0000.0001) %MON dynstat_salt_del2            =   4.9053262723929E-05
(PID.TID 0000.0001) %MON advcfl_uvel_max              =   1.0075709586079E-02
(PID.TID 0000.0001) %MON advcfl_vvel_max              =   5.8180275462155E-02
(PID.TID 0000.0001) %MON advcfl_wvel_max              =   2.0272865279907E-01
(PID.TID 0000.0001) %MON advcfl_W_hf_max              =   2.0272865279907E-01
(PID.TID 0000.0001) %MON pe_b_mean                    =   6.1977216132786E-06
(PID.TID 0000.0001) %MON ke_max                       =   1.0668889027023E+00
(PID.TID 0000.0001) %MON ke_mean                      =   6.5496353959623E-05
(PID.TID 0000.0001) %MON ke_vol                       =   2.7059236822588E+15
(PID.TID 0000.0001) %MON vort_r_min                   =  -1.9393425212476E-04
(PID.TID 0000.0001) %MON vort_r_max                   =   1.3275946384068E-04
(PID.TID 0000.0001) %MON vort_a_mean                  =   1.0000000000001E-04
(PID.TID 0000.0001) %MON vort_a_sd                    =   1.0049363873691E-06
(PID.TID 0000.0001) %MON vort_p_mean                  =   1.1277618388223E-04
(PID.TID 0000.0001) %MON vort_p_sd                    =   7.1128013716818E-05
(PID.TID 0000.0001) %MON surfExpan_theta_mean         =   3.7186134502469E-09
(PID.TID 0000.0001) %MON surfExpan_salt_mean          =  -1.5195313619571E-13
(PID.TID 0000.0001) // =======================================================
(PID.TID 0000.0001) // End MONITOR dynamic field statistics
(PID.TID 0000.0001) // =======================================================
 cg2d: Sum(rhs),rhsMax =  -2.58145549294023E+02  5.50290399943297E-02
(PID.TID 0000.0001)                    cg2d_init_res =    2.89549650791542E+00
(PID.TID 0000.0001)                       cg2d_iters =    90
(PID.TID 0000.0001)                         cg2d_res =    9.58264478658487E-12
(PID.TID 0000.0001) // =======================================================
(PID.TID 0000.0001) // Begin MONITOR dynamic field statistics
(PID.TID 0000.0001) // =======================================================
(PID.TID 0000.0001) %MON time_tsnumber                =                     7
(PID.TID 0000.0001) %MON time_secondsf                =   2.1000000000000E+03
(PID.TID 0000.0001) %MON dynstat_eta_max              =   3.9146925805104E-01
(PID.TID 0000.0001) %MON dynstat_eta_min              =   0.0000000000000E+00
(PID.TID 0000.0001) %MON dynstat_eta_mean             =   1.8069369521636E-02
(PID.TID 0000.0001) %MON dynstat_eta_sd               =   4.9832597237988E-02
(PID.TID 0000.0001) %MON dynstat_eta_del2             =   2.2880643581345E-04
(PID.TID 0000.0001) %MON dynstat_uvel_max             =   3.3743467152316E-01
(PID.TID 0000.0001) %MON dynstat_uvel_min             =  -2.3940657398797E-01
(PID.TID 0000.0001) %MON dynstat_uvel_mean            =  -2.0049216816410E-05
(PID.TID 0000.0001) %MON dynstat_uvel_sd              =   5.0319238353534E-03
(PID.TID 0000.0001) %MON dynstat_uvel_del2            =   4.0371966446430E-05
(PID.TID 0000.0001) %MON dynstat_vvel_max             =   3.8130496017373E-04
(PID.TID 0000.0001) %MON dynstat_vvel_min             =  -1.9393425212476E+00
(PID.TID 0000.0001) %MON dynstat_vvel_mean            =  -1.1239235116350E-03
(PID.TID 0000.0001) %MON dynstat_vvel_sd              =   1.0795762399839E-02
(PID.TID 0000.0001) %MON dynstat_vvel_del2            =   6.5206262349876E-05
(PID.TID 0000.0001) %MON dynstat_wvel_max             =   2.2491193507662E-02
(PID.TID 0000.0001) %MON dynstat_wvel_min             =  -4.8654876671778E-02
(PID.TID 0000.0001) %MON dynstat_wvel_mean            =   2.3162672397411E-22
(PID.TID 0000.0001) %MON dynstat_wvel_sd              =   2.4312478803412E-04
(PID.TID 0000.0001) %MON dynstat_wvel_del2            =   2.6967070430098E-06
(PID.TID 0000.0001) %MON dynstat_theta_max            =  -1.9417475728155E-01
(PID.TID 0000.0001) %MON dynstat_theta_min            =  -9.7087381093410E+00
(PID.TID 0000.0001) %MON dynstat_theta_mean           =  -4.1282606155264E+00
(PID.TID 0000.0001) %MON dynstat_theta_sd             =   2.6833617673194E+00
(PID.TID 0000.0001) %MON dynstat_theta_del2           =   3.8693029664108E-04
(PID.TID 0000.0001) %MON dynstat_salt_max             =   2.0000000000000E+00
(PID.TID 0000.0001) %MON dynstat_salt_min             =   1.0000000000000E+00
(PID.TID 0000.0001) %MON dynstat_salt_mean            =   1.0000344724032E+00
(PID.TID 0000.0001) %MON dynstat_salt_sd              =   5.2589113112233E-03
(PID.TID 0000.0001) %MON dynstat_salt_del2            =   4.8094977404879E-05
(PID.TID 0000.0001) %MON advcfl_uvel_max              =   1.0123040145695E-02
(PID.TID 0000.0001) %MON advcfl_vvel_max              =   5.8180275462155E-02
(PID.TID 0000.0001) %MON advcfl_wvel_max              =   2.0272865279907E-01
(PID.TID 0000.0001) %MON advcfl_W_hf_max              =   2.0272865279907E-01
(PID.TID 0000.0001) %MON pe_b_mean                    =   5.1586751806716E-06
(PID.TID 0000.0001) %MON ke_max                       =   1.0767687176398E+00
(PID.TID 0000.0001) %MON ke_mean                      =   6.7615802904223E-05
(PID.TID 0000.0001) %MON ke_vol                       =   2.7059236822588E+15
(PID.TID 0000.0001) %MON vort_r_min                   =  -1.9393425212476E-04
(PID.TID 0000.0001) %MON vort_r_max                   =   1.3200952847286E-04
(PID.TID 0000.0001) %MON vort_a_mean                  =   1.0000000000001E-04
(PID.TID 0000.0001) %MON vort_a_sd                    =   1.0000709090726E-06
(PID.TID 0000.0001) %MON vort_p_mean                  =   1.1277618388223E-04
(PID.TID 0000.0001) %MON vort_p_sd                    =   7.1126758757038E-05
(PID.TID 0000.0001) %MON surfExpan_theta_mean         =   3.3500458160159E-09
(PID.TID 0000.0001) %MON surfExpan_salt_mean          =  -1.9527798389460E-13
(PID.TID 0000.0001) // =======================================================
(PID.TID 0000.0001) // End MONITOR dynamic field statistics
(PID.TID 0000.0001) // =======================================================
 cg2d: Sum(rhs),rhsMax =  -2.93245156099500E+02  5.53627530158572E-02
(PID.TID 0000.0001)                    cg2d_init_res =    2.80549395931282E+00
(PID.TID 0000.0001)                       cg2d_iters =    90
(PID.TID 0000.0001)                         cg2d_res =    9.42573764247062E-12
(PID.TID 0000.0001) // =======================================================
(PID.TID 0000.0001) // Begin MONITOR dynamic field statistics
(PID.TID 0000.0001) // =======================================================
(PID.TID 0000.0001) %MON time_tsnumber                =                     8
(PID.TID 0000.0001) %MON time_secondsf                =   2.4000000000000E+03
(PID.TID 0000.0001) %MON dynstat_eta_max              =   2.6487133022428E-01
(PID.TID 0000.0001) %MON dynstat_eta_min              =   0.0000000000000E+00
(PID.TID 0000.0001) %MON dynstat_eta_mean             =   2.0650708024721E-02
(PID.TID 0000.0001) %MON dynstat_eta_sd               =   4.5010262127954E-02
(PID.TID 0000.0001) %MON dynstat_eta_del2             =   1.1811852120524E-04
(PID.TID 0000.0001) %MON dynstat_uvel_max             =   3.4062200670564E-01
(PID.TID 0000.0001) %MON dynstat_uvel_min             =  -2.3630613247872E-01
(PID.TID 0000.0001) %MON dynstat_uvel_mean            =  -8.8137726103829E-05
(PID.TID 0000.0001) %MON dynstat_uvel_sd              =   5.1239017706251E-03
(PID.TID 0000.0001) %MON dynstat_uvel_del2            =   4.0190721314615E-05
(PID.TID 0000.0001) %MON dynstat_vvel_max             =   6.1022927697451E-04
(PID.TID 0000.0001) %MON dynstat_vvel_min             =  -1.9393425212476E+00
(PID.TID 0000.0001) %MON dynstat_vvel_mean            =  -1.3479695334993E-03
(PID.TID 0000.0001) %MON dynstat_vvel_sd              =   1.0831435792859E-02
(PID.TID 0000.0001) %MON dynstat_vvel_del2            =   6.5455364466800E-05
(PID.TID 0000.0001) %MON dynstat_wvel_max             =   2.2235969782906E-02
(PID.TID 0000.0001) %MON dynstat_wvel_min             =  -4.8654876671778E-02
(PID.TID 0000.0001) %MON dynstat_wvel_mean            =  -2.5844092354947E-22
(PID.TID 0000.0001) %MON dynstat_wvel_sd              =   2.4320075948013E-04
(PID.TID 0000.0001) %MON dynstat_wvel_del2            =   2.7396417984866E-06
(PID.TID 0000.0001) %MON dynstat_theta_max            =  -1.9417475728155E-01
(PID.TID 0000.0001) %MON dynstat_theta_min            =  -9.7087381093410E+00
(PID.TID 0000.0001) %MON dynstat_theta_mean           =  -4.1282688501921E+00
(PID.TID 0000.0001) %MON dynstat_theta_sd             =   2.6833582952235E+00
(PID.TID 0000.0001) %MON dynstat_theta_del2           =   3.8122478559651E-04
(PID.TID 0000.0001) %MON dynstat_salt_max             =   2.0000000000000E+00
(PID.TID 0000.0001) %MON dynstat_salt_min             =   1.0000000000000E+00
(PID.TID 0000.0001) %MON dynstat_salt_mean            =   1.0000353398604E+00
(PID.TID 0000.0001) %MON dynstat_salt_sd              =   5.2972613192582E-03
(PID.TID 0000.0001) %MON dynstat_salt_del2            =   4.7166983403001E-05
(PID.TID 0000.0001) %MON advcfl_uvel_max              =   1.0218660201169E-02
(PID.TID 0000.0001) %MON advcfl_vvel_max              =   5.8180275462155E-02
(PID.TID 0000.0001) %MON advcfl_wvel_max              =   2.0272865279907E-01
(PID.TID 0000.0001) %MON advcfl_W_hf_max              =   2.0272865279907E-01
(PID.TID 0000.0001) %MON pe_b_mean                    =   4.5024748928344E-06
(PID.TID 0000.0001) %MON ke_max                       =   1.0884468758933E+00
(PID.TID 0000.0001) %MON ke_mean                      =   6.8703083914252E-05
(PID.TID 0000.0001) %MON ke_vol                       =   2.7059236822588E+15
(PID.TID 0000.0001) %MON vort_r_min                   =  -1.9393425212476E-04
(PID.TID 0000.0001) %MON vort_r_max                   =   1.3147774151880E-04
(PID.TID 0000.0001) %MON vort_a_mean                  =   1.0000000000001E-04
(PID.TID 0000.0001) %MON vort_a_sd                    =   9.9586355304578E-07
(PID.TID 0000.0001) %MON vort_p_mean                  =   1.1277618388223E-04
(PID.TID 0000.0001) %MON vort_p_sd                    =   7.1123897955219E-05
(PID.TID 0000.0001) %MON surfExpan_theta_mean         =   3.0496227045233E-09
(PID.TID 0000.0001) %MON surfExpan_salt_mean          =  -2.5558474504493E-13
(PID.TID 0000.0001) // =======================================================
(PID.TID 0000.0001) // End MONITOR dynamic field statistics
(PID.TID 0000.0001) // =======================================================
 cg2d: Sum(rhs),rhsMax =  -3.33538355037513E+02  5.47589693001153E-02
(PID.TID 0000.0001)                    cg2d_init_res =    2.62542517014072E+00
(PID.TID 0000.0001)                       cg2d_iters =    91
(PID.TID 0000.0001)                         cg2d_res =    7.58737569163146E-12
(PID.TID 0000.0001) // =======================================================
(PID.TID 0000.0001) // Begin MONITOR dynamic field statistics
(PID.TID 0000.0001) // =======================================================
(PID.TID 0000.0001) %MON time_tsnumber                =                     9
(PID.TID 0000.0001) %MON time_secondsf                =   2.7000000000000E+03
(PID.TID 0000.0001) %MON dynstat_eta_max              =   2.2667437619442E-01
(PID.TID 0000.0001) %MON dynstat_eta_min              =  -6.3764721005043E-02
(PID.TID 0000.0001) %MON dynstat_eta_mean             =   2.3232046527682E-02
(PID.TID 0000.0001) %MON dynstat_eta_sd               =   4.2466591220191E-02
(PID.TID 0000.0001) %MON dynstat_eta_del2             =   9.5691166722620E-05
(PID.TID 0000.0001) %MON dynstat_uvel_max             =   3.4457809124418E-01
(PID.TID 0000.0001) %MON dynstat_uvel_min             =  -2.3205673432643E-01
(PID.TID 0000.0001) %MON dynstat_uvel_mean            =  -1.8283637819328E-04
(PID.TID 0000.0001) %MON dynstat_uvel_sd              =   5.1865342644361E-03
(PID.TID 0000.0001) %MON dynstat_uvel_del2            =   4.0879026338435E-05
(PID.TID 0000.0001) %MON dynstat_vvel_max             =   8.0698843825522E-04
(PID.TID 0000.0001) %MON dynstat_vvel_min             =  -1.9393425212476E+00
(PID.TID 0000.0001) %MON dynstat_vvel_mean            =  -1.5516445990218E-03
(PID.TID 0000.0001) %MON dynstat_vvel_sd              =   1.0778385703137E-02
(PID.TID 0000.0001) %MON dynstat_vvel_del2            =   6.5935697146129E-05
(PID.TID 0000.0001) %MON dynstat_wvel_max             =   2.1867099236911E-02
(PID.TID 0000.0001) %MON dynstat_wvel_min             =  -4.8654876671778E-02
(PID.TID 0000.0001) %MON dynstat_wvel_mean            =  -2.5608650602578E-22
(PID.TID 0000.0001) %MON dynstat_wvel_sd              =   2.4295424290592E-04
(PID.TID 0000.0001) %MON dynstat_wvel_del2            =   2.7639490092015E-06
(PID.TID 0000.0001) %MON dynstat_theta_max            =  -1.9417475728155E-01
(PID.TID 0000.0001) %MON dynstat_theta_min            =  -9.7087381093410E+00
(PID.TID 0000.0001) %MON dynstat_theta_mean           =  -4.1282770848277E+00
(PID.TID 0000.0001) %MON dynstat_theta_sd             =   2.6833552235753E+00
(PID.TID 0000.0001) %MON dynstat_theta_del2           =   3.7761742222624E-04
(PID.TID 0000.0001) %MON dynstat_salt_max             =   2.0000000000000E+00
(PID.TID 0000.0001) %MON dynstat_salt_min             =   1.0000000000000E+00
(PID.TID 0000.0001) %MON dynstat_salt_mean            =   1.0000362073176E+00
(PID.TID 0000.0001) %MON dynstat_salt_sd              =   5.3384834945995E-03
(PID.TID 0000.0001) %MON dynstat_salt_del2            =   4.6546880058362E-05
(PID.TID 0000.0001) %MON advcfl_uvel_max              =   1.0337342737325E-02
(PID.TID 0000.0001) %MON advcfl_vvel_max              =   5.8180275462155E-02
(PID.TID 0000.0001) %MON advcfl_wvel_max              =   2.0272865279907E-01
(PID.TID 0000.0001) %MON advcfl_W_hf_max              =   2.0272865279907E-01
(PID.TID 0000.0001) %MON pe_b_mean                    =   4.3019212934843E-06
(PID.TID 0000.0001) %MON ke_max                       =   1.1018169283448E+00
(PID.TID 0000.0001) %MON ke_mean                      =   6.8777494911025E-05
(PID.TID 0000.0001) %MON ke_vol                       =   2.7059236822588E+15
(PID.TID 0000.0001) %MON vort_r_min                   =  -1.9393425212476E-04
(PID.TID 0000.0001) %MON vort_r_max                   =   1.3108660125001E-04
(PID.TID 0000.0001) %MON vort_a_mean                  =   1.0000000000001E-04
(PID.TID 0000.0001) %MON vort_a_sd                    =   9.9239224275004E-07
(PID.TID 0000.0001) %MON vort_p_mean                  =   1.1277618388223E-04
(PID.TID 0000.0001) %MON vort_p_sd                    =   7.1119575762154E-05
(PID.TID 0000.0001) %MON surfExpan_theta_mean         =   2.7605106324946E-09
(PID.TID 0000.0001) %MON surfExpan_salt_mean          =  -3.7605998907086E-13
(PID.TID 0000.0001) // =======================================================
(PID.TID 0000.0001) // End MONITOR dynamic field statistics
(PID.TID 0000.0001) // =======================================================
 cg2d: Sum(rhs),rhsMax =  -3.87100532676604E+02  5.24245569923743E-02
(PID.TID 0000.0001)                    cg2d_init_res =    2.55599274497224E+00
(PID.TID 0000.0001)                       cg2d_iters =    91
(PID.TID 0000.0001)                         cg2d_res =    7.83865156022387E-12
(PID.TID 0000.0001) // =======================================================
(PID.TID 0000.0001) // Begin MONITOR dynamic field statistics
(PID.TID 0000.0001) // =======================================================
(PID.TID 0000.0001) %MON time_tsnumber                =                    10
(PID.TID 0000.0001) %MON time_secondsf                =   3.0000000000000E+03
(PID.TID 0000.0001) %MON dynstat_eta_max              =   1.9916294743412E-01
(PID.TID 0000.0001) %MON dynstat_eta_min              =  -1.8083257745926E-01
(PID.TID 0000.0001) %MON dynstat_eta_mean             =   2.5813385030003E-02
(PID.TID 0000.0001) %MON dynstat_eta_sd               =   4.2052672361807E-02
(PID.TID 0000.0001) %MON dynstat_eta_del2             =   1.5138285201362E-04
(PID.TID 0000.0001) %MON dynstat_uvel_max             =   3.4840408379856E-01
(PID.TID 0000.0001) %MON dynstat_uvel_min             =  -2.2668561918511E-01
(PID.TID 0000.0001) %MON dynstat_uvel_mean            =  -3.1115281747069E-04
(PID.TID 0000.0001) %MON dynstat_uvel_sd              =   5.1961728207700E-03
(PID.TID 0000.0001) %MON dynstat_uvel_del2            =   4.2201952298439E-05
(PID.TID 0000.0001) %MON dynstat_vvel_max             =   8.6461967952098E-04
(PID.TID 0000.0001) %MON dynstat_vvel_min             =  -1.9393425212476E+00
(PID.TID 0000.0001) %MON dynstat_vvel_mean            =  -1.7150307465563E-03
(PID.TID 0000.0001) %MON dynstat_vvel_sd              =   1.0663215513484E-02
(PID.TID 0000.0001) %MON dynstat_vvel_del2            =   6.6672246117410E-05
(PID.TID 0000.0001) %MON dynstat_wvel_max             =   2.1424487794939E-02
(PID.TID 0000.0001) %MON dynstat_wvel_min             =  -4.8654876671778E-02
(PID.TID 0000.0001) %MON dynstat_wvel_mean            =  -6.3981841210327E-22
(PID.TID 0000.0001) %MON dynstat_wvel_sd              =   2.4249916019750E-04
(PID.TID 0000.0001) %MON dynstat_wvel_del2            =   2.7701749049388E-06
(PID.TID 0000.0001) %MON dynstat_theta_max            =  -1.9417475728156E-01
(PID.TID 0000.0001) %MON dynstat_theta_min            =  -9.7087381093410E+00
(PID.TID 0000.0001) %MON dynstat_theta_mean           =  -4.1282853194192E+00
(PID.TID 0000.0001) %MON dynstat_theta_sd             =   2.6833524990779E+00
(PID.TID 0000.0001) %MON dynstat_theta_del2           =   3.7809543354117E-04
(PID.TID 0000.0001) %MON dynstat_salt_max             =   2.0000000000000E+00
(PID.TID 0000.0001) %MON dynstat_salt_min             =   1.0000000000000E+00
(PID.TID 0000.0001) %MON dynstat_salt_mean            =   1.0000370747749E+00
(PID.TID 0000.0001) %MON dynstat_salt_sd              =   5.3820604312770E-03
(PID.TID 0000.0001) %MON dynstat_salt_del2            =   4.6441980129421E-05
(PID.TID 0000.0001) %MON advcfl_uvel_max              =   1.0452122513957E-02
(PID.TID 0000.0001) %MON advcfl_vvel_max              =   5.8180275462155E-02
(PID.TID 0000.0001) %MON advcfl_wvel_max              =   2.0272865279907E-01
(PID.TID 0000.0001) %MON advcfl_W_hf_max              =   2.0272865279907E-01
(PID.TID 0000.0001) %MON pe_b_mean                    =   4.4701300787000E-06
(PID.TID 0000.0001) %MON ke_max                       =   1.1167604250053E+00
(PID.TID 0000.0001) %MON ke_mean                      =   6.7954793422093E-05
(PID.TID 0000.0001) %MON ke_vol                       =   2.7059236822588E+15
(PID.TID 0000.0001) %MON vort_r_min                   =  -1.9393425212476E-04
(PID.TID 0000.0001) %MON vort_r_max                   =   1.3074941017717E-04
(PID.TID 0000.0001) %MON vort_a_mean                  =   1.0000000000001E-04
(PID.TID 0000.0001) %MON vort_a_sd                    =   9.8950564806286E-07
(PID.TID 0000.0001) %MON vort_p_mean                  =   1.1277618388223E-04
(PID.TID 0000.0001) %MON vort_p_sd                    =   7.1114199497200E-05
(PID.TID 0000.0001) %MON surfExpan_theta_mean         =   2.3527674599771E-09
(PID.TID 0000.0001) %MON surfExpan_salt_mean          =  -5.5091836504928E-13
(PID.TID 0000.0001) // =======================================================
(PID.TID 0000.0001) // End MONITOR dynamic field statistics
(PID.TID 0000.0001) // =======================================================
 cg2d: Sum(rhs),rhsMax =  -4.53167963546154E+02  4.92597295565643E-02
(PID.TID 0000.0001)                    cg2d_init_res =    2.64330610812807E+00
(PID.TID 0000.0001)                       cg2d_iters =    91
(PID.TID 0000.0001)                         cg2d_res =    8.33138531392251E-12
(PID.TID 0000.0001) // =======================================================
(PID.TID 0000.0001) // Begin MONITOR dynamic field statistics
(PID.TID 0000.0001) // =======================================================
(PID.TID 0000.0001) %MON time_tsnumber                =                    11
(PID.TID 0000.0001) %MON time_secondsf                =   3.3000000000000E+03
(PID.TID 0000.0001) %MON dynstat_eta_max              =   1.7847579742282E-01
(PID.TID 0000.0001) %MON dynstat_eta_min              =  -2.2572883120665E-01
(PID.TID 0000.0001) %MON dynstat_eta_mean             =   2.8394723529430E-02
(PID.TID 0000.0001) %MON dynstat_eta_sd               =   4.3138705385293E-02
(PID.TID 0000.0001) %MON dynstat_eta_del2             =   1.8203965351165E-04
(PID.TID 0000.0001) %MON dynstat_uvel_max             =   3.5137060310131E-01
(PID.TID 0000.0001) %MON dynstat_uvel_min             =  -2.2053759406412E-01
(PID.TID 0000.0001) %MON dynstat_uvel_mean            =  -4.7632115334765E-04
(PID.TID 0000.0001) %MON dynstat_uvel_sd              =   5.1454560897408E-03
(PID.TID 0000.0001) %MON dynstat_uvel_del2            =   4.3632327669473E-05
(PID.TID 0000.0001) %MON dynstat_vvel_max             =   7.3681836541765E-04
(PID.TID 0000.0001) %MON dynstat_vvel_min             =  -1.9393425212476E+00
(PID.TID 0000.0001) %MON dynstat_vvel_mean            =  -1.8198389581196E-03
(PID.TID 0000.0001) %MON dynstat_vvel_sd              =   1.0511136458011E-02
(PID.TID 0000.0001) %MON dynstat_vvel_del2            =   6.7449427344099E-05
(PID.TID 0000.0001) %MON dynstat_wvel_max             =   2.0937970569119E-02
(PID.TID 0000.0001) %MON dynstat_wvel_min             =  -4.8654876671778E-02
(PID.TID 0000.0001) %MON dynstat_wvel_mean            =  -5.4490595567952E-22
(PID.TID 0000.0001) %MON dynstat_wvel_sd              =   2.4190734658698E-04
(PID.TID 0000.0001) %MON dynstat_wvel_del2            =   2.7651200198090E-06
(PID.TID 0000.0001) %MON dynstat_theta_max            =  -1.9417475728157E-01
(PID.TID 0000.0001) %MON dynstat_theta_min            =  -9.7087381093410E+00
(PID.TID 0000.0001) %MON dynstat_theta_mean           =  -4.1282935539424E+00
(PID.TID 0000.0001) %MON dynstat_theta_sd             =   2.6833500590991E+00
(PID.TID 0000.0001) %MON dynstat_theta_del2           =   3.7915264170520E-04
(PID.TID 0000.0001) %MON dynstat_salt_max             =   2.0000000000000E+00
(PID.TID 0000.0001) %MON dynstat_salt_min             =   1.0000000000000E+00
(PID.TID 0000.0001) %MON dynstat_salt_mean            =   1.0000379422321E+00
(PID.TID 0000.0001) %MON dynstat_salt_sd              =   5.4275337874510E-03
(PID.TID 0000.0001) %MON dynstat_salt_del2            =   4.6450010323054E-05
(PID.TID 0000.0001) %MON advcfl_uvel_max              =   1.0541118093039E-02
(PID.TID 0000.0001) %MON advcfl_vvel_max              =   5.8180275462155E-02
(PID.TID 0000.0001) %MON advcfl_wvel_max              =   2.0272865279907E-01
(PID.TID 0000.0001) %MON advcfl_W_hf_max              =   2.0272865279907E-01
(PID.TID 0000.0001) %MON pe_b_mean                    =   4.8969003214677E-06
(PID.TID 0000.0001) %MON ke_max                       =   1.1332328580299E+00
(PID.TID 0000.0001) %MON ke_mean                      =   6.6427727747405E-05
(PID.TID 0000.0001) %MON ke_vol                       =   2.7059236822588E+15
(PID.TID 0000.0001) %MON vort_r_min                   =  -1.9393425212476E-04
(PID.TID 0000.0001) %MON vort_r_max                   =   1.3039512068636E-04
(PID.TID 0000.0001) %MON vort_a_mean                  =   1.0000000000001E-04
(PID.TID 0000.0001) %MON vort_a_sd                    =   9.8701678406176E-07
(PID.TID 0000.0001) %MON vort_p_mean                  =   1.1277618388223E-04
(PID.TID 0000.0001) %MON vort_p_sd                    =   7.1108252208795E-05
(PID.TID 0000.0001) %MON surfExpan_theta_mean         =   1.7343225935192E-09
(PID.TID 0000.0001) %MON surfExpan_salt_mean          =  -7.0581179939391E-13
(PID.TID 0000.0001) // =======================================================
(PID.TID 0000.0001) // End MONITOR dynamic field statistics
(PID.TID 0000.0001) // =======================================================
 cg2d: Sum(rhs),rhsMax =  -5.20318325992110E+02  4.68026734660350E-02
(PID.TID 0000.0001)                    cg2d_init_res =    2.71838755484597E+00
(PID.TID 0000.0001)                       cg2d_iters =    91
(PID.TID 0000.0001)                         cg2d_res =    7.62458029653492E-12
(PID.TID 0000.0001) // =======================================================
(PID.TID 0000.0001) // Begin MONITOR dynamic field statistics
(PID.TID 0000.0001) // =======================================================
(PID.TID 0000.0001) %MON time_tsnumber                =                    12
(PID.TID 0000.0001) %MON time_secondsf                =   3.6000000000000E+03
(PID.TID 0000.0001) %MON dynstat_eta_max              =   1.6248709716957E-01
(PID.TID 0000.0001) %MON dynstat_eta_min              =  -2.2292600429088E-01
(PID.TID 0000.0001) %MON dynstat_eta_mean             =   3.0976062017310E-02
(PID.TID 0000.0001) %MON dynstat_eta_sd               =   4.4993756008721E-02
(PID.TID 0000.0001) %MON dynstat_eta_del2             =   1.9091870065152E-04
(PID.TID 0000.0001) %MON dynstat_uvel_max             =   3.5309955207311E-01
(PID.TID 0000.0001) %MON dynstat_uvel_min             =  -2.1443308622376E-01
(PID.TID 0000.0001) %MON dynstat_uvel_mean            =  -6.7618935885875E-04
(PID.TID 0000.0001) %MON dynstat_uvel_sd              =   5.0457904277768E-03
(PID.TID 0000.0001) %MON dynstat_uvel_del2            =   4.4728691416334E-05
(PID.TID 0000.0001) %MON dynstat_vvel_max             =   7.3259333757312E-04
(PID.TID 0000.0001) %MON dynstat_vvel_min             =  -1.9393425212476E+00
(PID.TID 0000.0001) %MON dynstat_vvel_mean            =  -1.8528950377725E-03
(PID.TID 0000.0001) %MON dynstat_vvel_sd              =   1.0344715331562E-02
(PID.TID 0000.0001) %MON dynstat_vvel_del2            =   6.7939114807079E-05
(PID.TID 0000.0001) %MON dynstat_wvel_max             =   2.0420457505245E-02
(PID.TID 0000.0001) %MON dynstat_wvel_min             =  -4.8654876671778E-02
(PID.TID 0000.0001) %MON dynstat_wvel_mean            =   7.4127091720393E-22
(PID.TID 0000.0001) %MON dynstat_wvel_sd              =   2.4120311979869E-04
(PID.TID 0000.0001) %MON dynstat_wvel_del2            =   2.7504467623894E-06
(PID.TID 0000.0001) %MON dynstat_theta_max            =  -1.9417475728166E-01
(PID.TID 0000.0001) %MON dynstat_theta_min            =  -9.7087381093410E+00
(PID.TID 0000.0001) %MON dynstat_theta_mean           =  -4.1283017883740E+00
(PID.TID 0000.0001) %MON dynstat_theta_sd             =   2.6833478773856E+00
(PID.TID 0000.0001) %MON dynstat_theta_del2           =   3.8010866959459E-04
(PID.TID 0000.0001) %MON dynstat_salt_max             =   2.0000000000000E+00
(PID.TID 0000.0001) %MON dynstat_salt_min             =   1.0000000000000E+00
(PID.TID 0000.0001) %MON dynstat_salt_mean            =   1.0000388096894E+00
(PID.TID 0000.0001) %MON dynstat_salt_sd              =   5.4743897245095E-03
(PID.TID 0000.0001) %MON dynstat_salt_del2            =   4.6467741311440E-05
(PID.TID 0000.0001) %MON advcfl_uvel_max              =   1.0592986562193E-02
(PID.TID 0000.0001) %MON advcfl_vvel_max              =   5.8180275462155E-02
(PID.TID 0000.0001) %MON advcfl_wvel_max              =   2.0272865279907E-01
(PID.TID 0000.0001) %MON advcfl_W_hf_max              =   2.0272865279907E-01
(PID.TID 0000.0001) %MON pe_b_mean                    =   5.4784353144894E-06
(PID.TID 0000.0001) %MON ke_max                       =   1.1512907641912E+00
(PID.TID 0000.0001) %MON ke_mean                      =   6.4472799264486E-05
(PID.TID 0000.0001) %MON ke_vol                       =   2.7059236822588E+15
(PID.TID 0000.0001) %MON vort_r_min                   =  -1.9393425212476E-04
(PID.TID 0000.0001) %MON vort_r_max                   =   1.2998662364281E-04
(PID.TID 0000.0001) %MON vort_a_mean                  =   1.0000000000001E-04
(PID.TID 0000.0001) %MON vort_a_sd                    =   9.8500384725873E-07
(PID.TID 0000.0001) %MON vort_p_mean                  =   1.1277618388223E-04
(PID.TID 0000.0001) %MON vort_p_sd                    =   7.1102202801832E-05
(PID.TID 0000.0001) %MON surfExpan_theta_mean         =   9.1942563140330E-10
(PID.TID 0000.0001) %MON surfExpan_salt_mean          =  -6.9751416752383E-13
(PID.TID 0000.0001) // =======================================================
(PID.TID 0000.0001) // End MONITOR dynamic field statistics
(PID.TID 0000.0001) // =======================================================
 cg2d: Sum(rhs),rhsMax =  -5.52495405238024E+02  4.77499827309816E-02
(PID.TID 0000.0001)                    cg2d_init_res =    2.51440783972444E+00
(PID.TID 0000.0001)                       cg2d_iters =    90
(PID.TID 0000.0001)                         cg2d_res =    8.46661588382101E-12
(PID.TID 0000.0001) // =======================================================
(PID.TID 0000.0001) // Begin MONITOR dynamic field statistics
(PID.TID 0000.0001) // =======================================================
(PID.TID 0000.0001) %MON time_tsnumber                =                    13
(PID.TID 0000.0001) %MON time_secondsf                =   3.9000000000000E+03
(PID.TID 0000.0001) %MON dynstat_eta_max              =   1.7393306928693E-01
(PID.TID 0000.0001) %MON dynstat_eta_min              =  -1.9603286529628E-01
(PID.TID 0000.0001) %MON dynstat_eta_mean             =   3.3557400463772E-02
(PID.TID 0000.0001) %MON dynstat_eta_sd               =   4.6901555939502E-02
(PID.TID 0000.0001) %MON dynstat_eta_del2             =   1.8211401995463E-04
(PID.TID 0000.0001) %MON dynstat_uvel_max             =   3.5356468887201E-01
(PID.TID 0000.0001) %MON dynstat_uvel_min             =  -2.0935987109467E-01
(PID.TID 0000.0001) %MON dynstat_uvel_mean            =  -9.0335930818978E-04
(PID.TID 0000.0001) %MON dynstat_uvel_sd              =   4.9241455705265E-03
(PID.TID 0000.0001) %MON dynstat_uvel_del2            =   4.5454313219658E-05
(PID.TID 0000.0001) %MON dynstat_vvel_max             =   8.1020028536831E-04
(PID.TID 0000.0001) %MON dynstat_vvel_min             =  -1.9393425212476E+00
(PID.TID 0000.0001) %MON dynstat_vvel_mean            =  -1.8089946236575E-03
(PID.TID 0000.0001) %MON dynstat_vvel_sd              =   1.0183712664316E-02
(PID.TID 0000.0001) %MON dynstat_vvel_del2            =   6.7897578617605E-05
(PID.TID 0000.0001) %MON dynstat_wvel_max             =   1.9868877917548E-02
(PID.TID 0000.0001) %MON dynstat_wvel_min             =  -4.8654876671778E-02
(PID.TID 0000.0001) %MON dynstat_wvel_mean            =   3.4047493412025E-22
(PID.TID 0000.0001) %MON dynstat_wvel_sd              =   2.4041014721514E-04
(PID.TID 0000.0001) %MON dynstat_wvel_del2            =   2.7173281453787E-06
(PID.TID 0000.0001) %MON dynstat_theta_max            =  -1.9417475728209E-01
(PID.TID 0000.0001) %MON dynstat_theta_min            =  -9.7087381093410E+00
(PID.TID 0000.0001) %MON dynstat_theta_mean           =  -4.1283100227032E+00
(PID.TID 0000.0001) %MON dynstat_theta_sd             =   2.6833459708826E+00
(PID.TID 0000.0001) %MON dynstat_theta_del2           =   3.8102758970692E-04
(PID.TID 0000.0001) %MON dynstat_salt_max             =   2.0000000000000E+00
(PID.TID 0000.0001) %MON dynstat_salt_min             =   1.0000000000000E+00
(PID.TID 0000.0001) %MON dynstat_salt_mean            =   1.0000396771466E+00
(PID.TID 0000.0001) %MON dynstat_salt_sd              =   5.5228832327673E-03
(PID.TID 0000.0001) %MON dynstat_salt_del2            =   4.6484356193005E-05
(PID.TID 0000.0001) %MON advcfl_uvel_max              =   1.0606940666160E-02
(PID.TID 0000.0001) %MON advcfl_vvel_max              =   5.8180275462155E-02
(PID.TID 0000.0001) %MON advcfl_wvel_max              =   2.0272865279907E-01
(PID.TID 0000.0001) %MON advcfl_W_hf_max              =   2.0272865279907E-01
(PID.TID 0000.0001) %MON pe_b_mean                    =   6.1061527275676E-06
(PID.TID 0000.0001) %MON ke_max                       =   1.1710838682584E+00
(PID.TID 0000.0001) %MON ke_mean                      =   6.2429366863881E-05
(PID.TID 0000.0001) %MON ke_vol                       =   2.7059236822588E+15
(PID.TID 0000.0001) %MON vort_r_min                   =  -1.9393425212476E-04
(PID.TID 0000.0001) %MON vort_r_max                   =   1.2952246848735E-04
(PID.TID 0000.0001) %MON vort_a_mean                  =   1.0000000000001E-04
(PID.TID 0000.0001) %MON vort_a_sd                    =   9.8386255240705E-07
(PID.TID 0000.0001) %MON vort_p_mean                  =   1.1277618388223E-04
(PID.TID 0000.0001) %MON vort_p_sd                    =   7.1096470641793E-05
(PID.TID 0000.0001) %MON surfExpan_theta_mean         =   1.0390650989124E-11
(PID.TID 0000.0001) %MON surfExpan_salt_mean          =  -4.2497245456773E-13
(PID.TID 0000.0001) // =======================================================
(PID.TID 0000.0001) // End MONITOR dynamic field statistics
(PID.TID 0000.0001) // =======================================================
 cg2d: Sum(rhs),rhsMax =  -5.80437942000035E+02  4.89475295229748E-02
(PID.TID 0000.0001)                    cg2d_init_res =    2.20507922259329E+00
(PID.TID 0000.0001)                       cg2d_iters =    89
(PID.TID 0000.0001)                         cg2d_res =    9.48314066051984E-12
(PID.TID 0000.0001) // =======================================================
(PID.TID 0000.0001) // Begin MONITOR dynamic field statistics
(PID.TID 0000.0001) // =======================================================
(PID.TID 0000.0001) %MON time_tsnumber                =                    14
(PID.TID 0000.0001) %MON time_secondsf                =   4.2000000000000E+03
(PID.TID 0000.0001) %MON dynstat_eta_max              =   1.6735709828644E-01
(PID.TID 0000.0001) %MON dynstat_eta_min              =  -1.7942167818825E-01
(PID.TID 0000.0001) %MON dynstat_eta_mean             =   3.6138738775376E-02
(PID.TID 0000.0001) %MON dynstat_eta_sd               =   4.8301449347272E-02
(PID.TID 0000.0001) %MON dynstat_eta_del2             =   1.6482364874738E-04
(PID.TID 0000.0001) %MON dynstat_uvel_max             =   3.5297226810633E-01
(PID.TID 0000.0001) %MON dynstat_uvel_min             =  -2.0609005439967E-01
(PID.TID 0000.0001) %MON dynstat_uvel_mean            =  -1.1467774117469E-03
(PID.TID 0000.0001) %MON dynstat_uvel_sd              =   4.8110933176843E-03
(PID.TID 0000.0001) %MON dynstat_uvel_del2            =   4.5866399422084E-05
(PID.TID 0000.0001) %MON dynstat_vvel_max             =   8.8828171809989E-04
(PID.TID 0000.0001) %MON dynstat_vvel_min             =  -1.9393425212476E+00
(PID.TID 0000.0001) %MON dynstat_vvel_mean            =  -1.6922724303529E-03
(PID.TID 0000.0001) %MON dynstat_vvel_sd              =   1.0044496693332E-02
(PID.TID 0000.0001) %MON dynstat_vvel_del2            =   6.7582124250512E-05
(PID.TID 0000.0001) %MON dynstat_wvel_max             =   1.9273580131320E-02
(PID.TID 0000.0001) %MON dynstat_wvel_min             =  -4.8654876671778E-02
(PID.TID 0000.0001) %MON dynstat_wvel_mean            =   6.8539710134081E-23
(PID.TID 0000.0001) %MON dynstat_wvel_sd              =   2.3957730116761E-04
(PID.TID 0000.0001) %MON dynstat_wvel_del2            =   2.6723306970927E-06
(PID.TID 0000.0001) %MON dynstat_theta_max            =  -1.9417475728388E-01
(PID.TID 0000.0001) %MON dynstat_theta_min            =  -9.7087381093410E+00
(PID.TID 0000.0001) %MON dynstat_theta_mean           =  -4.1283182569345E+00
(PID.TID 0000.0001) %MON dynstat_theta_sd             =   2.6833443195482E+00
(PID.TID 0000.0001) %MON dynstat_theta_del2           =   3.8195441071307E-04
(PID.TID 0000.0001) %MON dynstat_salt_max             =   2.0000000000000E+00
(PID.TID 0000.0001) %MON dynstat_salt_min             =   1.0000000000000E+00
(PID.TID 0000.0001) %MON dynstat_salt_mean            =   1.0000405446038E+00
(PID.TID 0000.0001) %MON dynstat_salt_sd              =   5.5727874880043E-03
(PID.TID 0000.0001) %MON dynstat_salt_del2            =   4.6499179959343E-05
(PID.TID 0000.0001) %MON advcfl_uvel_max              =   1.0589168043190E-02
(PID.TID 0000.0001) %MON advcfl_vvel_max              =   5.8180275462155E-02
(PID.TID 0000.0001) %MON advcfl_wvel_max              =   2.0272865279907E-01
(PID.TID 0000.0001) %MON advcfl_W_hf_max              =   2.0272865279907E-01
(PID.TID 0000.0001) %MON pe_b_mean                    =   6.6811463665967E-06
(PID.TID 0000.0001) %MON ke_max                       =   1.1927779724487E+00
(PID.TID 0000.0001) %MON ke_mean                      =   6.0624104563957E-05
(PID.TID 0000.0001) %MON ke_vol                       =   2.7059236822588E+15
(PID.TID 0000.0001) %MON vort_r_min                   =  -1.9393425212476E-04
(PID.TID 0000.0001) %MON vort_r_max                   =   1.2902311634512E-04
(PID.TID 0000.0001) %MON vort_a_mean                  =   1.0000000000001E-04
(PID.TID 0000.0001) %MON vort_a_sd                    =   9.8406303525154E-07
(PID.TID 0000.0001) %MON vort_p_mean                  =   1.1277618388222E-04
(PID.TID 0000.0001) %MON vort_p_sd                    =   7.1091398446650E-05
(PID.TID 0000.0001) %MON surfExpan_theta_mean         =  -8.5153791426377E-10
(PID.TID 0000.0001) %MON surfExpan_salt_mean          =   9.7298525834032E-14
(PID.TID 0000.0001) // =======================================================
(PID.TID 0000.0001) // End MONITOR dynamic field statistics
(PID.TID 0000.0001) // =======================================================
 cg2d: Sum(rhs),rhsMax =  -5.86103013343547E+02  5.19368771979044E-02
(PID.TID 0000.0001)                    cg2d_init_res =    1.79112190998853E+00
(PID.TID 0000.0001)                       cg2d_iters =    88
(PID.TID 0000.0001)                         cg2d_res =    9.74655055306292E-12
(PID.TID 0000.0001) // =======================================================
(PID.TID 0000.0001) // Begin MONITOR dynamic field statistics
(PID.TID 0000.0001) // =======================================================
(PID.TID 0000.0001) %MON time_tsnumber                =                    15
(PID.TID 0000.0001) %MON time_secondsf                =   4.5000000000000E+03
(PID.TID 0000.0001) %MON dynstat_eta_max              =   1.5148620744709E-01
(PID.TID 0000.0001) %MON dynstat_eta_min              =  -1.5021326590523E-01
(PID.TID 0000.0001) %MON dynstat_eta_mean             =   3.8720076684781E-02
(PID.TID 0000.0001) %MON dynstat_eta_sd               =   4.8900120834411E-02
(PID.TID 0000.0001) %MON dynstat_eta_del2             =   1.4509914988326E-04
(PID.TID 0000.0001) %MON dynstat_uvel_max             =   3.5159526414109E-01
(PID.TID 0000.0001) %MON dynstat_uvel_min             =  -2.0495485386615E-01
(PID.TID 0000.0001) %MON dynstat_uvel_mean            =  -1.3940636780896E-03
(PID.TID 0000.0001) %MON dynstat_uvel_sd              =   4.7275942853732E-03
(PID.TID 0000.0001) %MON dynstat_uvel_del2            =   4.6237745736775E-05
(PID.TID 0000.0001) %MON dynstat_vvel_max             =   9.7205616393576E-04
(PID.TID 0000.0001) %MON dynstat_vvel_min             =  -1.9393425212476E+00
(PID.TID 0000.0001) %MON dynstat_vvel_mean            =  -1.5157141414713E-03
(PID.TID 0000.0001) %MON dynstat_vvel_sd              =   9.9390061402278E-03
(PID.TID 0000.0001) %MON dynstat_vvel_del2            =   6.6690648110214E-05
(PID.TID 0000.0001) %MON dynstat_wvel_max             =   1.8626934817926E-02
(PID.TID 0000.0001) %MON dynstat_wvel_min             =  -4.8654876671778E-02
(PID.TID 0000.0001) %MON dynstat_wvel_mean            =  -6.2501065189062E-23
(PID.TID 0000.0001) %MON dynstat_wvel_sd              =   2.3877043009398E-04
(PID.TID 0000.0001) %MON dynstat_wvel_del2            =   2.6189224392994E-06
(PID.TID 0000.0001) %MON dynstat_theta_max            =  -1.9417475729054E-01
(PID.TID 0000.0001) %MON dynstat_theta_min            =  -9.7087381093410E+00
(PID.TID 0000.0001) %MON dynstat_theta_mean           =  -4.1283264910866E+00
(PID.TID 0000.0001) %MON dynstat_theta_sd             =   2.6833428802981E+00
(PID.TID 0000.0001) %MON dynstat_theta_del2           =   3.8434861147764E-04
(PID.TID 0000.0001) %MON dynstat_salt_max             =   2.0000000000000E+00
(PID.TID 0000.0001) %MON dynstat_salt_min             =   1.0000000000000E+00
(PID.TID 0000.0001) %MON dynstat_salt_mean            =   1.0000414120609E+00
(PID.TID 0000.0001) %MON dynstat_salt_sd              =   5.6238882136697E-03
(PID.TID 0000.0001) %MON dynstat_salt_del2            =   4.6613744601165E-05
(PID.TID 0000.0001) %MON advcfl_uvel_max              =   1.0547857924233E-02
(PID.TID 0000.0001) %MON advcfl_vvel_max              =   5.8180275462155E-02
(PID.TID 0000.0001) %MON advcfl_wvel_max              =   2.0272865279907E-01
(PID.TID 0000.0001) %MON advcfl_W_hf_max              =   2.0272865279907E-01
(PID.TID 0000.0001) %MON pe_b_mean                    =   7.1427587768429E-06
(PID.TID 0000.0001) %MON ke_max                       =   1.2164889478367E+00
(PID.TID 0000.0001) %MON ke_mean                      =   5.9291427709570E-05
(PID.TID 0000.0001) %MON ke_vol                       =   2.7059236822588E+15
(PID.TID 0000.0001) %MON vort_r_min                   =  -1.9393425212476E-04
(PID.TID 0000.0001) %MON vort_r_max                   =   1.2851433013554E-04
(PID.TID 0000.0001) %MON vort_a_mean                  =   9.9999999999995E-05
(PID.TID 0000.0001) %MON vort_a_sd                    =   9.8588491512514E-07
(PID.TID 0000.0001) %MON vort_p_mean                  =   1.1277618388221E-04
(PID.TID 0000.0001) %MON vort_p_sd                    =   7.1087222026291E-05
(PID.TID 0000.0001) %MON surfExpan_theta_mean         =  -1.5362319953507E-09
(PID.TID 0000.0001) %MON surfExpan_salt_mean          =   7.3852909466939E-13
(PID.TID 0000.0001) // =======================================================
(PID.TID 0000.0001) // End MONITOR dynamic field statistics
(PID.TID 0000.0001) // =======================================================
 cg2d: Sum(rhs),rhsMax =  -5.73934826742272E+02  5.65738735016363E-02
(PID.TID 0000.0001)                    cg2d_init_res =    1.40145046044896E+00
(PID.TID 0000.0001)                       cg2d_iters =    88
(PID.TID 0000.0001)                         cg2d_res =    8.67825013804157E-12
(PID.TID 0000.0001) // =======================================================
(PID.TID 0000.0001) // Begin MONITOR dynamic field statistics
(PID.TID 0000.0001) // =======================================================
(PID.TID 0000.0001) %MON time_tsnumber                =                    16
(PID.TID 0000.0001) %MON time_secondsf                =   4.8000000000000E+03
(PID.TID 0000.0001) %MON dynstat_eta_max              =   1.6423055511501E-01
(PID.TID 0000.0001) %MON dynstat_eta_min              =  -1.1195025253773E-01
(PID.TID 0000.0001) %MON dynstat_eta_mean             =   4.1301413487435E-02
(PID.TID 0000.0001) %MON dynstat_eta_sd               =   4.8666897335721E-02
(PID.TID 0000.0001) %MON dynstat_eta_del2             =   1.2063396481248E-04
(PID.TID 0000.0001) %MON dynstat_uvel_max             =   3.4965775553025E-01
(PID.TID 0000.0001) %MON dynstat_uvel_min             =  -2.0583584745586E-01
(PID.TID 0000.0001) %MON dynstat_uvel_mean            =  -1.6337952531748E-03
(PID.TID 0000.0001) %MON dynstat_uvel_sd              =   4.6797857533344E-03
(PID.TID 0000.0001) %MON dynstat_uvel_del2            =   4.6862002296123E-05
(PID.TID 0000.0001) %MON dynstat_vvel_max             =   1.2594950891553E-03
(PID.TID 0000.0001) %MON dynstat_vvel_min             =  -1.9393425212476E+00
(PID.TID 0000.0001) %MON dynstat_vvel_mean            =  -1.2990179833737E-03
(PID.TID 0000.0001) %MON dynstat_vvel_sd              =   9.8737728537022E-03
(PID.TID 0000.0001) %MON dynstat_vvel_del2            =   6.5347045815746E-05
(PID.TID 0000.0001) %MON dynstat_wvel_max             =   1.7928481005182E-02
(PID.TID 0000.0001) %MON dynstat_wvel_min             =  -4.8654876671778E-02
(PID.TID 0000.0001) %MON dynstat_wvel_mean            =  -8.1613267439236E-22
(PID.TID 0000.0001) %MON dynstat_wvel_sd              =   2.3805211234856E-04
(PID.TID 0000.0001) %MON dynstat_wvel_del2            =   2.5550628964043E-06
(PID.TID 0000.0001) %MON dynstat_theta_max            =  -1.9417475731312E-01
(PID.TID 0000.0001) %MON dynstat_theta_min            =  -9.7087381093410E+00
(PID.TID 0000.0001) %MON dynstat_theta_mean           =  -4.1283347251858E+00
(PID.TID 0000.0001) %MON dynstat_theta_sd             =   2.6833416174678E+00
(PID.TID 0000.0001) %MON dynstat_theta_del2           =   3.8647593006608E-04
(PID.TID 0000.0001) %MON dynstat_salt_max             =   2.0000000000000E+00
(PID.TID 0000.0001) %MON dynstat_salt_min             =   1.0000000000000E+00
(PID.TID 0000.0001) %MON dynstat_salt_mean            =   1.0000422795180E+00
(PID.TID 0000.0001) %MON dynstat_salt_sd              =   5.6759403106386E-03
(PID.TID 0000.0001) %MON dynstat_salt_del2            =   4.6802192504806E-05
(PID.TID 0000.0001) %MON advcfl_uvel_max              =   1.0489732665908E-02
(PID.TID 0000.0001) %MON advcfl_vvel_max              =   5.8180275462155E-02
(PID.TID 0000.0001) %MON advcfl_wvel_max              =   2.0272865279907E-01
(PID.TID 0000.0001) %MON advcfl_W_hf_max              =   2.0272865279907E-01
(PID.TID 0000.0001) %MON pe_b_mean                    =   7.4802228632570E-06
(PID.TID 0000.0001) %MON ke_max                       =   1.2422389504073E+00
(PID.TID 0000.0001) %MON ke_mean                      =   5.8540322924589E-05
(PID.TID 0000.0001) %MON ke_vol                       =   2.7059236822588E+15
(PID.TID 0000.0001) %MON vort_r_min                   =  -1.9393425212476E-04
(PID.TID 0000.0001) %MON vort_r_max                   =   1.2801483318932E-04
(PID.TID 0000.0001) %MON vort_a_mean                  =   9.9999999999963E-05
(PID.TID 0000.0001) %MON vort_a_sd                    =   9.8932512315272E-07
(PID.TID 0000.0001) %MON vort_p_mean                  =   1.1277618388217E-04
(PID.TID 0000.0001) %MON vort_p_sd                    =   7.1084046832056E-05
(PID.TID 0000.0001) %MON surfExpan_theta_mean         =  -1.9849336871357E-09
(PID.TID 0000.0001) %MON surfExpan_salt_mean          =   1.3274724119394E-12
(PID.TID 0000.0001) // =======================================================
(PID.TID 0000.0001) // End MONITOR dynamic field statistics
(PID.TID 0000.0001) // =======================================================
 cg2d: Sum(rhs),rhsMax =  -5.63542192592213E+02  6.12182558357934E-02
(PID.TID 0000.0001)                    cg2d_init_res =    1.16709378205793E+00
(PID.TID 0000.0001)                       cg2d_iters =    88
(PID.TID 0000.0001)                         cg2d_res =    8.49169364120536E-12
(PID.TID 0000.0001) // =======================================================
(PID.TID 0000.0001) // Begin MONITOR dynamic field statistics
(PID.TID 0000.0001) // =======================================================
(PID.TID 0000.0001) %MON time_tsnumber                =                    17
(PID.TID 0000.0001) %MON time_secondsf                =   5.1000000000000E+03
(PID.TID 0000.0001) %MON dynstat_eta_max              =   1.6761130167229E-01
(PID.TID 0000.0001) %MON dynstat_eta_min              =  -7.0086765364877E-02
(PID.TID 0000.0001) %MON dynstat_eta_mean             =   4.3882747462587E-02
(PID.TID 0000.0001) %MON dynstat_eta_sd               =   4.7756194933150E-02
(PID.TID 0000.0001) %MON dynstat_eta_del2             =   9.2999263957339E-05
(PID.TID 0000.0001) %MON dynstat_uvel_max             =   3.4729102591354E-01
(PID.TID 0000.0001) %MON dynstat_uvel_min             =  -2.0830884903202E-01
(PID.TID 0000.0001) %MON dynstat_uvel_mean            =  -1.8571692749302E-03
(PID.TID 0000.0001) %MON dynstat_uvel_sd              =   4.6632610639540E-03
(PID.TID 0000.0001) %MON dynstat_uvel_del2            =   4.7410005915242E-05
(PID.TID 0000.0001) %MON dynstat_vvel_max             =   1.6017147761927E-03
(PID.TID 0000.0001) %MON dynstat_vvel_min             =  -1.9393425212476E+00
(PID.TID 0000.0001) %MON dynstat_vvel_mean            =  -1.0654429234068E-03
(PID.TID 0000.0001) %MON dynstat_vvel_sd              =   9.8496410658840E-03
(PID.TID 0000.0001) %MON dynstat_vvel_del2            =   6.3753981702794E-05
(PID.TID 0000.0001) %MON dynstat_wvel_max             =   1.7184272141482E-02
(PID.TID 0000.0001) %MON dynstat_wvel_min             =  -4.8654876671778E-02
(PID.TID 0000.0001) %MON dynstat_wvel_mean            =   4.3611224593902E-22
(PID.TID 0000.0001) %MON dynstat_wvel_sd              =   2.3746512702715E-04
(PID.TID 0000.0001) %MON dynstat_wvel_del2            =   2.5017883822726E-06
(PID.TID 0000.0001) %MON dynstat_theta_max            =  -1.9417475738337E-01
(PID.TID 0000.0001) %MON dynstat_theta_min            =  -9.7087381093410E+00
(PID.TID 0000.0001) %MON dynstat_theta_mean           =  -4.1283429592565E+00
(PID.TID 0000.0001) %MON dynstat_theta_sd             =   2.6833405095068E+00
(PID.TID 0000.0001) %MON dynstat_theta_del2           =   3.8830801184140E-04
(PID.TID 0000.0001) %MON dynstat_salt_max             =   2.0000000000000E+00
(PID.TID 0000.0001) %MON dynstat_salt_min             =   1.0000000000000E+00
(PID.TID 0000.0001) %MON dynstat_salt_mean            =   1.0000431469750E+00
(PID.TID 0000.0001) %MON dynstat_salt_sd              =   5.7286056146853E-03
(PID.TID 0000.0001) %MON dynstat_salt_del2            =   4.6963951705468E-05
(PID.TID 0000.0001) %MON advcfl_uvel_max              =   1.0418730777406E-02
(PID.TID 0000.0001) %MON advcfl_vvel_max              =   5.8180275462155E-02
(PID.TID 0000.0001) %MON advcfl_wvel_max              =   2.0272865279907E-01
(PID.TID 0000.0001) %MON advcfl_W_hf_max              =   2.0272865279907E-01
(PID.TID 0000.0001) %MON pe_b_mean                    =   7.7227097949775E-06
(PID.TID 0000.0001) %MON ke_max                       =   1.2699696870349E+00
(PID.TID 0000.0001) %MON ke_mean                      =   5.8371209310180E-05
(PID.TID 0000.0001) %MON ke_vol                       =   2.7059236822588E+15
(PID.TID 0000.0001) %MON vort_r_min                   =  -1.9393425212476E-04
(PID.TID 0000.0001) %MON vort_r_max                   =   1.2753248908540E-04
(PID.TID 0000.0001) %MON vort_a_mean                  =   9.9999999999886E-05
(PID.TID 0000.0001) %MON vort_a_sd                    =   9.9417307018927E-07
(PID.TID 0000.0001) %MON vort_p_mean                  =   1.1277618388208E-04
(PID.TID 0000.0001) %MON vort_p_sd                    =   7.1081842104570E-05
(PID.TID 0000.0001) %MON surfExpan_theta_mean         =  -2.2251314308228E-09
(PID.TID 0000.0001) %MON surfExpan_salt_mean          =   1.7408062025130E-12
(PID.TID 0000.0001) // =======================================================
(PID.TID 0000.0001) // End MONITOR dynamic field statistics
(PID.TID 0000.0001) // =======================================================
 cg2d: Sum(rhs),rhsMax =  -5.59419594716038E+02  6.52969953121608E-02
(PID.TID 0000.0001)                    cg2d_init_res =    1.10075826813365E+00
(PID.TID 0000.0001)                       cg2d_iters =    87
(PID.TID 0000.0001)                         cg2d_res =    9.92332980142331E-12
(PID.TID 0000.0001) // =======================================================
(PID.TID 0000.0001) // Begin MONITOR dynamic field statistics
(PID.TID 0000.0001) // =======================================================
(PID.TID 0000.0001) %MON time_tsnumber                =                    18
(PID.TID 0000.0001) %MON time_secondsf                =   5.4000000000000E+03
(PID.TID 0000.0001) %MON dynstat_eta_max              =   1.6168547379590E-01
(PID.TID 0000.0001) %MON dynstat_eta_min              =  -2.9638476016332E-02
(PID.TID 0000.0001) %MON dynstat_eta_mean             =   4.6464074695203E-02
(PID.TID 0000.0001) %MON dynstat_eta_sd               =   4.6429892720929E-02
(PID.TID 0000.0001) %MON dynstat_eta_del2             =   6.5726711181165E-05
(PID.TID 0000.0001) %MON dynstat_uvel_max             =   3.4454904377856E-01
(PID.TID 0000.0001) %MON dynstat_uvel_min             =  -2.1183466273375E-01
(PID.TID 0000.0001) %MON dynstat_uvel_mean            =  -2.0588062431686E-03
(PID.TID 0000.0001) %MON dynstat_uvel_sd              =   4.6706617086189E-03
(PID.TID 0000.0001) %MON dynstat_uvel_del2            =   4.7866725527669E-05
(PID.TID 0000.0001) %MON dynstat_vvel_max             =   1.7832045070032E-03
(PID.TID 0000.0001) %MON dynstat_vvel_min             =  -1.9393425212476E+00
(PID.TID 0000.0001) %MON dynstat_vvel_mean            =  -8.3843261750252E-04
(PID.TID 0000.0001) %MON dynstat_vvel_sd              =   9.8626144311631E-03
(PID.TID 0000.0001) %MON dynstat_vvel_del2            =   6.2185604987594E-05
(PID.TID 0000.0001) %MON dynstat_wvel_max             =   1.6403646131172E-02
(PID.TID 0000.0001) %MON dynstat_wvel_min             =  -4.8654876671778E-02
(PID.TID 0000.0001) %MON dynstat_wvel_mean            =   6.5415746882741E-22
(PID.TID 0000.0001) %MON dynstat_wvel_sd              =   2.3702453531146E-04
(PID.TID 0000.0001) %MON dynstat_wvel_del2            =   2.4736056989878E-06
(PID.TID 0000.0001) %MON dynstat_theta_max            =  -1.9417475758582E-01
(PID.TID 0000.0001) %MON dynstat_theta_min            =  -9.7087381093410E+00
(PID.TID 0000.0001) %MON dynstat_theta_mean           =  -4.1283511933141E+00
(PID.TID 0000.0001) %MON dynstat_theta_sd             =   2.6833394904842E+00
(PID.TID 0000.0001) %MON dynstat_theta_del2           =   3.9101587289521E-04
(PID.TID 0000.0001) %MON dynstat_salt_max             =   2.0000000000000E+00
(PID.TID 0000.0001) %MON dynstat_salt_min             =   1.0000000000000E+00
(PID.TID 0000.0001) %MON dynstat_salt_mean            =   1.0000440144320E+00
(PID.TID 0000.0001) %MON dynstat_salt_sd              =   5.7816054018965E-03
(PID.TID 0000.0001) %MON dynstat_salt_del2            =   4.7247905456726E-05
(PID.TID 0000.0001) %MON advcfl_uvel_max              =   1.0336471313357E-02
(PID.TID 0000.0001) %MON advcfl_vvel_max              =   5.8180275462155E-02
(PID.TID 0000.0001) %MON advcfl_wvel_max              =   2.0272865279907E-01
(PID.TID 0000.0001) %MON advcfl_W_hf_max              =   2.0272865279907E-01
(PID.TID 0000.0001) %MON pe_b_mean                    =   7.9215365096982E-06
(PID.TID 0000.0001) %MON ke_max                       =   1.2995761275398E+00
(PID.TID 0000.0001) %MON ke_mean                      =   5.8715934732576E-05
(PID.TID 0000.0001) %MON ke_vol                       =   2.7059236822588E+15
(PID.TID 0000.0001) %MON vort_r_min                   =  -1.9393425212476E-04
(PID.TID 0000.0001) %MON vort_r_max                   =   1.2706704218177E-04
(PID.TID 0000.0001) %MON vort_a_mean                  =   9.9999999999708E-05
(PID.TID 0000.0001) %MON vort_a_sd                    =   1.0001416793477E-06
(PID.TID 0000.0001) %MON vort_p_mean                  =   1.1277618388188E-04
(PID.TID 0000.0001) %MON vort_p_sd                    =   7.1080458104698E-05
(PID.TID 0000.0001) %MON surfExpan_theta_mean         =  -2.3256233009501E-09
(PID.TID 0000.0001) %MON surfExpan_salt_mean          =   1.9465778063204E-12
(PID.TID 0000.0001) // =======================================================
(PID.TID 0000.0001) // End MONITOR dynamic field statistics
(PID.TID 0000.0001) // =======================================================
 cg2d: Sum(rhs),rhsMax =  -5.62793547012508E+02  6.85113671578479E-02
(PID.TID 0000.0001)                    cg2d_init_res =    1.13360831268879E+00
(PID.TID 0000.0001)                       cg2d_iters =    87
(PID.TID 0000.0001)                         cg2d_res =    9.99265751452846E-12
(PID.TID 0000.0001) // =======================================================
(PID.TID 0000.0001) // Begin MONITOR dynamic field statistics
(PID.TID 0000.0001) // =======================================================
(PID.TID 0000.0001) %MON time_tsnumber                =                    19
(PID.TID 0000.0001) %MON time_secondsf                =   5.7000000000000E+03
(PID.TID 0000.0001) %MON dynstat_eta_max              =   1.4800079210518E-01
(PID.TID 0000.0001) %MON dynstat_eta_min              =   0.0000000000000E+00
(PID.TID 0000.0001) %MON dynstat_eta_mean             =   4.9045386850073E-02
(PID.TID 0000.0001) %MON dynstat_eta_sd               =   4.5003789894268E-02
(PID.TID 0000.0001) %MON dynstat_eta_del2             =   6.1841854028378E-05
(PID.TID 0000.0001) %MON dynstat_uvel_max             =   3.4146628244667E-01
(PID.TID 0000.0001) %MON dynstat_uvel_min             =  -2.1591300757471E-01
(PID.TID 0000.0001) %MON dynstat_uvel_mean            =  -2.2367604102743E-03
(PID.TID 0000.0001) %MON dynstat_uvel_sd              =   4.6963518089078E-03
(PID.TID 0000.0001) %MON dynstat_uvel_del2            =   4.8245143033672E-05
(PID.TID 0000.0001) %MON dynstat_vvel_max             =   1.8317683707365E-03
(PID.TID 0000.0001) %MON dynstat_vvel_min             =  -1.9393425212476E+00
(PID.TID 0000.0001) %MON dynstat_vvel_mean            =  -6.3869463487748E-04
(PID.TID 0000.0001) %MON dynstat_vvel_sd              =   9.9057439615927E-03
(PID.TID 0000.0001) %MON dynstat_vvel_del2            =   6.1344101246103E-05
(PID.TID 0000.0001) %MON dynstat_wvel_max             =   1.5597187638331E-02
(PID.TID 0000.0001) %MON dynstat_wvel_min             =  -4.8654876671778E-02
(PID.TID 0000.0001) %MON dynstat_wvel_mean            =   8.5434835882781E-23
(PID.TID 0000.0001) %MON dynstat_wvel_sd              =   2.3671889875606E-04
(PID.TID 0000.0001) %MON dynstat_wvel_del2            =   2.4639001511527E-06
(PID.TID 0000.0001) %MON dynstat_theta_max            =  -1.9417475812939E-01
(PID.TID 0000.0001) %MON dynstat_theta_min            =  -9.7087381093410E+00
(PID.TID 0000.0001) %MON dynstat_theta_mean           =  -4.1283594273643E+00
(PID.TID 0000.0001) %MON dynstat_theta_sd             =   2.6833384782089E+00
(PID.TID 0000.0001) %MON dynstat_theta_del2           =   3.9332625545598E-04
(PID.TID 0000.0001) %MON dynstat_salt_max             =   2.0000000000000E+00
(PID.TID 0000.0001) %MON dynstat_salt_min             =   1.0000000000000E+00
(PID.TID 0000.0001) %MON dynstat_salt_mean            =   1.0000448818890E+00
(PID.TID 0000.0001) %MON dynstat_salt_sd              =   5.8342583504281E-03
(PID.TID 0000.0001) %MON dynstat_salt_del2            =   4.7493281075786E-05
(PID.TID 0000.0001) %MON advcfl_uvel_max              =   1.0243988473400E-02
(PID.TID 0000.0001) %MON advcfl_vvel_max              =   5.8180275462155E-02
(PID.TID 0000.0001) %MON advcfl_wvel_max              =   2.0272865279907E-01
(PID.TID 0000.0001) %MON advcfl_W_hf_max              =   2.0272865279907E-01
(PID.TID 0000.0001) %MON pe_b_mean                    =   8.1347762909425E-06
(PID.TID 0000.0001) %MON ke_max                       =   1.3309103288964E+00
(PID.TID 0000.0001) %MON ke_mean                      =   5.9476275404129E-05
(PID.TID 0000.0001) %MON ke_vol                       =   2.7059236822588E+15
(PID.TID 0000.0001) %MON vort_r_min                   =  -1.9393425212476E-04
(PID.TID 0000.0001) %MON vort_r_max                   =   1.2661572797130E-04
(PID.TID 0000.0001) %MON vort_a_mean                  =   9.9999999999329E-05
(PID.TID 0000.0001) %MON vort_a_sd                    =   1.0069610259254E-06
(PID.TID 0000.0001) %MON vort_p_mean                  =   1.1277618388146E-04
(PID.TID 0000.0001) %MON vort_p_sd                    =   7.1079662457661E-05
(PID.TID 0000.0001) %MON surfExpan_theta_mean         =  -2.3352894255223E-09
(PID.TID 0000.0001) %MON surfExpan_salt_mean          =   1.9870590069008E-12
(PID.TID 0000.0001) // =======================================================
(PID.TID 0000.0001) // End MONITOR dynamic field statistics
(PID.TID 0000.0001) // =======================================================
 cg2d: Sum(rhs),rhsMax =  -5.73424379765856E+02  7.07801559988651E-02
(PID.TID 0000.0001)                    cg2d_init_res =    1.18251065708187E+00
(PID.TID 0000.0001)                       cg2d_iters =    87
(PID.TID 0000.0001)                         cg2d_res =    9.11507656753868E-12
(PID.TID 0000.0001) // =======================================================
(PID.TID 0000.0001) // Begin MONITOR dynamic field statistics
(PID.TID 0000.0001) // =======================================================
(PID.TID 0000.0001) %MON time_tsnumber                =                    20
(PID.TID 0000.0001) %MON time_secondsf                =   6.0000000000000E+03
(PID.TID 0000.0001) %MON dynstat_eta_max              =   1.6938434886486E-01
(PID.TID 0000.0001) %MON dynstat_eta_min              =   0.0000000000000E+00
(PID.TID 0000.0001) %MON dynstat_eta_mean             =   5.1626667256129E-02
(PID.TID 0000.0001) %MON dynstat_eta_sd               =   4.3797121563895E-02
(PID.TID 0000.0001) %MON dynstat_eta_del2             =   7.5977848028380E-05
(PID.TID 0000.0001) %MON dynstat_uvel_max             =   3.3809414175210E-01
(PID.TID 0000.0001) %MON dynstat_uvel_min             =  -2.2016392589093E-01
(PID.TID 0000.0001) %MON dynstat_uvel_mean            =  -2.3919826966048E-03
(PID.TID 0000.0001) %MON dynstat_uvel_sd              =   4.7368552399254E-03
(PID.TID 0000.0001) %MON dynstat_uvel_del2            =   4.8594498320373E-05
(PID.TID 0000.0001) %MON dynstat_vvel_max             =   2.0665434480559E-03
(PID.TID 0000.0001) %MON dynstat_vvel_min             =  -1.9393425212476E+00
(PID.TID 0000.0001) %MON dynstat_vvel_mean            =  -4.8215135074965E-04
(PID.TID 0000.0001) %MON dynstat_vvel_sd              =   9.9714431133757E-03
(PID.TID 0000.0001) %MON dynstat_vvel_del2            =   6.1121522971711E-05
(PID.TID 0000.0001) %MON dynstat_wvel_max             =   1.4774664485620E-02
(PID.TID 0000.0001) %MON dynstat_wvel_min             =  -4.8654876671778E-02
(PID.TID 0000.0001) %MON dynstat_wvel_mean            =  -1.5499097858207E-22
(PID.TID 0000.0001) %MON dynstat_wvel_sd              =   2.3651975633039E-04
(PID.TID 0000.0001) %MON dynstat_wvel_del2            =   2.4603357601600E-06
(PID.TID 0000.0001) %MON dynstat_theta_max            =  -1.9417475949639E-01
(PID.TID 0000.0001) %MON dynstat_theta_min            =  -9.7087381093410E+00
(PID.TID 0000.0001) %MON dynstat_theta_mean           =  -4.1283676614054E+00
(PID.TID 0000.0001) %MON dynstat_theta_sd             =   2.6833374580420E+00
(PID.TID 0000.0001) %MON dynstat_theta_del2           =   3.9517798394857E-04
(PID.TID 0000.0001) %MON dynstat_salt_max             =   2.0000000000000E+00
(PID.TID 0000.0001) %MON dynstat_salt_min             =   1.0000000000000E+00
(PID.TID 0000.0001) %MON dynstat_salt_mean            =   1.0000457493460E+00
(PID.TID 0000.0001) %MON dynstat_salt_sd              =   5.8864480924920E-03
(PID.TID 0000.0001) %MON dynstat_salt_del2            =   4.7690693804346E-05
(PID.TID 0000.0001) %MON advcfl_uvel_max              =   1.0142824252563E-02
(PID.TID 0000.0001) %MON advcfl_vvel_max              =   5.8180275462155E-02
(PID.TID 0000.0001) %MON advcfl_wvel_max              =   2.0272865279907E-01
(PID.TID 0000.0001) %MON advcfl_W_hf_max              =   2.0272865279907E-01
(PID.TID 0000.0001) %MON pe_b_mean                    =   8.4151456495776E-06
(PID.TID 0000.0001) %MON ke_max                       =   1.3637975929931E+00
(PID.TID 0000.0001) %MON ke_mean                      =   6.0551676997819E-05
(PID.TID 0000.0001) %MON ke_vol                       =   2.7059236822588E+15
(PID.TID 0000.0001) %MON vort_r_min                   =  -1.9393425212476E-04
(PID.TID 0000.0001) %MON vort_r_max                   =   1.2617655681499E-04
(PID.TID 0000.0001) %MON vort_a_mean                  =   9.9999999998572E-05
(PID.TID 0000.0001) %MON vort_a_sd                    =   1.0144199565678E-06
(PID.TID 0000.0001) %MON vort_p_mean                  =   1.1277618388060E-04
(PID.TID 0000.0001) %MON vort_p_sd                    =   7.1079187394160E-05
(PID.TID 0000.0001) %MON surfExpan_theta_mean         =  -2.2815389247831E-09
(PID.TID 0000.0001) %MON surfExpan_salt_mean          =   1.9227849989233E-12
(PID.TID 0000.0001) // =======================================================
(PID.TID 0000.0001) // End MONITOR dynamic field statistics
(PID.TID 0000.0001) // =======================================================
(PID.TID 0000.0001) %CHECKPOINT        20 ckptA
(PID.TID 0000.0001)   Seconds in section "ALL                    [THE_MODEL_MAIN]":
(PID.TID 0000.0001)           User time:  20.24
(PID.TID 0000.0001)         System time:  1.45000005
(PID.TID 0000.0001)     Wall clock time:  43.549978
(PID.TID 0000.0001)          No. starts: 1
(PID.TID 0000.0001)           No. stops: 1
(PID.TID 0000.0001)   Seconds in section "INITIALISE_FIXED       [THE_MODEL_MAIN]":
(PID.TID 0000.0001)           User time:  0.399999997
(PID.TID 0000.0001)         System time:  0.209999993
(PID.TID 0000.0001)     Wall clock time:  1.19913197
(PID.TID 0000.0001)          No. starts: 1
(PID.TID 0000.0001)           No. stops: 1
(PID.TID 0000.0001)   Seconds in section "THE_MAIN_LOOP          [THE_MODEL_MAIN]":
(PID.TID 0000.0001)           User time:  18.9500006
(PID.TID 0000.0001)         System time:  0.420000002
(PID.TID 0000.0001)     Wall clock time:  38.7036319
(PID.TID 0000.0001)          No. starts: 1
(PID.TID 0000.0001)           No. stops: 1
(PID.TID 0000.0001)   Seconds in section "INITIALISE_VARIA    [THE_MAIN_LOOP]":
(PID.TID 0000.0001)           User time:  0.210000008
(PID.TID 0000.0001)         System time:  0.0799999982
(PID.TID 0000.0001)     Wall clock time:  0.615032911
(PID.TID 0000.0001)          No. starts: 1
(PID.TID 0000.0001)           No. stops: 1
(PID.TID 0000.0001)   Seconds in section "MONITOR             [THE_MAIN_LOOP]":
(PID.TID 0000.0001)           User time:  0.0899999738
(PID.TID 0000.0001)         System time:  0.
(PID.TID 0000.0001)     Wall clock time:  0.191410065
(PID.TID 0000.0001)          No. starts: 1
(PID.TID 0000.0001)           No. stops: 1
(PID.TID 0000.0001)   Seconds in section "DO_THE_MODEL_IO     [THE_MAIN_LOOP]":
(PID.TID 0000.0001)           User time:  0.24000001
(PID.TID 0000.0001)         System time:  0.159999996
(PID.TID 0000.0001)     Wall clock time:  0.80150795
(PID.TID 0000.0001)          No. starts: 1
(PID.TID 0000.0001)           No. stops: 1
(PID.TID 0000.0001)   Seconds in section "MAIN LOOP           [THE_MAIN_LOOP]":
(PID.TID 0000.0001)           User time:  18.4100006
(PID.TID 0000.0001)         System time:  0.180000007
(PID.TID 0000.0001)     Wall clock time:  37.09553
(PID.TID 0000.0001)          No. starts: 1
(PID.TID 0000.0001)           No. stops: 1
(PID.TID 0000.0001)   Seconds in section "FORWARD_STEP        [THE_MAIN_LOOP]":
(PID.TID 0000.0001)           User time:  18.4100006
(PID.TID 0000.0001)         System time:  0.180000007
(PID.TID 0000.0001)     Wall clock time:  37.0949328
(PID.TID 0000.0001)          No. starts: 20
(PID.TID 0000.0001)           No. stops: 20
(PID.TID 0000.0001)   Seconds in section "EXTERNAL_FIELDS_LOAD[FORWARD_STEP]":
(PID.TID 0000.0001)           User time:  0.
(PID.TID 0000.0001)         System time:  0.
(PID.TID 0000.0001)     Wall clock time:  0.00056552887
(PID.TID 0000.0001)          No. starts: 20
(PID.TID 0000.0001)           No. stops: 20
(PID.TID 0000.0001)   Seconds in section "DO_ATMOSPHERIC_PHYS [FORWARD_STEP]":
(PID.TID 0000.0001)           User time:  0.
(PID.TID 0000.0001)         System time:  0.
(PID.TID 0000.0001)     Wall clock time:  0.000560998917
(PID.TID 0000.0001)          No. starts: 20
(PID.TID 0000.0001)           No. stops: 20
(PID.TID 0000.0001)   Seconds in section "DO_OCEANIC_PHYS     [FORWARD_STEP]":
(PID.TID 0000.0001)           User time:  0.439999163
(PID.TID 0000.0001)         System time:  0.
(PID.TID 0000.0001)     Wall clock time:  0.749807358
(PID.TID 0000.0001)          No. starts: 20
(PID.TID 0000.0001)           No. stops: 20
(PID.TID 0000.0001)   Seconds in section "DYNAMICS            [FORWARD_STEP]":
(PID.TID 0000.0001)           User time:  5.1400007
(PID.TID 0000.0001)         System time:  0.0200000107
(PID.TID 0000.0001)     Wall clock time:  10.4898887
(PID.TID 0000.0001)          No. starts: 20
(PID.TID 0000.0001)           No. stops: 20
(PID.TID 0000.0001)   Seconds in section "SOLVE_FOR_PRESSURE  [FORWARD_STEP]":
(PID.TID 0000.0001)           User time:  2.4900018
(PID.TID 0000.0001)         System time:  0.
(PID.TID 0000.0001)     Wall clock time:  4.88797116
(PID.TID 0000.0001)          No. starts: 20
(PID.TID 0000.0001)           No. stops: 20
(PID.TID 0000.0001)   Seconds in section "UV_CORRECTION_STEP  [FORWARD_STEP]":
(PID.TID 0000.0001)           User time:  0.379998684
(PID.TID 0000.0001)         System time:  0.
(PID.TID 0000.0001)     Wall clock time:  0.564460993
(PID.TID 0000.0001)          No. starts: 20
(PID.TID 0000.0001)           No. stops: 20
(PID.TID 0000.0001)   Seconds in section "BLOCKING_EXCHANGES  [FORWARD_STEP]":
(PID.TID 0000.0001)           User time:  0.689999342
(PID.TID 0000.0001)         System time:  0.
(PID.TID 0000.0001)     Wall clock time:  1.71082711
(PID.TID 0000.0001)          No. starts: 40
(PID.TID 0000.0001)           No. stops: 40
(PID.TID 0000.0001)   Seconds in section "THERMODYNAMICS      [FORWARD_STEP]":
(PID.TID 0000.0001)           User time:  6.96000159
(PID.TID 0000.0001)         System time:  0.00999999046
(PID.TID 0000.0001)     Wall clock time:  13.7760596
(PID.TID 0000.0001)          No. starts: 20
(PID.TID 0000.0001)           No. stops: 20
(PID.TID 0000.0001)   Seconds in section "TS_CORRECTION_STEP  [FORWARD_STEP]":
(PID.TID 0000.0001)           User time:  0.139998674
(PID.TID 0000.0001)         System time:  0.
(PID.TID 0000.0001)     Wall clock time:  0.23357296
(PID.TID 0000.0001)          No. starts: 20
(PID.TID 0000.0001)           No. stops: 20
(PID.TID 0000.0001)   Seconds in section "DO_STATEVARS_DIAGS  [FORWARD_STEP]":
(PID.TID 0000.0001)           User time:  0.
(PID.TID 0000.0001)         System time:  0.
(PID.TID 0000.0001)     Wall clock time:  0.000589132309
(PID.TID 0000.0001)          No. starts: 20
(PID.TID 0000.0001)           No. stops: 20
(PID.TID 0000.0001)   Seconds in section "MONITOR             [FORWARD_STEP]":
(PID.TID 0000.0001)           User time:  1.80000031
(PID.TID 0000.0001)         System time:  0.
(PID.TID 0000.0001)     Wall clock time:  3.58688164
(PID.TID 0000.0001)          No. starts: 20
(PID.TID 0000.0001)           No. stops: 20
(PID.TID 0000.0001)   Seconds in section "DO_THE_MODEL_IO     [FORWARD_STEP]":
(PID.TID 0000.0001)           User time:  0.350000381
(PID.TID 0000.0001)         System time:  0.150000006
(PID.TID 0000.0001)     Wall clock time:  1.08443093
(PID.TID 0000.0001)          No. starts: 20
(PID.TID 0000.0001)           No. stops: 20
(PID.TID 0000.0001)   Seconds in section "WRITE_CHECKPOINT    [FORWARD_STEP]":
(PID.TID 0000.0001)           User time:  0.
(PID.TID 0000.0001)         System time:  0.
(PID.TID 0000.0001)     Wall clock time:  0.000579595566
(PID.TID 0000.0001)          No. starts: 20
(PID.TID 0000.0001)           No. stops: 20
(PID.TID 0000.0001)   Seconds in section "WRITE_CHECKPOINT       [THE_MODEL_MAIN]":
(PID.TID 0000.0001)           User time:  0.88999939
(PID.TID 0000.0001)         System time:  0.820000052
(PID.TID 0000.0001)     Wall clock time:  3.64707994
(PID.TID 0000.0001)          No. starts: 1
(PID.TID 0000.0001)           No. stops: 1
(PID.TID 0000.0001) // ======================================================
(PID.TID 0000.0001) // Tile <-> Tile communication statistics
(PID.TID 0000.0001) // ======================================================
(PID.TID 0000.0001) // o Tile number: 000001
(PID.TID 0000.0001) //         No. X exchanges =              0
(PID.TID 0000.0001) //            Max. X spins =              0
(PID.TID 0000.0001) //            Min. X spins =     1000000000
(PID.TID 0000.0001) //          Total. X spins =              0
(PID.TID 0000.0001) //            Avg. X spins =       0.00E+00
(PID.TID 0000.0001) //         No. Y exchanges =              0
(PID.TID 0000.0001) //            Max. Y spins =              0
(PID.TID 0000.0001) //            Min. Y spins =     1000000000
(PID.TID 0000.0001) //          Total. Y spins =              0
(PID.TID 0000.0001) //            Avg. Y spins =       0.00E+00
(PID.TID 0000.0001) // o Tile number: 000002
(PID.TID 0000.0001) //         No. X exchanges =              0
(PID.TID 0000.0001) //            Max. X spins =              0
(PID.TID 0000.0001) //            Min. X spins =     1000000000
(PID.TID 0000.0001) //          Total. X spins =              0
(PID.TID 0000.0001) //            Avg. X spins =       0.00E+00
(PID.TID 0000.0001) //         No. Y exchanges =              0
(PID.TID 0000.0001) //            Max. Y spins =              0
(PID.TID 0000.0001) //            Min. Y spins =     1000000000
(PID.TID 0000.0001) //          Total. Y spins =              0
(PID.TID 0000.0001) //            Avg. Y spins =       0.00E+00
(PID.TID 0000.0001) // o Tile number: 000003
(PID.TID 0000.0001) //         No. X exchanges =              0
(PID.TID 0000.0001) //            Max. X spins =              0
(PID.TID 0000.0001) //            Min. X spins =     1000000000
(PID.TID 0000.0001) //          Total. X spins =              0
(PID.TID 0000.0001) //            Avg. X spins =       0.00E+00
(PID.TID 0000.0001) //         No. Y exchanges =              0
(PID.TID 0000.0001) //            Max. Y spins =              0
(PID.TID 0000.0001) //            Min. Y spins =     1000000000
(PID.TID 0000.0001) //          Total. Y spins =              0
(PID.TID 0000.0001) //            Avg. Y spins =       0.00E+00
(PID.TID 0000.0001) // o Tile number: 000004
(PID.TID 0000.0001) //         No. X exchanges =              0
(PID.TID 0000.0001) //            Max. X spins =              0
(PID.TID 0000.0001) //            Min. X spins =     1000000000
(PID.TID 0000.0001) //          Total. X spins =              0
(PID.TID 0000.0001) //            Avg. X spins =       0.00E+00
(PID.TID 0000.0001) //         No. Y exchanges =              0
(PID.TID 0000.0001) //            Max. Y spins =              0
(PID.TID 0000.0001) //            Min. Y spins =     1000000000
(PID.TID 0000.0001) //          Total. Y spins =              0
(PID.TID 0000.0001) //            Avg. Y spins =       0.00E+00
(PID.TID 0000.0001) // o Tile number: 000005
(PID.TID 0000.0001) //         No. X exchanges =              0
(PID.TID 0000.0001) //            Max. X spins =              0
(PID.TID 0000.0001) //            Min. X spins =     1000000000
(PID.TID 0000.0001) //          Total. X spins =              0
(PID.TID 0000.0001) //            Avg. X spins =       0.00E+00
(PID.TID 0000.0001) //         No. Y exchanges =              0
(PID.TID 0000.0001) //            Max. Y spins =              0
(PID.TID 0000.0001) //            Min. Y spins =     1000000000
(PID.TID 0000.0001) //          Total. Y spins =              0
(PID.TID 0000.0001) //            Avg. Y spins =       0.00E+00
(PID.TID 0000.0001) // o Tile number: 000006
(PID.TID 0000.0001) //         No. X exchanges =              0
(PID.TID 0000.0001) //            Max. X spins =              0
(PID.TID 0000.0001) //            Min. X spins =     1000000000
(PID.TID 0000.0001) //          Total. X spins =              0
(PID.TID 0000.0001) //            Avg. X spins =       0.00E+00
(PID.TID 0000.0001) //         No. Y exchanges =              0
(PID.TID 0000.0001) //            Max. Y spins =              0
(PID.TID 0000.0001) //            Min. Y spins =     1000000000
(PID.TID 0000.0001) //          Total. Y spins =              0
(PID.TID 0000.0001) //            Avg. Y spins =       0.00E+00
(PID.TID 0000.0001) // o Tile number: 000007
(PID.TID 0000.0001) //         No. X exchanges =              0
(PID.TID 0000.0001) //            Max. X spins =              0
(PID.TID 0000.0001) //            Min. X spins =     1000000000
(PID.TID 0000.0001) //          Total. X spins =              0
(PID.TID 0000.0001) //            Avg. X spins =       0.00E+00
(PID.TID 0000.0001) //         No. Y exchanges =              0
(PID.TID 0000.0001) //            Max. Y spins =              0
(PID.TID 0000.0001) //            Min. Y spins =     1000000000
(PID.TID 0000.0001) //          Total. Y spins =              0
(PID.TID 0000.0001) //            Avg. Y spins =       0.00E+00
(PID.TID 0000.0001) // o Tile number: 000008
(PID.TID 0000.0001) //         No. X exchanges =              0
(PID.TID 0000.0001) //            Max. X spins =              0
(PID.TID 0000.0001) //            Min. X spins =     1000000000
(PID.TID 0000.0001) //          Total. X spins =              0
(PID.TID 0000.0001) //            Avg. X spins =       0.00E+00
(PID.TID 0000.0001) //         No. Y exchanges =              0
(PID.TID 0000.0001) //            Max. Y spins =              0
(PID.TID 0000.0001) //            Min. Y spins =     1000000000
(PID.TID 0000.0001) //          Total. Y spins =              0
(PID.TID 0000.0001) //            Avg. Y spins =       0.00E+00
(PID.TID 0000.0001) // o Tile number: 000009
(PID.TID 0000.0001) //         No. X exchanges =              0
(PID.TID 0000.0001) //            Max. X spins =              0
(PID.TID 0000.0001) //            Min. X spins =     1000000000
(PID.TID 0000.0001) //          Total. X spins =              0
(PID.TID 0000.0001) //            Avg. X spins =       0.00E+00
(PID.TID 0000.0001) //         No. Y exchanges =              0
(PID.TID 0000.0001) //            Max. Y spins =              0
(PID.TID 0000.0001) //            Min. Y spins =     1000000000
(PID.TID 0000.0001) //          Total. Y spins =              0
(PID.TID 0000.0001) //            Avg. Y spins =       0.00E+00
(PID.TID 0000.0001) // o Tile number: 000010
(PID.TID 0000.0001) //         No. X exchanges =              0
(PID.TID 0000.0001) //            Max. X spins =              0
(PID.TID 0000.0001) //            Min. X spins =     1000000000
(PID.TID 0000.0001) //          Total. X spins =              0
(PID.TID 0000.0001) //            Avg. X spins =       0.00E+00
(PID.TID 0000.0001) //         No. Y exchanges =              0
(PID.TID 0000.0001) //            Max. Y spins =              0
(PID.TID 0000.0001) //            Min. Y spins =     1000000000
(PID.TID 0000.0001) //          Total. Y spins =              0
(PID.TID 0000.0001) //            Avg. Y spins =       0.00E+00
(PID.TID 0000.0001) // o Tile number: 000011
(PID.TID 0000.0001) //         No. X exchanges =              0
(PID.TID 0000.0001) //            Max. X spins =              0
(PID.TID 0000.0001) //            Min. X spins =     1000000000
(PID.TID 0000.0001) //          Total. X spins =              0
(PID.TID 0000.0001) //            Avg. X spins =       0.00E+00
(PID.TID 0000.0001) //         No. Y exchanges =              0
(PID.TID 0000.0001) //            Max. Y spins =              0
(PID.TID 0000.0001) //            Min. Y spins =     1000000000
(PID.TID 0000.0001) //          Total. Y spins =              0
(PID.TID 0000.0001) //            Avg. Y spins =       0.00E+00
(PID.TID 0000.0001) // o Tile number: 000012
(PID.TID 0000.0001) //         No. X exchanges =              0
(PID.TID 0000.0001) //            Max. X spins =              0
(PID.TID 0000.0001) //            Min. X spins =     1000000000
(PID.TID 0000.0001) //          Total. X spins =              0
(PID.TID 0000.0001) //            Avg. X spins =       0.00E+00
(PID.TID 0000.0001) //         No. Y exchanges =              0
(PID.TID 0000.0001) //            Max. Y spins =              0
(PID.TID 0000.0001) //            Min. Y spins =     1000000000
(PID.TID 0000.0001) //          Total. Y spins =              0
(PID.TID 0000.0001) //            Avg. Y spins =       0.00E+00
(PID.TID 0000.0001) // o Tile number: 000013
(PID.TID 0000.0001) //         No. X exchanges =              0
(PID.TID 0000.0001) //            Max. X spins =              0
(PID.TID 0000.0001) //            Min. X spins =     1000000000
(PID.TID 0000.0001) //          Total. X spins =              0
(PID.TID 0000.0001) //            Avg. X spins =       0.00E+00
(PID.TID 0000.0001) //         No. Y exchanges =              0
(PID.TID 0000.0001) //            Max. Y spins =              0
(PID.TID 0000.0001) //            Min. Y spins =     1000000000
(PID.TID 0000.0001) //          Total. Y spins =              0
(PID.TID 0000.0001) //            Avg. Y spins =       0.00E+00
(PID.TID 0000.0001) // o Tile number: 000014
(PID.TID 0000.0001) //         No. X exchanges =              0
(PID.TID 0000.0001) //            Max. X spins =              0
(PID.TID 0000.0001) //            Min. X spins =     1000000000
(PID.TID 0000.0001) //          Total. X spins =              0
(PID.TID 0000.0001) //            Avg. X spins =       0.00E+00
(PID.TID 0000.0001) //         No. Y exchanges =              0
(PID.TID 0000.0001) //            Max. Y spins =              0
(PID.TID 0000.0001) //            Min. Y spins =     1000000000
(PID.TID 0000.0001) //          Total. Y spins =              0
(PID.TID 0000.0001) //            Avg. Y spins =       0.00E+00
(PID.TID 0000.0001) // o Tile number: 000015
(PID.TID 0000.0001) //         No. X exchanges =              0
(PID.TID 0000.0001) //            Max. X spins =              0
(PID.TID 0000.0001) //            Min. X spins =     1000000000
(PID.TID 0000.0001) //          Total. X spins =              0
(PID.TID 0000.0001) //            Avg. X spins =       0.00E+00
(PID.TID 0000.0001) //         No. Y exchanges =              0
(PID.TID 0000.0001) //            Max. Y spins =              0
(PID.TID 0000.0001) //            Min. Y spins =     1000000000
(PID.TID 0000.0001) //          Total. Y spins =              0
(PID.TID 0000.0001) //            Avg. Y spins =       0.00E+00
(PID.TID 0000.0001) // o Tile number: 000016
(PID.TID 0000.0001) //         No. X exchanges =              0
(PID.TID 0000.0001) //            Max. X spins =              0
(PID.TID 0000.0001) //            Min. X spins =     1000000000
(PID.TID 0000.0001) //          Total. X spins =              0
(PID.TID 0000.0001) //            Avg. X spins =       0.00E+00
(PID.TID 0000.0001) //         No. Y exchanges =              0
(PID.TID 0000.0001) //            Max. Y spins =              0
(PID.TID 0000.0001) //            Min. Y spins =     1000000000
(PID.TID 0000.0001) //          Total. Y spins =              0
(PID.TID 0000.0001) //            Avg. Y spins =       0.00E+00
(PID.TID 0000.0001) // o Tile number: 000017
(PID.TID 0000.0001) //         No. X exchanges =              0
(PID.TID 0000.0001) //            Max. X spins =              0
(PID.TID 0000.0001) //            Min. X spins =     1000000000
(PID.TID 0000.0001) //          Total. X spins =              0
(PID.TID 0000.0001) //            Avg. X spins =       0.00E+00
(PID.TID 0000.0001) //         No. Y exchanges =              0
(PID.TID 0000.0001) //            Max. Y spins =              0
(PID.TID 0000.0001) //            Min. Y spins =     1000000000
(PID.TID 0000.0001) //          Total. Y spins =              0
(PID.TID 0000.0001) //            Avg. Y spins =       0.00E+00
(PID.TID 0000.0001) // o Tile number: 000018
(PID.TID 0000.0001) //         No. X exchanges =              0
(PID.TID 0000.0001) //            Max. X spins =              0
(PID.TID 0000.0001) //            Min. X spins =     1000000000
(PID.TID 0000.0001) //          Total. X spins =              0
(PID.TID 0000.0001) //            Avg. X spins =       0.00E+00
(PID.TID 0000.0001) //         No. Y exchanges =              0
(PID.TID 0000.0001) //            Max. Y spins =              0
(PID.TID 0000.0001) //            Min. Y spins =     1000000000
(PID.TID 0000.0001) //          Total. Y spins =              0
(PID.TID 0000.0001) //            Avg. Y spins =       0.00E+00
(PID.TID 0000.0001) // o Tile number: 000019
(PID.TID 0000.0001) //         No. X exchanges =              0
(PID.TID 0000.0001) //            Max. X spins =              0
(PID.TID 0000.0001) //            Min. X spins =     1000000000
(PID.TID 0000.0001) //          Total. X spins =              0
(PID.TID 0000.0001) //            Avg. X spins =       0.00E+00
(PID.TID 0000.0001) //         No. Y exchanges =              0
(PID.TID 0000.0001) //            Max. Y spins =              0
(PID.TID 0000.0001) //            Min. Y spins =     1000000000
(PID.TID 0000.0001) //          Total. Y spins =              0
(PID.TID 0000.0001) //            Avg. Y spins =       0.00E+00
(PID.TID 0000.0001) // o Tile number: 000020
(PID.TID 0000.0001) //         No. X exchanges =              0
(PID.TID 0000.0001) //            Max. X spins =              0
(PID.TID 0000.0001) //            Min. X spins =     1000000000
(PID.TID 0000.0001) //          Total. X spins =              0
(PID.TID 0000.0001) //            Avg. X spins =       0.00E+00
(PID.TID 0000.0001) //         No. Y exchanges =              0
(PID.TID 0000.0001) //            Max. Y spins =              0
(PID.TID 0000.0001) //            Min. Y spins =     1000000000
(PID.TID 0000.0001) //          Total. Y spins =              0
(PID.TID 0000.0001) //            Avg. Y spins =       0.00E+00
(PID.TID 0000.0001) // o Tile number: 000021
(PID.TID 0000.0001) //         No. X exchanges =              0
(PID.TID 0000.0001) //            Max. X spins =              0
(PID.TID 0000.0001) //            Min. X spins =     1000000000
(PID.TID 0000.0001) //          Total. X spins =              0
(PID.TID 0000.0001) //            Avg. X spins =       0.00E+00
(PID.TID 0000.0001) //         No. Y exchanges =              0
(PID.TID 0000.0001) //            Max. Y spins =              0
(PID.TID 0000.0001) //            Min. Y spins =     1000000000
(PID.TID 0000.0001) //          Total. Y spins =              0
(PID.TID 0000.0001) //            Avg. Y spins =       0.00E+00
(PID.TID 0000.0001) // o Tile number: 000022
(PID.TID 0000.0001) //         No. X exchanges =              0
(PID.TID 0000.0001) //            Max. X spins =              0
(PID.TID 0000.0001) //            Min. X spins =     1000000000
(PID.TID 0000.0001) //          Total. X spins =              0
(PID.TID 0000.0001) //            Avg. X spins =       0.00E+00
(PID.TID 0000.0001) //         No. Y exchanges =              0
(PID.TID 0000.0001) //            Max. Y spins =              0
(PID.TID 0000.0001) //            Min. Y spins =     1000000000
(PID.TID 0000.0001) //          Total. Y spins =              0
(PID.TID 0000.0001) //            Avg. Y spins =       0.00E+00
(PID.TID 0000.0001) // o Tile number: 000023
(PID.TID 0000.0001) //         No. X exchanges =              0
(PID.TID 0000.0001) //            Max. X spins =              0
(PID.TID 0000.0001) //            Min. X spins =     1000000000
(PID.TID 0000.0001) //          Total. X spins =              0
(PID.TID 0000.0001) //            Avg. X spins =       0.00E+00
(PID.TID 0000.0001) //         No. Y exchanges =              0
(PID.TID 0000.0001) //            Max. Y spins =              0
(PID.TID 0000.0001) //            Min. Y spins =     1000000000
(PID.TID 0000.0001) //          Total. Y spins =              0
(PID.TID 0000.0001) //            Avg. Y spins =       0.00E+00
(PID.TID 0000.0001) // o Tile number: 000024
(PID.TID 0000.0001) //         No. X exchanges =              0
(PID.TID 0000.0001) //            Max. X spins =              0
(PID.TID 0000.0001) //            Min. X spins =     1000000000
(PID.TID 0000.0001) //          Total. X spins =              0
(PID.TID 0000.0001) //            Avg. X spins =       0.00E+00
(PID.TID 0000.0001) //         No. Y exchanges =              0
(PID.TID 0000.0001) //            Max. Y spins =              0
(PID.TID 0000.0001) //            Min. Y spins =     1000000000
(PID.TID 0000.0001) //          Total. Y spins =              0
(PID.TID 0000.0001) //            Avg. Y spins =       0.00E+00
(PID.TID 0000.0001) // o Tile number: 000025
(PID.TID 0000.0001) //         No. X exchanges =              0
(PID.TID 0000.0001) //            Max. X spins =              0
(PID.TID 0000.0001) //            Min. X spins =     1000000000
(PID.TID 0000.0001) //          Total. X spins =              0
(PID.TID 0000.0001) //            Avg. X spins =       0.00E+00
(PID.TID 0000.0001) //         No. Y exchanges =              0
(PID.TID 0000.0001) //            Max. Y spins =              0
(PID.TID 0000.0001) //            Min. Y spins =     1000000000
(PID.TID 0000.0001) //          Total. Y spins =              0
(PID.TID 0000.0001) //            Avg. Y spins =       0.00E+00
(PID.TID 0000.0001) // o Tile number: 000026
(PID.TID 0000.0001) //         No. X exchanges =              0
(PID.TID 0000.0001) //            Max. X spins =              0
(PID.TID 0000.0001) //            Min. X spins =     1000000000
(PID.TID 0000.0001) //          Total. X spins =              0
(PID.TID 0000.0001) //            Avg. X spins =       0.00E+00
(PID.TID 0000.0001) //         No. Y exchanges =              0
(PID.TID 0000.0001) //            Max. Y spins =              0
(PID.TID 0000.0001) //            Min. Y spins =     1000000000
(PID.TID 0000.0001) //          Total. Y spins =              0
(PID.TID 0000.0001) //            Avg. Y spins =       0.00E+00
(PID.TID 0000.0001) // o Tile number: 000027
(PID.TID 0000.0001) //         No. X exchanges =              0
(PID.TID 0000.0001) //            Max. X spins =              0
(PID.TID 0000.0001) //            Min. X spins =     1000000000
(PID.TID 0000.0001) //          Total. X spins =              0
(PID.TID 0000.0001) //            Avg. X spins =       0.00E+00
(PID.TID 0000.0001) //         No. Y exchanges =              0
(PID.TID 0000.0001) //            Max. Y spins =              0
(PID.TID 0000.0001) //            Min. Y spins =     1000000000
(PID.TID 0000.0001) //          Total. Y spins =              0
(PID.TID 0000.0001) //            Avg. Y spins =       0.00E+00
(PID.TID 0000.0001) // o Tile number: 000028
(PID.TID 0000.0001) //         No. X exchanges =              0
(PID.TID 0000.0001) //            Max. X spins =              0
(PID.TID 0000.0001) //            Min. X spins =     1000000000
(PID.TID 0000.0001) //          Total. X spins =              0
(PID.TID 0000.0001) //            Avg. X spins =       0.00E+00
(PID.TID 0000.0001) //         No. Y exchanges =              0
(PID.TID 0000.0001) //            Max. Y spins =              0
(PID.TID 0000.0001) //            Min. Y spins =     1000000000
(PID.TID 0000.0001) //          Total. Y spins =              0
(PID.TID 0000.0001) //            Avg. Y spins =       0.00E+00
(PID.TID 0000.0001) // o Tile number: 000029
(PID.TID 0000.0001) //         No. X exchanges =              0
(PID.TID 0000.0001) //            Max. X spins =              0
(PID.TID 0000.0001) //            Min. X spins =     1000000000
(PID.TID 0000.0001) //          Total. X spins =              0
(PID.TID 0000.0001) //            Avg. X spins =       0.00E+00
(PID.TID 0000.0001) //         No. Y exchanges =              0
(PID.TID 0000.0001) //            Max. Y spins =              0
(PID.TID 0000.0001) //            Min. Y spins =     1000000000
(PID.TID 0000.0001) //          Total. Y spins =              0
(PID.TID 0000.0001) //            Avg. Y spins =       0.00E+00
(PID.TID 0000.0001) // o Tile number: 000030
(PID.TID 0000.0001) //         No. X exchanges =              0
(PID.TID 0000.0001) //            Max. X spins =              0
(PID.TID 0000.0001) //            Min. X spins =     1000000000
(PID.TID 0000.0001) //          Total. X spins =              0
(PID.TID 0000.0001) //            Avg. X spins =       0.00E+00
(PID.TID 0000.0001) //         No. Y exchanges =              0
(PID.TID 0000.0001) //            Max. Y spins =              0
(PID.TID 0000.0001) //            Min. Y spins =     1000000000
(PID.TID 0000.0001) //          Total. Y spins =              0
(PID.TID 0000.0001) //            Avg. Y spins =       0.00E+00
(PID.TID 0000.0001) // o Thread number: 000001
(PID.TID 0000.0001) //            No. barriers =          28626
(PID.TID 0000.0001) //      Max. barrier spins =              1
(PID.TID 0000.0001) //      Min. barrier spins =              1
(PID.TID 0000.0001) //     Total barrier spins =          28626
(PID.TID 0000.0001) //      Avg. barrier spins =       1.00E+00
