(PID.TID 0000.0001) 
(PID.TID 0000.0001) // ======================================================
(PID.TID 0000.0001) //                      MITgcm UV
(PID.TID 0000.0001) //                      =========
(PID.TID 0000.0001) // ======================================================
(PID.TID 0000.0001) // execution environment starting up...
(PID.TID 0000.0001) 
(PID.TID 0000.0001) // MITgcmUV version:  checkpoint57u_post
(PID.TID 0000.0001) // Build user:        baylor
(PID.TID 0000.0001) // Build host:        faulks
(PID.TID 0000.0001) // Build date:        Mon Oct 10 14:39:01 EDT 2005
(PID.TID 0000.0001) 
(PID.TID 0000.0001) // =======================================================
(PID.TID 0000.0001) // Execution Environment parameter file "eedata"
(PID.TID 0000.0001) // =======================================================
(PID.TID 0000.0001) ># Example "eedata" file
(PID.TID 0000.0001) ># Lines beginning "#" are comments
(PID.TID 0000.0001) ># nTx - No. threads per process in X
(PID.TID 0000.0001) ># nTy - No. threads per process in Y
(PID.TID 0000.0001) > &EEPARMS
(PID.TID 0000.0001) > &
(PID.TID 0000.0001) ># Note: Some systems use & as the
(PID.TID 0000.0001) ># namelist terminator. Other systems
(PID.TID 0000.0001) ># use a / character (as shown here).
(PID.TID 0000.0001) 
(PID.TID 0000.0001) // =======================================================
(PID.TID 0000.0001) // Computational Grid Specification ( see files "SIZE.h" )
(PID.TID 0000.0001) //                                  ( and "eedata"       )
(PID.TID 0000.0001) // =======================================================
(PID.TID 0000.0001)      nPx =    1 ; /* No. processes in X */
(PID.TID 0000.0001)      nPy =    1 ; /* No. processes in Y */
(PID.TID 0000.0001)      nSx =   10 ; /* No. tiles in X per process */
(PID.TID 0000.0001)      nSy =    3 ; /* No. tiles in Y per process */
(PID.TID 0000.0001)      sNx =   20 ; /* Tile size in X */
(PID.TID 0000.0001)      sNy =   15 ; /* Tile size in Y */
(PID.TID 0000.0001)      OLx =    3 ; /* Tile overlap distance in X */
(PID.TID 0000.0001)      OLy =    3 ; /* Tile overlap distance in Y */
(PID.TID 0000.0001)      nTx =    1 ; /* No. threads in X per process */
(PID.TID 0000.0001)      nTy =    1 ; /* No. threads in Y per process */
(PID.TID 0000.0001)       Nr =   25 ; /* No. levels in the vertical   */
(PID.TID 0000.0001)       nX =  200 ; /* Total domain size in X ( = nPx*nSx*sNx ) */
(PID.TID 0000.0001)       nY =   45 ; /* Total domain size in Y ( = nPy*nSy*sNy ) */
(PID.TID 0000.0001)   nTiles =   30 ; /* Total no. tiles per process ( = nSx*nSy ) */
(PID.TID 0000.0001)   nProcs =    1 ; /* Total no. processes ( = nPx*nPy ) */
(PID.TID 0000.0001) nThreads =    1 ; /* Total no. threads per process ( = nTx*nTy ) */
(PID.TID 0000.0001) usingMPI =    F ; /* Flag used to control whether MPI is in use */
(PID.TID 0000.0001)                   /*  note: To execute a program with MPI calls */
(PID.TID 0000.0001)                   /*  it must be launched appropriately e.g     */
(PID.TID 0000.0001)                   /*  "mpirun -np 64 ......"                    */
(PID.TID 0000.0001) useCoupler=   F ; /* Flag used to control communications with */
(PID.TID 0000.0001)                   /*  other model components, through a coupler */
(PID.TID 0000.0001) 
(PID.TID 0000.0001) // ======================================================
(PID.TID 0000.0001) // Mapping of tiles to threads
(PID.TID 0000.0001) // ======================================================
(PID.TID 0000.0001) // -o- Thread   1, tiles (   1:  10,   1:   3)
(PID.TID 0000.0001) 
(PID.TID 0000.0001) // ======================================================
(PID.TID 0000.0001) // Tile <-> Tile connectvity table
(PID.TID 0000.0001) // ======================================================
(PID.TID 0000.0001) // Tile number: 000001 (process no. = 000001)
(PID.TID 0000.0001) //        WEST: Tile = 000010, Process = 000001, Comm = put
(PID.TID 0000.0001) //                bi = 000010, bj = 000001
(PID.TID 0000.0001) //        EAST: Tile = 000002, Process = 000001, Comm = put
(PID.TID 0000.0001) //                bi = 000002, bj = 000001
(PID.TID 0000.0001) //       SOUTH: Tile = 000021, Process = 000001, Comm = put
(PID.TID 0000.0001) //                bi = 000001, bj = 000003
(PID.TID 0000.0001) //       NORTH: Tile = 000011, Process = 000001, Comm = put
(PID.TID 0000.0001) //                bi = 000001, bj = 000002
(PID.TID 0000.0001) // Tile number: 000002 (process no. = 000001)
(PID.TID 0000.0001) //        WEST: Tile = 000001, Process = 000001, Comm = put
(PID.TID 0000.0001) //                bi = 000001, bj = 000001
(PID.TID 0000.0001) //        EAST: Tile = 000003, Process = 000001, Comm = put
(PID.TID 0000.0001) //                bi = 000003, bj = 000001
(PID.TID 0000.0001) //       SOUTH: Tile = 000022, Process = 000001, Comm = put
(PID.TID 0000.0001) //                bi = 000002, bj = 000003
(PID.TID 0000.0001) //       NORTH: Tile = 000012, Process = 000001, Comm = put
(PID.TID 0000.0001) //                bi = 000002, bj = 000002
(PID.TID 0000.0001) // Tile number: 000003 (process no. = 000001)
(PID.TID 0000.0001) //        WEST: Tile = 000002, Process = 000001, Comm = put
(PID.TID 0000.0001) //                bi = 000002, bj = 000001
(PID.TID 0000.0001) //        EAST: Tile = 000004, Process = 000001, Comm = put
(PID.TID 0000.0001) //                bi = 000004, bj = 000001
(PID.TID 0000.0001) //       SOUTH: Tile = 000023, Process = 000001, Comm = put
(PID.TID 0000.0001) //                bi = 000003, bj = 000003
(PID.TID 0000.0001) //       NORTH: Tile = 000013, Process = 000001, Comm = put
(PID.TID 0000.0001) //                bi = 000003, bj = 000002
(PID.TID 0000.0001) // Tile number: 000004 (process no. = 000001)
(PID.TID 0000.0001) //        WEST: Tile = 000003, Process = 000001, Comm = put
(PID.TID 0000.0001) //                bi = 000003, bj = 000001
(PID.TID 0000.0001) //        EAST: Tile = 000005, Process = 000001, Comm = put
(PID.TID 0000.0001) //                bi = 000005, bj = 000001
(PID.TID 0000.0001) //       SOUTH: Tile = 000024, Process = 000001, Comm = put
(PID.TID 0000.0001) //                bi = 000004, bj = 000003
(PID.TID 0000.0001) //       NORTH: Tile = 000014, Process = 000001, Comm = put
(PID.TID 0000.0001) //                bi = 000004, bj = 000002
(PID.TID 0000.0001) // Tile number: 000005 (process no. = 000001)
(PID.TID 0000.0001) //        WEST: Tile = 000004, Process = 000001, Comm = put
(PID.TID 0000.0001) //                bi = 000004, bj = 000001
(PID.TID 0000.0001) //        EAST: Tile = 000006, Process = 000001, Comm = put
(PID.TID 0000.0001) //                bi = 000006, bj = 000001
(PID.TID 0000.0001) //       SOUTH: Tile = 000025, Process = 000001, Comm = put
(PID.TID 0000.0001) //                bi = 000005, bj = 000003
(PID.TID 0000.0001) //       NORTH: Tile = 000015, Process = 000001, Comm = put
(PID.TID 0000.0001) //                bi = 000005, bj = 000002
(PID.TID 0000.0001) // Tile number: 000006 (process no. = 000001)
(PID.TID 0000.0001) //        WEST: Tile = 000005, Process = 000001, Comm = put
(PID.TID 0000.0001) //                bi = 000005, bj = 000001
(PID.TID 0000.0001) //        EAST: Tile = 000007, Process = 000001, Comm = put
(PID.TID 0000.0001) //                bi = 000007, bj = 000001
(PID.TID 0000.0001) //       SOUTH: Tile = 000026, Process = 000001, Comm = put
(PID.TID 0000.0001) //                bi = 000006, bj = 000003
(PID.TID 0000.0001) //       NORTH: Tile = 000016, Process = 000001, Comm = put
(PID.TID 0000.0001) //                bi = 000006, bj = 000002
(PID.TID 0000.0001) // Tile number: 000007 (process no. = 000001)
(PID.TID 0000.0001) //        WEST: Tile = 000006, Process = 000001, Comm = put
(PID.TID 0000.0001) //                bi = 000006, bj = 000001
(PID.TID 0000.0001) //        EAST: Tile = 000008, Process = 000001, Comm = put
(PID.TID 0000.0001) //                bi = 000008, bj = 000001
(PID.TID 0000.0001) //       SOUTH: Tile = 000027, Process = 000001, Comm = put
(PID.TID 0000.0001) //                bi = 000007, bj = 000003
(PID.TID 0000.0001) //       NORTH: Tile = 000017, Process = 000001, Comm = put
(PID.TID 0000.0001) //                bi = 000007, bj = 000002
(PID.TID 0000.0001) // Tile number: 000008 (process no. = 000001)
(PID.TID 0000.0001) //        WEST: Tile = 000007, Process = 000001, Comm = put
(PID.TID 0000.0001) //                bi = 000007, bj = 000001
(PID.TID 0000.0001) //        EAST: Tile = 000009, Process = 000001, Comm = put
(PID.TID 0000.0001) //                bi = 000009, bj = 000001
(PID.TID 0000.0001) //       SOUTH: Tile = 000028, Process = 000001, Comm = put
(PID.TID 0000.0001) //                bi = 000008, bj = 000003
(PID.TID 0000.0001) //       NORTH: Tile = 000018, Process = 000001, Comm = put
(PID.TID 0000.0001) //                bi = 000008, bj = 000002
(PID.TID 0000.0001) // Tile number: 000009 (process no. = 000001)
(PID.TID 0000.0001) //        WEST: Tile = 000008, Process = 000001, Comm = put
(PID.TID 0000.0001) //                bi = 000008, bj = 000001
(PID.TID 0000.0001) //        EAST: Tile = 000010, Process = 000001, Comm = put
(PID.TID 0000.0001) //                bi = 000010, bj = 000001
(PID.TID 0000.0001) //       SOUTH: Tile = 000029, Process = 000001, Comm = put
(PID.TID 0000.0001) //                bi = 000009, bj = 000003
(PID.TID 0000.0001) //       NORTH: Tile = 000019, Process = 000001, Comm = put
(PID.TID 0000.0001) //                bi = 000009, bj = 000002
(PID.TID 0000.0001) // Tile number: 000010 (process no. = 000001)
(PID.TID 0000.0001) //        WEST: Tile = 000009, Process = 000001, Comm = put
(PID.TID 0000.0001) //                bi = 000009, bj = 000001
(PID.TID 0000.0001) //        EAST: Tile = 000001, Process = 000001, Comm = put
(PID.TID 0000.0001) //                bi = 000001, bj = 000001
(PID.TID 0000.0001) //       SOUTH: Tile = 000030, Process = 000001, Comm = put
(PID.TID 0000.0001) //                bi = 000010, bj = 000003
(PID.TID 0000.0001) //       NORTH: Tile = 000020, Process = 000001, Comm = put
(PID.TID 0000.0001) //                bi = 000010, bj = 000002
(PID.TID 0000.0001) // Tile number: 000011 (process no. = 000001)
(PID.TID 0000.0001) //        WEST: Tile = 000020, Process = 000001, Comm = put
(PID.TID 0000.0001) //                bi = 000010, bj = 000002
(PID.TID 0000.0001) //        EAST: Tile = 000012, Process = 000001, Comm = put
(PID.TID 0000.0001) //                bi = 000002, bj = 000002
(PID.TID 0000.0001) //       SOUTH: Tile = 000001, Process = 000001, Comm = put
(PID.TID 0000.0001) //                bi = 000001, bj = 000001
(PID.TID 0000.0001) //       NORTH: Tile = 000021, Process = 000001, Comm = put
(PID.TID 0000.0001) //                bi = 000001, bj = 000003
(PID.TID 0000.0001) // Tile number: 000012 (process no. = 000001)
(PID.TID 0000.0001) //        WEST: Tile = 000011, Process = 000001, Comm = put
(PID.TID 0000.0001) //                bi = 000001, bj = 000002
(PID.TID 0000.0001) //        EAST: Tile = 000013, Process = 000001, Comm = put
(PID.TID 0000.0001) //                bi = 000003, bj = 000002
(PID.TID 0000.0001) //       SOUTH: Tile = 000002, Process = 000001, Comm = put
(PID.TID 0000.0001) //                bi = 000002, bj = 000001
(PID.TID 0000.0001) //       NORTH: Tile = 000022, Process = 000001, Comm = put
(PID.TID 0000.0001) //                bi = 000002, bj = 000003
(PID.TID 0000.0001) // Tile number: 000013 (process no. = 000001)
(PID.TID 0000.0001) //        WEST: Tile = 000012, Process = 000001, Comm = put
(PID.TID 0000.0001) //                bi = 000002, bj = 000002
(PID.TID 0000.0001) //        EAST: Tile = 000014, Process = 000001, Comm = put
(PID.TID 0000.0001) //                bi = 000004, bj = 000002
(PID.TID 0000.0001) //       SOUTH: Tile = 000003, Process = 000001, Comm = put
(PID.TID 0000.0001) //                bi = 000003, bj = 000001
(PID.TID 0000.0001) //       NORTH: Tile = 000023, Process = 000001, Comm = put
(PID.TID 0000.0001) //                bi = 000003, bj = 000003
(PID.TID 0000.0001) // Tile number: 000014 (process no. = 000001)
(PID.TID 0000.0001) //        WEST: Tile = 000013, Process = 000001, Comm = put
(PID.TID 0000.0001) //                bi = 000003, bj = 000002
(PID.TID 0000.0001) //        EAST: Tile = 000015, Process = 000001, Comm = put
(PID.TID 0000.0001) //                bi = 000005, bj = 000002
(PID.TID 0000.0001) //       SOUTH: Tile = 000004, Process = 000001, Comm = put
(PID.TID 0000.0001) //                bi = 000004, bj = 000001
(PID.TID 0000.0001) //       NORTH: Tile = 000024, Process = 000001, Comm = put
(PID.TID 0000.0001) //                bi = 000004, bj = 000003
(PID.TID 0000.0001) // Tile number: 000015 (process no. = 000001)
(PID.TID 0000.0001) //        WEST: Tile = 000014, Process = 000001, Comm = put
(PID.TID 0000.0001) //                bi = 000004, bj = 000002
(PID.TID 0000.0001) //        EAST: Tile = 000016, Process = 000001, Comm = put
(PID.TID 0000.0001) //                bi = 000006, bj = 000002
(PID.TID 0000.0001) //       SOUTH: Tile = 000005, Process = 000001, Comm = put
(PID.TID 0000.0001) //                bi = 000005, bj = 000001
(PID.TID 0000.0001) //       NORTH: Tile = 000025, Process = 000001, Comm = put
(PID.TID 0000.0001) //                bi = 000005, bj = 000003
(PID.TID 0000.0001) // Tile number: 000016 (process no. = 000001)
(PID.TID 0000.0001) //        WEST: Tile = 000015, Process = 000001, Comm = put
(PID.TID 0000.0001) //                bi = 000005, bj = 000002
(PID.TID 0000.0001) //        EAST: Tile = 000017, Process = 000001, Comm = put
(PID.TID 0000.0001) //                bi = 000007, bj = 000002
(PID.TID 0000.0001) //       SOUTH: Tile = 000006, Process = 000001, Comm = put
(PID.TID 0000.0001) //                bi = 000006, bj = 000001
(PID.TID 0000.0001) //       NORTH: Tile = 000026, Process = 000001, Comm = put
(PID.TID 0000.0001) //                bi = 000006, bj = 000003
(PID.TID 0000.0001) // Tile number: 000017 (process no. = 000001)
(PID.TID 0000.0001) //        WEST: Tile = 000016, Process = 000001, Comm = put
(PID.TID 0000.0001) //                bi = 000006, bj = 000002
(PID.TID 0000.0001) //        EAST: Tile = 000018, Process = 000001, Comm = put
(PID.TID 0000.0001) //                bi = 000008, bj = 000002
(PID.TID 0000.0001) //       SOUTH: Tile = 000007, Process = 000001, Comm = put
(PID.TID 0000.0001) //                bi = 000007, bj = 000001
(PID.TID 0000.0001) //       NORTH: Tile = 000027, Process = 000001, Comm = put
(PID.TID 0000.0001) //                bi = 000007, bj = 000003
(PID.TID 0000.0001) // Tile number: 000018 (process no. = 000001)
(PID.TID 0000.0001) //        WEST: Tile = 000017, Process = 000001, Comm = put
(PID.TID 0000.0001) //                bi = 000007, bj = 000002
(PID.TID 0000.0001) //        EAST: Tile = 000019, Process = 000001, Comm = put
(PID.TID 0000.0001) //                bi = 000009, bj = 000002
(PID.TID 0000.0001) //       SOUTH: Tile = 000008, Process = 000001, Comm = put
(PID.TID 0000.0001) //                bi = 000008, bj = 000001
(PID.TID 0000.0001) //       NORTH: Tile = 000028, Process = 000001, Comm = put
(PID.TID 0000.0001) //                bi = 000008, bj = 000003
(PID.TID 0000.0001) // Tile number: 000019 (process no. = 000001)
(PID.TID 0000.0001) //        WEST: Tile = 000018, Process = 000001, Comm = put
(PID.TID 0000.0001) //                bi = 000008, bj = 000002
(PID.TID 0000.0001) //        EAST: Tile = 000020, Process = 000001, Comm = put
(PID.TID 0000.0001) //                bi = 000010, bj = 000002
(PID.TID 0000.0001) //       SOUTH: Tile = 000009, Process = 000001, Comm = put
(PID.TID 0000.0001) //                bi = 000009, bj = 000001
(PID.TID 0000.0001) //       NORTH: Tile = 000029, Process = 000001, Comm = put
(PID.TID 0000.0001) //                bi = 000009, bj = 000003
(PID.TID 0000.0001) // Tile number: 000020 (process no. = 000001)
(PID.TID 0000.0001) //        WEST: Tile = 000019, Process = 000001, Comm = put
(PID.TID 0000.0001) //                bi = 000009, bj = 000002
(PID.TID 0000.0001) //        EAST: Tile = 000011, Process = 000001, Comm = put
(PID.TID 0000.0001) //                bi = 000001, bj = 000002
(PID.TID 0000.0001) //       SOUTH: Tile = 000010, Process = 000001, Comm = put
(PID.TID 0000.0001) //                bi = 000010, bj = 000001
(PID.TID 0000.0001) //       NORTH: Tile = 000030, Process = 000001, Comm = put
(PID.TID 0000.0001) //                bi = 000010, bj = 000003
(PID.TID 0000.0001) // Tile number: 000021 (process no. = 000001)
(PID.TID 0000.0001) //        WEST: Tile = 000030, Process = 000001, Comm = put
(PID.TID 0000.0001) //                bi = 000010, bj = 000003
(PID.TID 0000.0001) //        EAST: Tile = 000022, Process = 000001, Comm = put
(PID.TID 0000.0001) //                bi = 000002, bj = 000003
(PID.TID 0000.0001) //       SOUTH: Tile = 000011, Process = 000001, Comm = put
(PID.TID 0000.0001) //                bi = 000001, bj = 000002
(PID.TID 0000.0001) //       NORTH: Tile = 000001, Process = 000001, Comm = put
(PID.TID 0000.0001) //                bi = 000001, bj = 000001
(PID.TID 0000.0001) // Tile number: 000022 (process no. = 000001)
(PID.TID 0000.0001) //        WEST: Tile = 000021, Process = 000001, Comm = put
(PID.TID 0000.0001) //                bi = 000001, bj = 000003
(PID.TID 0000.0001) //        EAST: Tile = 000023, Process = 000001, Comm = put
(PID.TID 0000.0001) //                bi = 000003, bj = 000003
(PID.TID 0000.0001) //       SOUTH: Tile = 000012, Process = 000001, Comm = put
(PID.TID 0000.0001) //                bi = 000002, bj = 000002
(PID.TID 0000.0001) //       NORTH: Tile = 000002, Process = 000001, Comm = put
(PID.TID 0000.0001) //                bi = 000002, bj = 000001
(PID.TID 0000.0001) // Tile number: 000023 (process no. = 000001)
(PID.TID 0000.0001) //        WEST: Tile = 000022, Process = 000001, Comm = put
(PID.TID 0000.0001) //                bi = 000002, bj = 000003
(PID.TID 0000.0001) //        EAST: Tile = 000024, Process = 000001, Comm = put
(PID.TID 0000.0001) //                bi = 000004, bj = 000003
(PID.TID 0000.0001) //       SOUTH: Tile = 000013, Process = 000001, Comm = put
(PID.TID 0000.0001) //                bi = 000003, bj = 000002
(PID.TID 0000.0001) //       NORTH: Tile = 000003, Process = 000001, Comm = put
(PID.TID 0000.0001) //                bi = 000003, bj = 000001
(PID.TID 0000.0001) // Tile number: 000024 (process no. = 000001)
(PID.TID 0000.0001) //        WEST: Tile = 000023, Process = 000001, Comm = put
(PID.TID 0000.0001) //                bi = 000003, bj = 000003
(PID.TID 0000.0001) //        EAST: Tile = 000025, Process = 000001, Comm = put
(PID.TID 0000.0001) //                bi = 000005, bj = 000003
(PID.TID 0000.0001) //       SOUTH: Tile = 000014, Process = 000001, Comm = put
(PID.TID 0000.0001) //                bi = 000004, bj = 000002
(PID.TID 0000.0001) //       NORTH: Tile = 000004, Process = 000001, Comm = put
(PID.TID 0000.0001) //                bi = 000004, bj = 000001
(PID.TID 0000.0001) // Tile number: 000025 (process no. = 000001)
(PID.TID 0000.0001) //        WEST: Tile = 000024, Process = 000001, Comm = put
(PID.TID 0000.0001) //                bi = 000004, bj = 000003
(PID.TID 0000.0001) //        EAST: Tile = 000026, Process = 000001, Comm = put
(PID.TID 0000.0001) //                bi = 000006, bj = 000003
(PID.TID 0000.0001) //       SOUTH: Tile = 000015, Process = 000001, Comm = put
(PID.TID 0000.0001) //                bi = 000005, bj = 000002
(PID.TID 0000.0001) //       NORTH: Tile = 000005, Process = 000001, Comm = put
(PID.TID 0000.0001) //                bi = 000005, bj = 000001
(PID.TID 0000.0001) // Tile number: 000026 (process no. = 000001)
(PID.TID 0000.0001) //        WEST: Tile = 000025, Process = 000001, Comm = put
(PID.TID 0000.0001) //                bi = 000005, bj = 000003
(PID.TID 0000.0001) //        EAST: Tile = 000027, Process = 000001, Comm = put
(PID.TID 0000.0001) //                bi = 000007, bj = 000003
(PID.TID 0000.0001) //       SOUTH: Tile = 000016, Process = 000001, Comm = put
(PID.TID 0000.0001) //                bi = 000006, bj = 000002
(PID.TID 0000.0001) //       NORTH: Tile = 000006, Process = 000001, Comm = put
(PID.TID 0000.0001) //                bi = 000006, bj = 000001
(PID.TID 0000.0001) // Tile number: 000027 (process no. = 000001)
(PID.TID 0000.0001) //        WEST: Tile = 000026, Process = 000001, Comm = put
(PID.TID 0000.0001) //                bi = 000006, bj = 000003
(PID.TID 0000.0001) //        EAST: Tile = 000028, Process = 000001, Comm = put
(PID.TID 0000.0001) //                bi = 000008, bj = 000003
(PID.TID 0000.0001) //       SOUTH: Tile = 000017, Process = 000001, Comm = put
(PID.TID 0000.0001) //                bi = 000007, bj = 000002
(PID.TID 0000.0001) //       NORTH: Tile = 000007, Process = 000001, Comm = put
(PID.TID 0000.0001) //                bi = 000007, bj = 000001
(PID.TID 0000.0001) // Tile number: 000028 (process no. = 000001)
(PID.TID 0000.0001) //        WEST: Tile = 000027, Process = 000001, Comm = put
(PID.TID 0000.0001) //                bi = 000007, bj = 000003
(PID.TID 0000.0001) //        EAST: Tile = 000029, Process = 000001, Comm = put
(PID.TID 0000.0001) //                bi = 000009, bj = 000003
(PID.TID 0000.0001) //       SOUTH: Tile = 000018, Process = 000001, Comm = put
(PID.TID 0000.0001) //                bi = 000008, bj = 000002
(PID.TID 0000.0001) //       NORTH: Tile = 000008, Process = 000001, Comm = put
(PID.TID 0000.0001) //                bi = 000008, bj = 000001
(PID.TID 0000.0001) // Tile number: 000029 (process no. = 000001)
(PID.TID 0000.0001) //        WEST: Tile = 000028, Process = 000001, Comm = put
(PID.TID 0000.0001) //                bi = 000008, bj = 000003
(PID.TID 0000.0001) //        EAST: Tile = 000030, Process = 000001, Comm = put
(PID.TID 0000.0001) //                bi = 000010, bj = 000003
(PID.TID 0000.0001) //       SOUTH: Tile = 000019, Process = 000001, Comm = put
(PID.TID 0000.0001) //                bi = 000009, bj = 000002
(PID.TID 0000.0001) //       NORTH: Tile = 000009, Process = 000001, Comm = put
(PID.TID 0000.0001) //                bi = 000009, bj = 000001
(PID.TID 0000.0001) // Tile number: 000030 (process no. = 000001)
(PID.TID 0000.0001) //        WEST: Tile = 000029, Process = 000001, Comm = put
(PID.TID 0000.0001) //                bi = 000009, bj = 000003
(PID.TID 0000.0001) //        EAST: Tile = 000021, Process = 000001, Comm = put
(PID.TID 0000.0001) //                bi = 000001, bj = 000003
(PID.TID 0000.0001) //       SOUTH: Tile = 000020, Process = 000001, Comm = put
(PID.TID 0000.0001) //                bi = 000010, bj = 000002
(PID.TID 0000.0001) //       NORTH: Tile = 000010, Process = 000001, Comm = put
(PID.TID 0000.0001) //                bi = 000010, bj = 000001
(PID.TID 0000.0001) 
(PID.TID 0000.0001) // =======================================================
(PID.TID 0000.0001) // Model parameter file "data"
(PID.TID 0000.0001) // =======================================================
(PID.TID 0000.0001) ># ====================
(PID.TID 0000.0001) ># | Model parameters |
(PID.TID 0000.0001) ># ====================
(PID.TID 0000.0001) >#
(PID.TID 0000.0001) ># Continuous equation parameters
(PID.TID 0000.0001) > &PARM01
(PID.TID 0000.0001) > Tref = -0.194175, -0.582524, -0.970874, -1.35922, -1.74757,
(PID.TID 0000.0001) >        -2.13592, -2.52427, -2.91262, -3.30097, -3.68932,
(PID.TID 0000.0001) >	-4.07767, -4.46602, -4.85437, -5.24272, -5.63107,
(PID.TID 0000.0001) >	-6.01942, -6.40777, -6.79612, -7.18447, -7.57282,
(PID.TID 0000.0001) >	-7.96117, -8.34951, -8.73786, -9.12621, -9.51456,
(PID.TID 0000.0001) > sRef= 25*1.,
(PID.TID 0000.0001) > viscAz=5.E-1,
(PID.TID 0000.0001) > viscAh=0.0E0,
(PID.TID 0000.0001) > no_slip_sides=.TRUE.,
(PID.TID 0000.0001) > no_slip_bottom=.TRUE.,
(PID.TID 0000.0001) > bottomDragQuadratic=2.E-3,
(PID.TID 0000.0001) > viscA4=0.E12,
(PID.TID 0000.0001) > viscC4Leith=1.458198138065,
(PID.TID 0000.0001) > useAreaViscLength=.TRUE.,
(PID.TID 0000.0001) > diffKhT=0.0E0
(PID.TID 0000.0001) > diffKzT=0.E-2,
(PID.TID 0000.0001) > diffKhS=0.E0,
(PID.TID 0000.0001) > diffKzS=0.E-2,
(PID.TID 0000.0001) > f0=1.0e-4,
(PID.TID 0000.0001) > beta=0.E-11,
(PID.TID 0000.0001) > tAlpha=2.E-4,
(PID.TID 0000.0001) > sBeta =0.E-4,
(PID.TID 0000.0001) > gravity=9.81,
(PID.TID 0000.0001) > rhonil=1030.0,
(PID.TID 0000.0001) > rigidLid=.FALSE.,
(PID.TID 0000.0001) > implicitFreeSurface=.TRUE.,
(PID.TID 0000.0001) > eosType='LINEAR',
(PID.TID 0000.0001) > hFacMin=0.2,
(PID.TID 0000.0001) > nonHydrostatic=.FALSE.,
(PID.TID 0000.0001) > multiDimAdvection=.TRUE.,
(PID.TID 0000.0001) > tempAdvScheme=77,
(PID.TID 0000.0001) > saltAdvScheme=77,
(PID.TID 0000.0001) > readBinaryPrec=64,
(PID.TID 0000.0001) > writeBinaryPrec=64,
(PID.TID 0000.0001) > writeStatePrec=64,
(PID.TID 0000.0001) > globalFiles=.TRUE.,
(PID.TID 0000.0001) > staggerTimeStep=.TRUE.,
(PID.TID 0000.0001) > vectorInvariantMomentum=.TRUE.,
(PID.TID 0000.0001) > &
(PID.TID 0000.0001) >
(PID.TID 0000.0001) ># Elliptic solver parameters
(PID.TID 0000.0001) > &PARM02
(PID.TID 0000.0001) > cg2dMaxIters=1000,
(PID.TID 0000.0001) > cg2dTargetResidual=1.E-11,
(PID.TID 0000.0001) > cg3dMaxIters=10,
(PID.TID 0000.0001) > cg3dTargetResidual=1.E-13,
(PID.TID 0000.0001) > &
(PID.TID 0000.0001) >
(PID.TID 0000.0001) ># Time stepping parameters
(PID.TID 0000.0001) > &PARM03
(PID.TID 0000.0001) > niter0=0,
(PID.TID 0000.0001) >#nTimeSteps=12000,
(PID.TID 0000.0001) > nTimeSteps=20,
(PID.TID 0000.0001) > deltaT=300.,
(PID.TID 0000.0001) > abEps=0.1,
(PID.TID 0000.0001) > pChkptFreq=0.0,
(PID.TID 0000.0001) > chkptFreq=100000.0,
(PID.TID 0000.0001) > dumpFreq=30000.,
(PID.TID 0000.0001) >#cAdjFreq=30.,
(PID.TID 0000.0001) >#monitorFreq=6000.,
(PID.TID 0000.0001) > monitorFreq=300.,
(PID.TID 0000.0001) > &
(PID.TID 0000.0001) >
(PID.TID 0000.0001) ># Gridding parameters
(PID.TID 0000.0001) > &PARM04
(PID.TID 0000.0001) > usingCartesianGrid=.TRUE.,
(PID.TID 0000.0001) > usingSphericalPolarGrid=.FALSE.,
(PID.TID 0000.0001) ># delXfile='delXvar'
(PID.TID 0000.0001) > delX=200*10000.0,
(PID.TID 0000.0001) > delYfile='delYvar',
(PID.TID 0000.0001) > delZ = 25*144.0,
(PID.TID 0000.0001) > &
(PID.TID 0000.0001) >
(PID.TID 0000.0001) ># Input datasets
(PID.TID 0000.0001) > &PARM05
(PID.TID 0000.0001) > hydrogThetaFile='T.init',
(PID.TID 0000.0001) > bathyFile='topog.slope',
(PID.TID 0000.0001) > &
(PID.TID 0000.0001) 
(PID.TID 0000.0001) S/R INI_PARMS ; starts to read PARM01
(PID.TID 0000.0001) S/R INI_PARMS ; read PARM01 : OK
(PID.TID 0000.0001) S/R INI_PARMS ; starts to read PARM02
(PID.TID 0000.0001) S/R INI_PARMS ; read PARM02 : OK
(PID.TID 0000.0001) S/R INI_PARMS ; starts to read PARM03
(PID.TID 0000.0001) S/R INI_PARMS ; read PARM03 : OK
(PID.TID 0000.0001) S/R INI_PARMS ; starts to read PARM04
(PID.TID 0000.0001) S/R INI_PARMS ; read PARM04 : OK
(PID.TID 0000.0001) S/R INI_PARMS ; starts to read PARM05
(PID.TID 0000.0001) S/R INI_PARMS ; read PARM05 : OK
(PID.TID 0000.0001)  PACKAGES_BOOT: opening data.pkg
(PID.TID 0000.0001)  OPEN_COPY_DATA_FILE: opening file data.pkg
(PID.TID 0000.0001) // =======================================================
(PID.TID 0000.0001) // Parameter file "data.pkg"
(PID.TID 0000.0001) // =======================================================
(PID.TID 0000.0001) ># Packages
(PID.TID 0000.0001) > &PACKAGES
(PID.TID 0000.0001) > useOBCS=.TRUE.,
(PID.TID 0000.0001) > useDiagnostics=.TRUE.,
(PID.TID 0000.0001) > &
(PID.TID 0000.0001) 
(PID.TID 0000.0001)  PACKAGES_BOOT: finished reading data.pkg
(PID.TID 0000.0001)  OBCS_READPARMS: opening data.obcs
(PID.TID 0000.0001)  OPEN_COPY_DATA_FILE: opening file data.obcs
(PID.TID 0000.0001) // =======================================================
(PID.TID 0000.0001) // Parameter file "data.obcs"
(PID.TID 0000.0001) // =======================================================
(PID.TID 0000.0001) ># Open-boundaries
(PID.TID 0000.0001) > &OBCS_PARM01
(PID.TID 0000.0001) ># OB_Ieast=30*-1,
(PID.TID 0000.0001) > OB_Iwest=45*1,
(PID.TID 0000.0001) > OB_Jnorth=200*-1,
(PID.TID 0000.0001) ># OB_Jsouth=100*1
(PID.TID 0000.0001) ># useOrlanskiEast=.TRUE.,
(PID.TID 0000.0001) > useOrlanskiWest=.TRUE.,
(PID.TID 0000.0001) > useOrlanskiNorth=.FALSE.,
(PID.TID 0000.0001) ># useOrlanskiSouth=.TRUE.,
(PID.TID 0000.0001) > &
(PID.TID 0000.0001) >
(PID.TID 0000.0001) > &OBCS_PARM02
(PID.TID 0000.0001) > CMAX=0.5,
(PID.TID 0000.0001) ># CMAX=2.0,
(PID.TID 0000.0001) > cvelTimeScale=10000.,
(PID.TID 0000.0001) ># CFIX=0.2,
(PID.TID 0000.0001) > useFixedCEast=.FALSE.,
(PID.TID 0000.0001) > useFixedCWest=.FALSE.,
(PID.TID 0000.0001) > &
(PID.TID 0000.0001) 
 OB Jn = 45 45 45 45 45 45 45 45 45 45 45 45 45 45 45 45 45 45 45 45 45 45 45 45
 45 45 45 45 45 45 45 45 45 45 45 45 45 45 45 45 45 45 45 45 45 45 45 45 45 45
 45 45 45 45 45 45 45 45 45 45 45 45 45 45 45 45 45 45 45 45 45 45 45 45 45 45
 45 45 45 45 45 45 45 45 45 45 45 45 45 45 45 45 45 45 45 45 45 45 45 45 45 45
 45 45 45 45 45 45 45 45 45 45 45 45 45 45 45 45 45 45 45 45 45 45 45 45 45 45
 45 45 45 45 45 45 45 45 45 45 45 45 45 45 45 45 45 45 45 45 45 45 45 45 45 45
 45 45 45 45 45 45 45 45 45 45 45 45 45 45 45 45 45 45 45 45 45 45 45 45 45 45
 45 45 45 45 45 45 45 45 45 45 45 45 45 45 45 45 45 45 45 45
 OB Js = 0 0 0 0 0 0 0 0 0 0 0 0 0 0 0 0 0 0 0 0 0 0 0 0 0 0 0 0 0 0 0 0 0 0 0 0
 0 0 0 0 0 0 0 0 0 0 0 0 0 0 0 0 0 0 0 0 0 0 0 0 0 0 0 0 0 0 0 0 0 0 0 0 0 0 0 0
 0 0 0 0 0 0 0 0 0 0 0 0 0 0 0 0 0 0 0 0 0 0 0 0 0 0 0 0 0 0 0 0 0 0 0 0 0 0 0 0
 0 0 0 0 0 0 0 0 0 0 0 0 0 0 0 0 0 0 0 0 0 0 0 0 0 0 0 0 0 0 0 0 0 0 0 0 0 0 0 0
 0 0 0 0 0 0 0 0 0 0 0 0 0 0 0 0 0 0 0 0 0 0 0 0 0 0 0 0 0 0 0 0 0 0 0 0 0 0 0 0
 0 0 0 0
 OB Ie = 0 0 0 0 0 0 0 0 0 0 0 0 0 0 0 0 0 0 0 0 0 0 0 0 0 0 0 0 0 0 0 0 0 0 0 0
 0 0 0 0 0 0 0 0 0
 OB Iw = 1 1 1 1 1 1 1 1 1 1 1 1 1 1 1 1 1 1 1 1 1 1 1 1 1 1 1 1 1 1 1 1 1 1 1 1
 1 1 1 1 1 1 1 1 1
(PID.TID 0000.0001)  OBCS_READPARMS: finished reading data.obcs
(PID.TID 0000.0001)  DIAGNOSTICS_READPARMS: opening data.diagnostics
(PID.TID 0000.0001)  OPEN_COPY_DATA_FILE: opening file data.diagnostics
(PID.TID 0000.0001) // =======================================================
(PID.TID 0000.0001) // Parameter file "data.diagnostics"
(PID.TID 0000.0001) // =======================================================
(PID.TID 0000.0001) ># Diagnostic Package Choices
(PID.TID 0000.0001) >#-----------------
(PID.TID 0000.0001) ># for each output-stream:
(PID.TID 0000.0001) >#  filename(n) : prefix of the output file name (only 8.c long) for outp.stream n
(PID.TID 0000.0001) >#  frequency(n):< 0 : write snap-shot output every |frequency| seconds
(PID.TID 0000.0001) >#               > 0 : write time-average output every frequency seconds
(PID.TID 0000.0001) >#  timePhase(n)     : write at time = timePhase + multiple of |frequency|
(PID.TID 0000.0001) >#  levels(:,n) : list of levels to write to file (Notes: declared as REAL)
(PID.TID 0000.0001) >#                 when this entry is missing, select all common levels of this list
(PID.TID 0000.0001) >#  fields(:,n) : list of diagnostics fields (8.c) (see "available_diagnostics" file
(PID.TID 0000.0001) >#                 for the list of all available diag. in this particular config)
(PID.TID 0000.0001) >#-----------------
(PID.TID 0000.0001) > &diagnostics_list
(PID.TID 0000.0001) >  frequency(1) = 3000.,
(PID.TID 0000.0001) ># Omit level(1,1) to diagnose ALL levels otherwise list individual levels here
(PID.TID 0000.0001) >#  levels(1,1) = 1.,3.,5.,
(PID.TID 0000.0001) >   fields(1,1) = 'VISCA4D ',
(PID.TID 0000.0001) >   filename(1) = 'visc',
(PID.TID 0000.0001) > &end
(PID.TID 0000.0001) >
(PID.TID 0000.0001) ># Parameter for Diagnostics of per level statistics:
(PID.TID 0000.0001) >#-----------------
(PID.TID 0000.0001) ># for each output-stream:
(PID.TID 0000.0001) >#  stat_fname(n) : prefix of the output file name (only 8.c long) for outp.stream n
(PID.TID 0000.0001) >#  stat_freq(n):< 0 : write snap-shot output every |stat_freq| seconds
(PID.TID 0000.0001) >#               > 0 : write time-average output every stat_freq seconds
(PID.TID 0000.0001) >#  stat_phase(n)    : write at time = stat_phase + multiple of |stat_freq|
(PID.TID 0000.0001) >#  stat_region(:,n) : list of "regions" (default: 1 region only=global)
(PID.TID 0000.0001) >#  stat_fields(:,n) : list of diagnostics fields (8.c) (see "available_diagnostics.log"
(PID.TID 0000.0001) >#                 file for the list of all available diag. in this particular config)
(PID.TID 0000.0001) >#-----------------
(PID.TID 0000.0001) > &DIAG_STATIS_PARMS
(PID.TID 0000.0001) >#- an example just to check the agreement with MONITOR output:
(PID.TID 0000.0001) >#stat_fields(1,1)= 'ETAN    ','UVEL    ','VVEL    ','WVEL    ', 'THETA   ',
(PID.TID 0000.0001) >#   stat_fname(1)= 'dynStDiag',
(PID.TID 0000.0001) >#    stat_freq(1)= -864000.,
(PID.TID 0000.0001) >#   stat_phase(1)= 0.,
(PID.TID 0000.0001) > &
(PID.TID 0000.0001) >
(PID.TID 0000.0001) 
(PID.TID 0000.0001) S/R DIAGNOSTICS_READPARMS, read namelist "diagnostics_list": start
(PID.TID 0000.0001) S/R DIAGNOSTICS_READPARMS, read namelist "diagnostics_list": OK
(PID.TID 0000.0001) S/R DIAGNOSTICS_READPARMS, read namelist "DIAG_STATIS_PARMS": start
(PID.TID 0000.0001) S/R DIAGNOSTICS_READPARMS, read namelist "DIAG_STATIS_PARMS": OK
(PID.TID 0000.0001) -----------------------------------------------------
(PID.TID 0000.0001)  DIAGNOSTICS_READPARMS: active diagnostics summary:
(PID.TID 0000.0001) -----------------------------------------------------
(PID.TID 0000.0001) Creating Output Stream: visc
(PID.TID 0000.0001) Frequency :       3000.000000 ; Phase:          0.000000
(PID.TID 0000.0001)  Levels:    will be set later
(PID.TID 0000.0001)  Fields:    VISCA4D
(PID.TID 0000.0001) -----------------------------------------------------
(PID.TID 0000.0001)  DIAGNOSTICS_READPARMS: statistics diags. summary:
(PID.TID 0000.0001) -----------------------------------------------------
(PID.TID 0000.0001) 
(PID.TID 0000.0001) S/R LOAD_GRID_SPACING: delY loaded from file: delYvar
(PID.TID 0000.0001) %MON XC_max                       =   1.9950000000000E+06
(PID.TID 0000.0001) %MON XC_min                       =   5.0000000000000E+03
(PID.TID 0000.0001) %MON XC_mean                      =   1.0000000000000E+06
(PID.TID 0000.0001) %MON XC_sd                        =   5.7734305226615E+05
(PID.TID 0000.0001) %MON XG_max                       =   1.9900000000000E+06
(PID.TID 0000.0001) %MON XG_min                       =   1.0000000000000E+04
(PID.TID 0000.0001) %MON XG_mean                      =   1.0000000000000E+06
(PID.TID 0000.0001) %MON XG_sd                        =   5.7445626465380E+05
(PID.TID 0000.0001) %MON DXC_max                      =   1.0000000000000E+04
(PID.TID 0000.0001) %MON DXC_min                      =   1.0000000000000E+04
(PID.TID 0000.0001) %MON DXC_mean                     =   1.0000000000000E+04
(PID.TID 0000.0001) %MON DXC_sd                       =   0.0000000000000E+00
(PID.TID 0000.0001) %MON DXF_max                      =   1.0000000000000E+04
(PID.TID 0000.0001) %MON DXF_min                      =   1.0000000000000E+04
(PID.TID 0000.0001) %MON DXF_mean                     =   1.0000000000000E+04
(PID.TID 0000.0001) %MON DXF_sd                       =   0.0000000000000E+00
(PID.TID 0000.0001) %MON DXG_max                      =   1.0000000000000E+04
(PID.TID 0000.0001) %MON DXG_min                      =   1.0000000000000E+04
(PID.TID 0000.0001) %MON DXG_mean                     =   1.0000000000000E+04
(PID.TID 0000.0001) %MON DXG_sd                       =   0.0000000000000E+00
(PID.TID 0000.0001) %MON DXV_max                      =   1.0000000000000E+04
(PID.TID 0000.0001) %MON DXV_min                      =   1.0000000000000E+04
(PID.TID 0000.0001) %MON DXV_mean                     =   1.0000000000000E+04
(PID.TID 0000.0001) %MON DXV_sd                       =   0.0000000000000E+00
(PID.TID 0000.0001) %MON YC_max                       =   5.9499999998863E+05
(PID.TID 0000.0001) %MON YC_min                       =   2.1773852061364E+04
(PID.TID 0000.0001) %MON YC_mean                      =   3.6568248764828E+05
(PID.TID 0000.0001) %MON YC_sd                        =   1.4616293187418E+05
(PID.TID 0000.0001) %MON YG_max                       =   5.8999999997725E+05
(PID.TID 0000.0001) %MON YG_min                       =  -1.8189894035459E-12
(PID.TID 0000.0001) %MON YG_mean                      =   3.5901582098162E+05
(PID.TID 0000.0001) %MON YG_sd                        =   1.4918819495542E+05
(PID.TID 0000.0001) %MON DYC_max                      =   4.1655495879012E+04
(PID.TID 0000.0001) %MON DYC_min                      =   1.0000000030126E+04
(PID.TID 0000.0001) %MON DYC_mean                     =   1.3333333333333E+04
(PID.TID 0000.0001) %MON DYC_sd                       =   7.9859471312509E+03
(PID.TID 0000.0001) %MON DYF_max                      =   4.3547704122728E+04
(PID.TID 0000.0001) %MON DYF_min                      =   1.0000000022748E+04
(PID.TID 0000.0001) %MON DYF_mean                     =   1.3333333333333E+04
(PID.TID 0000.0001) %MON DYF_sd                       =   8.4257600310479E+03
(PID.TID 0000.0001) %MON DYG_max                      =   4.3547704122728E+04
(PID.TID 0000.0001) %MON DYG_min                      =   1.0000000022748E+04
(PID.TID 0000.0001) %MON DYG_mean                     =   1.3333333333333E+04
(PID.TID 0000.0001) %MON DYG_sd                       =   8.4257600310479E+03
(PID.TID 0000.0001) %MON DYU_max                      =   4.1655495879012E+04
(PID.TID 0000.0001) %MON DYU_min                      =   1.0000000030126E+04
(PID.TID 0000.0001) %MON DYU_mean                     =   1.3333333333333E+04
(PID.TID 0000.0001) %MON DYU_sd                       =   7.9859471312509E+03
(PID.TID 0000.0001) %MON RA_max                       =   4.3547704122728E+08
(PID.TID 0000.0001) %MON RA_min                       =   1.0000000022748E+08
(PID.TID 0000.0001) %MON RA_mean                      =   1.3333333333333E+08
(PID.TID 0000.0001) %MON RA_sd                        =   8.4257600310479E+07
(PID.TID 0000.0001) %MON RAW_max                      =   4.3547704122728E+08
(PID.TID 0000.0001) %MON RAW_min                      =   1.0000000022748E+08
(PID.TID 0000.0001) %MON RAW_mean                     =   1.3333333333333E+08
(PID.TID 0000.0001) %MON RAW_sd                       =   8.4257600310479E+07
(PID.TID 0000.0001) %MON RAS_max                      =   4.1655495879012E+08
(PID.TID 0000.0001) %MON RAS_min                      =   1.0000000030126E+08
(PID.TID 0000.0001) %MON RAS_mean                     =   1.3333333333333E+08
(PID.TID 0000.0001) %MON RAS_sd                       =   7.9859471312509E+07
(PID.TID 0000.0001) %MON RAZ_max                      =   4.1655495879012E+08
(PID.TID 0000.0001) %MON RAZ_min                      =   1.0000000030126E+08
(PID.TID 0000.0001) %MON RAZ_mean                     =   1.3333333333333E+08
(PID.TID 0000.0001) %MON RAZ_sd                       =   7.9859471312509E+07
(PID.TID 0000.0001) %MON AngleCS_max                  =   1.0000000000000E+00
(PID.TID 0000.0001) %MON AngleCS_min                  =   1.0000000000000E+00
(PID.TID 0000.0001) %MON AngleCS_mean                 =   1.0000000000000E+00
(PID.TID 0000.0001) %MON AngleCS_sd                   =   0.0000000000000E+00
(PID.TID 0000.0001) %MON AngleSN_max                  =   0.0000000000000E+00
(PID.TID 0000.0001) %MON AngleSN_min                  =   0.0000000000000E+00
(PID.TID 0000.0001) %MON AngleSN_mean                 =   0.0000000000000E+00
(PID.TID 0000.0001) %MON AngleSN_sd                   =   0.0000000000000E+00
(PID.TID 0000.0001)  MDSREADFIELD: opening global file: topog.slope
(PID.TID 0000.0001) // =======================================================
(PID.TID 0000.0001) // Field Model R_low (ini_masks_etc) at iteration          1
(PID.TID 0000.0001) // CMIN =         -3.600000000000000E+03
(PID.TID 0000.0001) // CMAX =         -6.048000000000000E+02
(PID.TID 0000.0001) // CINT =          1.109333333333333E+02
(PID.TID 0000.0001) // SYMBOLS (CMIN->CMAX): -abcdefghijklmnopqrstuvwxyz+
(PID.TID 0000.0001) //                  0.0: .
(PID.TID 0000.0001) // RANGE I (Lo:Hi:Step):(  -2: 203:   1)
(PID.TID 0000.0001) // RANGE J (Lo:Hi:Step):(  48:  -2:  -1)
(PID.TID 0000.0001) // RANGE K (Lo:Hi:Step):(   1:   1:   1)
(PID.TID 0000.0001) // =======================================================
(PID.TID 0000.0001) K =   1
(PID.TID 0000.0001) //                I=7       I=17      I=21      I=31      I=41      I=45      I=55      I=59      I=69      I=79      I=83      I=93      I=103     I=107     I=117     I=121     I=131     I=141     I=145     I=155     I=159     I=169     I=179     I=183     I=193     I=203
(PID.TID 0000.0001) // |--J--|**0123456|890123456|890123890|234567890|234567890|238901234|678901234|678901238|012345678|012345678|012389012|456789012|456789012|890123456|890123456|890123890|234567890|234567890|238901234|678901234|678901238|012345678|012345678|012389012|456789012|456789012|
(PID.TID 0000.0001) //     48 --.-------------------------------------------------------------------------------------------------------------------------------------------------------------------------------------------------------------------------------------------------------------.---
(PID.TID 0000.0001) //     47 --.-------------------------------------------------------------------------------------------------------------------------------------------------------------------------------------------------------------------------------------------------------------.---
(PID.TID 0000.0001) //     46 ....................................................................................................................................................................................................................................................................
(PID.TID 0000.0001) //     45 ........................................................................................................................................................................................................................++++++++++..................................
(PID.TID 0000.0001) //     44 ........................................................................................................................................................................................................................++++++++++..................................
(PID.TID 0000.0001) //     43 ........................................................................................................................................................................................................................++++++++++..................................
(PID.TID 0000.0001) //     42 ........................................................................................................................................................................................................................++++++++++..................................
(PID.TID 0000.0001) //     41 ........................................................................................................................................................................................................................++++++++++..................................
(PID.TID 0000.0001) //     40 ++.+++++++++++++++++++++++++++++++++++++++++++++++++++++++++++++++++++++++++++++++++++++++++++++++++++++++++++++++++++++++++++++++++++++++++++++++++++++++++++++++++++++++++++++++++++++++++++++++++++++++++++++++++++++++++++++++++++++++++++++++++++++++++++++.+++
(PID.TID 0000.0001) //     39 zz.zzzzzzzzzzzzzzzzzzzzzzzzzzzzzzzzzzzzzzzzzzzzzzzzzzzzzzzzzzzzzzzzzzzzzzzzzzzzzzzzzzzzzzzzzzzzzzzzzzzzzzzzzzzzzzzzzzzzzzzzzzzzzzzzzzzzzzzzzzzzzzzzzzzzzzzzzzzzzzzzzzzzzzzzzzzzzzzzzzzzzzzzzzzzzzzzzzzzzzzzzzzzzzzzzzzzzzzzzzzzzzzzzzzzzzzzzzzzzzzzzzzzzzzzzzzzz.zzz
(PID.TID 0000.0001) //     38 yy.yyyyyyyyyyyyyyyyyyyyyyyyyyyyyyyyyyyyyyyyyyyyyyyyyyyyyyyyyyyyyyyyyyyyyyyyyyyyyyyyyyyyyyyyyyyyyyyyyyyyyyyyyyyyyyyyyyyyyyyyyyyyyyyyyyyyyyyyyyyyyyyyyyyyyyyyyyyyyyyyyyyyyyyyyyyyyyyyyyyyyyyyyyyyyyyyyyyyyyyyyyyyyyyyyyyyyyyyyyyyyyyyyyyyyyyyyyyyyyyyyyyyyyyyyyyyy.yyy
(PID.TID 0000.0001) //     37 xx.xxxxxxxxxxxxxxxxxxxxxxxxxxxxxxxxxxxxxxxxxxxxxxxxxxxxxxxxxxxxxxxxxxxxxxxxxxxxxxxxxxxxxxxxxxxxxxxxxxxxxxxxxxxxxxxxxxxxxxxxxxxxxxxxxxxxxxxxxxxxxxxxxxxxxxxxxxxxxxxxxxxxxxxxxxxxxxxxxxxxxxxxxxxxxxxxxxxxxxxxxxxxxxxxxxxxxxxxxxxxxxxxxxxxxxxxxxxxxxxxxxxxxxxxxxxxx.xxx
(PID.TID 0000.0001) //     36 ww.wwwwwwwwwwwwwwwwwwwwwwwwwwwwwwwwwwwwwwwwwwwwwwwwwwwwwwwwwwwwwwwwwwwwwwwwwwwwwwwwwwwwwwwwwwwwwwwwwwwwwwwwwwwwwwwwwwwwwwwwwwwwwwwwwwwwwwwwwwwwwwwwwwwwwwwwwwwwwwwwwwwwwwwwwwwwwwwwwwwwwwwwwwwwwwwwwwwwwwwwwwwwwwwwwwwwwwwwwwwwwwwwwwwwwwwwwwwwwwwwwwwwwwwwwwwww.www
(PID.TID 0000.0001) //     35 ww.wwwwwwwwwwwwwwwwwwwwwwwwwwwwwwwwwwwwwwwwwwwwwwwwwwwwwwwwwwwwwwwwwwwwwwwwwwwwwwwwwwwwwwwwwwwwwwwwwwwwwwwwwwwwwwwwwwwwwwwwwwwwwwwwwwwwwwwwwwwwwwwwwwwwwwwwwwwwwwwwwwwwwwwwwwwwwwwwwwwwwwwwwwwwwwwwwwwwwwwwwwwwwwwwwwwwwwwwwwwwwwwwwwwwwwwwwwwwwwwwwwwwwwwwwwwww.www
(PID.TID 0000.0001) //     34 vv.vvvvvvvvvvvvvvvvvvvvvvvvvvvvvvvvvvvvvvvvvvvvvvvvvvvvvvvvvvvvvvvvvvvvvvvvvvvvvvvvvvvvvvvvvvvvvvvvvvvvvvvvvvvvvvvvvvvvvvvvvvvvvvvvvvvvvvvvvvvvvvvvvvvvvvvvvvvvvvvvvvvvvvvvvvvvvvvvvvvvvvvvvvvvvvvvvvvvvvvvvvvvvvvvvvvvvvvvvvvvvvvvvvvvvvvvvvvvvvvvvvvvvvvvvvvvv.vvv
(PID.TID 0000.0001) //     33 uu.uuuuuuuuuuuuuuuuuuuuuuuuuuuuuuuuuuuuuuuuuuuuuuuuuuuuuuuuuuuuuuuuuuuuuuuuuuuuuuuuuuuuuuuuuuuuuuuuuuuuuuuuuuuuuuuuuuuuuuuuuuuuuuuuuuuuuuuuuuuuuuuuuuuuuuuuuuuuuuuuuuuuuuuuuuuuuuuuuuuuuuuuuuuuuuuuuuuuuuuuuuuuuuuuuuuuuuuuuuuuuuuuuuuuuuuuuuuuuuuuuuuuuuuuuuuuu.uuu
(PID.TID 0000.0001) //     32 tt.ttttttttttttttttttttttttttttttttttttttttttttttttttttttttttttttttttttttttttttttttttttttttttttttttttttttttttttttttttttttttttttttttttttttttttttttttttttttttttttttttttttttttttttttttttttttttttttttttttttttttttttttttttttttttttttttttttttttttttttttttttttttttttttt.ttt
(PID.TID 0000.0001) //     31 ss.sssssssssssssssssssssssssssssssssssssssssssssssssssssssssssssssssssssssssssssssssssssssssssssssssssssssssssssssssssssssssssssssssssssssssssssssssssssssssssssssssssssssssssssssssssssssssssssssssssssssssssssssssssssssssssssssssssssssssssssssssssssssssssss.sss
(PID.TID 0000.0001) //     30 rr.rrrrrrrrrrrrrrrrrrrrrrrrrrrrrrrrrrrrrrrrrrrrrrrrrrrrrrrrrrrrrrrrrrrrrrrrrrrrrrrrrrrrrrrrrrrrrrrrrrrrrrrrrrrrrrrrrrrrrrrrrrrrrrrrrrrrrrrrrrrrrrrrrrrrrrrrrrrrrrrrrrrrrrrrrrrrrrrrrrrrrrrrrrrrrrrrrrrrrrrrrrrrrrrrrrrrrrrrrrrrrrrrrrrrrrrrrrrrrrrrrrrrrrrrrrrrr.rrr
(PID.TID 0000.0001) //     29 qq.qqqqqqqqqqqqqqqqqqqqqqqqqqqqqqqqqqqqqqqqqqqqqqqqqqqqqqqqqqqqqqqqqqqqqqqqqqqqqqqqqqqqqqqqqqqqqqqqqqqqqqqqqqqqqqqqqqqqqqqqqqqqqqqqqqqqqqqqqqqqqqqqqqqqqqqqqqqqqqqqqqqqqqqqqqqqqqqqqqqqqqqqqqqqqqqqqqqqqqqqqqqqqqqqqqqqqqqqqqqqqqqqqqqqqqqqqqqqqqqqqqqqqqqqqqqqq.qqq
(PID.TID 0000.0001) //     28 pp.ppppppppppppppppppppppppppppppppppppppppppppppppppppppppppppppppppppppppppppppppppppppppppppppppppppppppppppppppppppppppppppppppppppppppppppppppppppppppppppppppppppppppppppppppppppppppppppppppppppppppppppppppppppppppppppppppppppppppppppppppppppppppppppp.ppp
(PID.TID 0000.0001) //     33 uu.uuuuuuuuuuuuuuuuuuuuuuuuuuuuuuuuuuuuuuuuuuuuuuuuuuuuuuuuuuuuuuuuuuuuuuuuuuuuuuuuuuuuuuuuuuuuuuuuuuuuuuuuuuuuuuuuuuuuuuuuuuuuuuuuuuuuuuuuuuuuuuuuuuuuuuuuuuuuuuuuuuuuuuuuuuuuuuuuuuuuuuuuuuuuuuuuuuuuuuuuuuuuuuuuuuuuuuuuuuuuuuuuuuuuuuuuuuuuuuuuuuuuuuuuuuuuu.uuu
(PID.TID 0000.0001) //     32 tt.ttttttttttttttttttttttttttttttttttttttttttttttttttttttttttttttttttttttttttttttttttttttttttttttttttttttttttttttttttttttttttttttttttttttttttttttttttttttttttttttttttttttttttttttttttttttttttttttttttttttttttttttttttttttttttttttttttttttttttttttttttttttttttttt.ttt
(PID.TID 0000.0001) //     31 ss.sssssssssssssssssssssssssssssssssssssssssssssssssssssssssssssssssssssssssssssssssssssssssssssssssssssssssssssssssssssssssssssssssssssssssssssssssssssssssssssssssssssssssssssssssssssssssssssssssssssssssssssssssssssssssssssssssssssssssssssssssssssssssssss.sss
(PID.TID 0000.0001) //     30 rr.rrrrrrrrrrrrrrrrrrrrrrrrrrrrrrrrrrrrrrrrrrrrrrrrrrrrrrrrrrrrrrrrrrrrrrrrrrrrrrrrrrrrrrrrrrrrrrrrrrrrrrrrrrrrrrrrrrrrrrrrrrrrrrrrrrrrrrrrrrrrrrrrrrrrrrrrrrrrrrrrrrrrrrrrrrrrrrrrrrrrrrrrrrrrrrrrrrrrrrrrrrrrrrrrrrrrrrrrrrrrrrrrrrrrrrrrrrrrrrrrrrrrrrrrrrrrr.rrr
(PID.TID 0000.0001) //     29 qq.qqqqqqqqqqqqqqqqqqqqqqqqqqqqqqqqqqqqqqqqqqqqqqqqqqqqqqqqqqqqqqqqqqqqqqqqqqqqqqqqqqqqqqqqqqqqqqqqqqqqqqqqqqqqqqqqqqqqqqqqqqqqqqqqqqqqqqqqqqqqqqqqqqqqqqqqqqqqqqqqqqqqqqqqqqqqqqqqqqqqqqqqqqqqqqqqqqqqqqqqqqqqqqqqqqqqqqqqqqqqqqqqqqqqqqqqqqqqqqqqqqqqqqqqqqqqq.qqq
(PID.TID 0000.0001) //     28 pp.ppppppppppppppppppppppppppppppppppppppppppppppppppppppppppppppppppppppppppppppppppppppppppppppppppppppppppppppppppppppppppppppppppppppppppppppppppppppppppppppppppppppppppppppppppppppppppppppppppppppppppppppppppppppppppppppppppppppppppppppppppppppppppppp.ppp
(PID.TID 0000.0001) //     27 oo.ooooooooooooooooooooooooooooooooooooooooooooooooooooooooooooooooooooooooooooooooooooooooooooooooooooooooooooooooooooooooooooooooooooooooooooooooooooooooooooooooooooooooooooooooooooooooooooooooooooooooooooooooooooooooooooooooooooooooooooooooooooooooooooo.ooo
(PID.TID 0000.0001) //     26 nn.nnnnnnnnnnnnnnnnnnnnnnnnnnnnnnnnnnnnnnnnnnnnnnnnnnnnnnnnnnnnnnnnnnnnnnnnnnnnnnnnnnnnnnnnnnnnnnnnnnnnnnnnnnnnnnnnnnnnnnnnnnnnnnnnnnnnnnnnnnnnnnnnnnnnnnnnnnnnnnnnnnnnnnnnnnnnnnnnnnnnnnnnnnnnnnnnnnnnnnnnnnnnnnnnnnnnnnnnnnnnnnnnnnnnnnnnnnnnnnnnnnnnnnnnnnnnn.nnn
(PID.TID 0000.0001) //     25 nn.nnnnnnnnnnnnnnnnnnnnnnnnnnnnnnnnnnnnnnnnnnnnnnnnnnnnnnnnnnnnnnnnnnnnnnnnnnnnnnnnnnnnnnnnnnnnnnnnnnnnnnnnnnnnnnnnnnnnnnnnnnnnnnnnnnnnnnnnnnnnnnnnnnnnnnnnnnnnnnnnnnnnnnnnnnnnnnnnnnnnnnnnnnnnnnnnnnnnnnnnnnnnnnnnnnnnnnnnnnnnnnnnnnnnnnnnnnnnnnnnnnnnnnnnnnnnn.nnn
(PID.TID 0000.0001) //     24 mm.mmmmmmmmmmmmmmmmmmmmmmmmmmmmmmmmmmmmmmmmmmmmmmmmmmmmmmmmmmmmmmmmmmmmmmmmmmmmmmmmmmmmmmmmmmmmmmmmmmmmmmmmmmmmmmmmmmmmmmmmmmmmmmmmmmmmmmmmmmmmmmmmmmmmmmmmmmmmmmmmmmmmmmmmmmmmmmmmmmmmmmmmmmmmmmmmmmmmmmmmmmmmmmmmmmmmmmmmmmmmmmmmmmmmmmmmmmmmmmmmmmmmmmmmmmmmm.mmm
(PID.TID 0000.0001) //     23 ll.lllllllllllllllllllllllllllllllllllllllllllllllllllllllllllllllllllllllllllllllllllllllllllllllllllllllllllllllllllllllllllllllllllllllllllllllllllllllllllllllllllllllllllllllllllllllllllllllllllllllllllllllllllllllllllllllllllllllllllllllllllllllllllll.lll
(PID.TID 0000.0001) //     22 kk.kkkkkkkkkkkkkkkkkkkkkkkkkkkkkkkkkkkkkkkkkkkkkkkkkkkkkkkkkkkkkkkkkkkkkkkkkkkkkkkkkkkkkkkkkkkkkkkkkkkkkkkkkkkkkkkkkkkkkkkkkkkkkkkkkkkkkkkkkkkkkkkkkkkkkkkkkkkkkkkkkkkkkkkkkkkkkkkkkkkkkkkkkkkkkkkkkkkkkkkkkkkkkkkkkkkkkkkkkkkkkkkkkkkkkkkkkkkkkkkkkkkkkkkkkkkkk.kkk
(PID.TID 0000.0001) //     21 jj.jjjjjjjjjjjjjjjjjjjjjjjjjjjjjjjjjjjjjjjjjjjjjjjjjjjjjjjjjjjjjjjjjjjjjjjjjjjjjjjjjjjjjjjjjjjjjjjjjjjjjjjjjjjjjjjjjjjjjjjjjjjjjjjjjjjjjjjjjjjjjjjjjjjjjjjjjjjjjjjjjjjjjjjjjjjjjjjjjjjjjjjjjjjjjjjjjjjjjjjjjjjjjjjjjjjjjjjjjjjjjjjjjjjjjjjjjjjjjjjjjjjjjjjjjjjjj.jjj
(PID.TID 0000.0001) //     20 ii.iiiiiiiiiiiiiiiiiiiiiiiiiiiiiiiiiiiiiiiiiiiiiiiiiiiiiiiiiiiiiiiiiiiiiiiiiiiiiiiiiiiiiiiiiiiiiiiiiiiiiiiiiiiiiiiiiiiiiiiiiiiiiiiiiiiiiiiiiiiiiiiiiiiiiiiiiiiiiiiiiiiiiiiiiiiiiiiiiiiiiiiiiiiiiiiiiiiiiiiiiiiiiiiiiiiiiiiiiiiiiiiiiiiiiiiiiiiiiiiiiiiiiiiiiiiii.iii
(PID.TID 0000.0001) //     19 hh.hhhhhhhhhhhhhhhhhhhhhhhhhhhhhhhhhhhhhhhhhhhhhhhhhhhhhhhhhhhhhhhhhhhhhhhhhhhhhhhhhhhhhhhhhhhhhhhhhhhhhhhhhhhhhhhhhhhhhhhhhhhhhhhhhhhhhhhhhhhhhhhhhhhhhhhhhhhhhhhhhhhhhhhhhhhhhhhhhhhhhhhhhhhhhhhhhhhhhhhhhhhhhhhhhhhhhhhhhhhhhhhhhhhhhhhhhhhhhhhhhhhhhhhhhhhhh.hhh
(PID.TID 0000.0001) //     18 gg.ggggggggggggggggggggggggggggggggggggggggggggggggggggggggggggggggggggggggggggggggggggggggggggggggggggggggggggggggggggggggggggggggggggggggggggggggggggggggggggggggggggggggggggggggggggggggggggggggggggggggggggggggggggggggggggggggggggggggggggggggggggggggggggg.ggg
(PID.TID 0000.0001) //     17 ff.fffffffffffffffffffffffffffffffffffffffffffffffffffffffffffffffffffffffffffffffffffffffffffffffffffffffffffffffffffffffffffffffffffffffffffffffffffffffffffffffffffffffffffffffffffffffffffffffffffffffffffffffffffffffffffffffffffffffffffffffffffffffffffff.fff
(PID.TID 0000.0001) //     16 ee.eeeeeeeeeeeeeeeeeeeeeeeeeeeeeeeeeeeeeeeeeeeeeeeeeeeeeeeeeeeeeeeeeeeeeeeeeeeeeeeeeeeeeeeeeeeeeeeeeeeeeeeeeeeeeeeeeeeeeeeeeeeeeeeeeeeeeeeeeeeeeeeeeeeeeeeeeeeeeeeeeeeeeeeeeeeeeeeeeeeeeeeeeeeeeeeeeeeeeeeeeeeeeeeeeeeeeeeeeeeeeeeeeeeeeeeeeeeeeeeeeeeeeeeeeeeee.eee
(PID.TID 0000.0001) //     15 dd.ddddddddddddddddddddddddddddddddddddddddddddddddddddddddddddddddddddddddddddddddddddddddddddddddddddddddddddddddddddddddddddddddddddddddddddddddddddddddddddddddddddddddddddddddddddddddddddddddddddddddddddddddddddddddddddddddddddddddddddddddddddddddddddd.ddd
(PID.TID 0000.0001) //     14 dd.ddddddddddddddddddddddddddddddddddddddddddddddddddddddddddddddddddddddddddddddddddddddddddddddddddddddddddddddddddddddddddddddddddddddddddddddddddddddddddddddddddddddddddddddddddddddddddddddddddddddddddddddddddddddddddddddddddddddddddddddddddddddddddddd.ddd
(PID.TID 0000.0001) //     13 cc.ccccccccccccccccccccccccccccccccccccccccccccccccccccccccccccccccccccccccccccccccccccccccccccccccccccccccccccccccccccccccccccccccccccccccccccccccccccccccccccccccccccccccccccccccccccccccccccccccccccccccccccccccccccccccccccccccccccccccccccccccccccccccccccc.ccc
(PID.TID 0000.0001) //     18 gg.ggggggggggggggggggggggggggggggggggggggggggggggggggggggggggggggggggggggggggggggggggggggggggggggggggggggggggggggggggggggggggggggggggggggggggggggggggggggggggggggggggggggggggggggggggggggggggggggggggggggggggggggggggggggggggggggggggggggggggggggggggggggggggggg.ggg
(PID.TID 0000.0001) //     17 ff.fffffffffffffffffffffffffffffffffffffffffffffffffffffffffffffffffffffffffffffffffffffffffffffffffffffffffffffffffffffffffffffffffffffffffffffffffffffffffffffffffffffffffffffffffffffffffffffffffffffffffffffffffffffffffffffffffffffffffffffffffffffffffffff.fff
(PID.TID 0000.0001) //     16 ee.eeeeeeeeeeeeeeeeeeeeeeeeeeeeeeeeeeeeeeeeeeeeeeeeeeeeeeeeeeeeeeeeeeeeeeeeeeeeeeeeeeeeeeeeeeeeeeeeeeeeeeeeeeeeeeeeeeeeeeeeeeeeeeeeeeeeeeeeeeeeeeeeeeeeeeeeeeeeeeeeeeeeeeeeeeeeeeeeeeeeeeeeeeeeeeeeeeeeeeeeeeeeeeeeeeeeeeeeeeeeeeeeeeeeeeeeeeeeeeeeeeeeeeeeeeeee.eee
(PID.TID 0000.0001) //     15 dd.ddddddddddddddddddddddddddddddddddddddddddddddddddddddddddddddddddddddddddddddddddddddddddddddddddddddddddddddddddddddddddddddddddddddddddddddddddddddddddddddddddddddddddddddddddddddddddddddddddddddddddddddddddddddddddddddddddddddddddddddddddddddddddddd.ddd
(PID.TID 0000.0001) //     14 dd.ddddddddddddddddddddddddddddddddddddddddddddddddddddddddddddddddddddddddddddddddddddddddddddddddddddddddddddddddddddddddddddddddddddddddddddddddddddddddddddddddddddddddddddddddddddddddddddddddddddddddddddddddddddddddddddddddddddddddddddddddddddddddddddd.ddd
(PID.TID 0000.0001) //     13 cc.ccccccccccccccccccccccccccccccccccccccccccccccccccccccccccccccccccccccccccccccccccccccccccccccccccccccccccccccccccccccccccccccccccccccccccccccccccccccccccccccccccccccccccccccccccccccccccccccccccccccccccccccccccccccccccccccccccccccccccccccccccccccccccccc.ccc
(PID.TID 0000.0001) //     12 bb.bbbbbbbbbbbbbbbbbbbbbbbbbbbbbbbbbbbbbbbbbbbbbbbbbbbbbbbbbbbbbbbbbbbbbbbbbbbbbbbbbbbbbbbbbbbbbbbbbbbbbbbbbbbbbbbbbbbbbbbbbbbbbbbbbbbbbbbbbbbbbbbbbbbbbbbbbbbbbbbbbbbbbbbbbbbbbbbbbbbbbbbbbbbbbbbbbbbbbbbbbbbbbbbbbbbbbbbbbbbbbbbbbbbbbbbbbbbbbbbbbbbbbbbbbbbbb.bbb
(PID.TID 0000.0001) //     11 aa.aaaaaaaaaaaaaaaaaaaaaaaaaaaaaaaaaaaaaaaaaaaaaaaaaaaaaaaaaaaaaaaaaaaaaaaaaaaaaaaaaaaaaaaaaaaaaaaaaaaaaaaaaaaaaaaaaaaaaaaaaaaaaaaaaaaaaaaaaaaaaaaaaaaaaaaaaaaaaaaaaaaaaaaaaaaaaaaaaaaaaaaaaaaaaaaaaaaaaaaaaaaaaaaaaaaaaaaaaaaaaaaaaaaaaaaaaaaaaaaaaaaaaaaaaaaaa.aaa
(PID.TID 0000.0001) //     10 --.-------------------------------------------------------------------------------------------------------------------------------------------------------------------------------------------------------------------------------------------------------------.---
(PID.TID 0000.0001) //      9 --.-------------------------------------------------------------------------------------------------------------------------------------------------------------------------------------------------------------------------------------------------------------.---
(PID.TID 0000.0001) //      8 --.-------------------------------------------------------------------------------------------------------------------------------------------------------------------------------------------------------------------------------------------------------------.---
(PID.TID 0000.0001) //      7 --.-------------------------------------------------------------------------------------------------------------------------------------------------------------------------------------------------------------------------------------------------------------.---
(PID.TID 0000.0001) //      6 --.-------------------------------------------------------------------------------------------------------------------------------------------------------------------------------------------------------------------------------------------------------------.---
(PID.TID 0000.0001) //      5 --.-------------------------------------------------------------------------------------------------------------------------------------------------------------------------------------------------------------------------------------------------------------.---
(PID.TID 0000.0001) //      4 --.-------------------------------------------------------------------------------------------------------------------------------------------------------------------------------------------------------------------------------------------------------------.---
(PID.TID 0000.0001) //      3 --.-------------------------------------------------------------------------------------------------------------------------------------------------------------------------------------------------------------------------------------------------------------.---
(PID.TID 0000.0001) //      2 --.-------------------------------------------------------------------------------------------------------------------------------------------------------------------------------------------------------------------------------------------------------------.---
(PID.TID 0000.0001) //      1 ....................................................................................................................................................................................................................................................................
(PID.TID 0000.0001) //      0 ........................................................................................................................................................................................................................++++++++++..................................
(PID.TID 0000.0001) //     -1 ........................................................................................................................................................................................................................++++++++++..................................
(PID.TID 0000.0001) //     -2 ........................................................................................................................................................................................................................++++++++++..................................
(PID.TID 0000.0001) // =======================================================
(PID.TID 0000.0001) // END OF FIELD                                          =
(PID.TID 0000.0001) // =======================================================
(PID.TID 0000.0001) 
(PID.TID 0000.0001) // =======================================================
(PID.TID 0000.0001) // Field Model Ro_surf (ini_masks_etc) at iteration          1
(PID.TID 0000.0001) // CMIN =          1.000000000000000E+32
(PID.TID 0000.0001) // CMAX =         -1.000000000000000E+32
(PID.TID 0000.0001) // CINT =          0.000000000000000E+00
(PID.TID 0000.0001) // SYMBOLS (CMIN->CMAX): -abcdefghijklmnopqrstuvwxyz+
(PID.TID 0000.0001) //                  0.0: .
(PID.TID 0000.0001) // RANGE I (Lo:Hi:Step):(  -2: 203:   1)
(PID.TID 0000.0001) // RANGE J (Lo:Hi:Step):(  48:  -2:  -1)
(PID.TID 0000.0001) // RANGE K (Lo:Hi:Step):(   1:   1:   1)
(PID.TID 0000.0001) // =======================================================
(PID.TID 0000.0001) // =======================================================
(PID.TID 0000.0001) // END OF FIELD                                          =
(PID.TID 0000.0001) // =======================================================
(PID.TID 0000.0001) 
(PID.TID 0000.0001) // =======================================================
(PID.TID 0000.0001) // Field hFacC at iteration          1
(PID.TID 0000.0001) // CMIN =          1.000000000000000E+00
(PID.TID 0000.0001) // CMAX =          1.000000000000000E+00
(PID.TID 0000.0001) // CINT =          0.000000000000000E+00
(PID.TID 0000.0001) // SYMBOLS (CMIN->CMAX): -abcdefghijklmnopqrstuvwxyz+
(PID.TID 0000.0001) //                  0.0: .
(PID.TID 0000.0001) // RANGE I (Lo:Hi:Step):(  -2: 203:   1)
(PID.TID 0000.0001) // RANGE J (Lo:Hi:Step):(  48:  -2:  -1)
(PID.TID 0000.0001) // RANGE K (Lo:Hi:Step):(   1:   1:   1)
(PID.TID 0000.0001) // =======================================================
(PID.TID 0000.0001) // =======================================================
(PID.TID 0000.0001) // END OF FIELD                                          =
(PID.TID 0000.0001) // =======================================================
(PID.TID 0000.0001) 
(PID.TID 0000.0001) // =======================================================
(PID.TID 0000.0001) // Field hFacW at iteration          1
(PID.TID 0000.0001) // CMIN =          1.000000000000000E+00
(PID.TID 0000.0001) // CMAX =          1.000000000000000E+00
(PID.TID 0000.0001) // CINT =          0.000000000000000E+00
(PID.TID 0000.0001) // SYMBOLS (CMIN->CMAX): -abcdefghijklmnopqrstuvwxyz+
(PID.TID 0000.0001) //                  0.0: .
(PID.TID 0000.0001) // RANGE I (Lo:Hi:Step):(  -2: 203:   1)
(PID.TID 0000.0001) // RANGE J (Lo:Hi:Step):(  48:  -2:  -1)
(PID.TID 0000.0001) // RANGE K (Lo:Hi:Step):(   1:   1:   1)
(PID.TID 0000.0001) // =======================================================
(PID.TID 0000.0001) // =======================================================
(PID.TID 0000.0001) // END OF FIELD                                          =
(PID.TID 0000.0001) // =======================================================
(PID.TID 0000.0001) 
(PID.TID 0000.0001) // =======================================================
(PID.TID 0000.0001) // Field hFacS at iteration          1
(PID.TID 0000.0001) // CMIN =          1.000000000000000E+00
(PID.TID 0000.0001) // CMAX =          1.000000000000000E+00
(PID.TID 0000.0001) // CINT =          0.000000000000000E+00
(PID.TID 0000.0001) // SYMBOLS (CMIN->CMAX): -abcdefghijklmnopqrstuvwxyz+
(PID.TID 0000.0001) //                  0.0: .
(PID.TID 0000.0001) // RANGE I (Lo:Hi:Step):(  -2: 203:   1)
(PID.TID 0000.0001) // RANGE J (Lo:Hi:Step):(  48:  -2:  -1)
(PID.TID 0000.0001) // RANGE K (Lo:Hi:Step):(   1:   1:   1)
(PID.TID 0000.0001) // =======================================================
(PID.TID 0000.0001) // =======================================================
(PID.TID 0000.0001) // END OF FIELD                                          =
(PID.TID 0000.0001) // =======================================================
(PID.TID 0000.0001) 
(PID.TID 0000.0001) 
(PID.TID 0000.0001) // ===================================
(PID.TID 0000.0001) // GAD parameters :
(PID.TID 0000.0001) // ===================================
(PID.TID 0000.0001) tempAdvScheme =   /* Temp. Horiz.Advection scheme selector */
(PID.TID 0000.0001)                      77
(PID.TID 0000.0001)     ;
(PID.TID 0000.0001) tempVertAdvScheme =   /* Temp. Vert. Advection scheme selector */
(PID.TID 0000.0001)                      77
(PID.TID 0000.0001)     ;
(PID.TID 0000.0001) tempMultiDimAdvec =   /* use Muti-Dim Advec method for Temp */
(PID.TID 0000.0001)                   T
(PID.TID 0000.0001)     ;
(PID.TID 0000.0001) tempAdamsBashforth =   /* use Adams-Bashforth time-stepping for Temp */
(PID.TID 0000.0001)                   F
(PID.TID 0000.0001)     ;
(PID.TID 0000.0001) saltAdvScheme =   /* Salt. Horiz.advection scheme selector */
(PID.TID 0000.0001)                      77
(PID.TID 0000.0001)     ;
(PID.TID 0000.0001) saltVertAdvScheme =   /* Salt. Vert. Advection scheme selector */
(PID.TID 0000.0001)                      77
(PID.TID 0000.0001)     ;
(PID.TID 0000.0001) saltMultiDimAdvec =   /* use Muti-Dim Advec method for Salt */
(PID.TID 0000.0001)                   T
(PID.TID 0000.0001)     ;
(PID.TID 0000.0001) saltAdamsBashforth =   /* use Adams-Bashforth time-stepping for Salt */
(PID.TID 0000.0001)                   F
(PID.TID 0000.0001)     ;
(PID.TID 0000.0001) // ===================================
(PID.TID 0000.0001) ------------------------------------------------------------
(PID.TID 0000.0001) DIAGNOSTICS_SET_LEVELS: done
(PID.TID 0000.0001)  Total Nb of available Diagnostics: ndiagt= 150
(PID.TID 0000.0001)  write list of available Diagnostics to file: available_diagnostics.log
(PID.TID 0000.0001) SETDIAG: Allocate 25 Levels for Diagnostic #  95 VISCA4D
(PID.TID 0000.0001)   space allocated for all diagnostics:    25 levels
(PID.TID 0000.0001) DIAGNOSTICS_SET_POINTERS: Set levels for Outp.Stream: visc
(PID.TID 0000.0001)  Levels:       1.   2.   3.   4.   5.   6.   7.   8.   9.  10.  11.  12.  13.  14.  15.  16.  17.  18.  19.  20.
(PID.TID 0000.0001)  Levels:      21.  22.  23.  24.  25.
(PID.TID 0000.0001) DIAGNOSTICS_SET_POINTERS: done
(PID.TID 0000.0001) ------------------------------------------------------------
(PID.TID 0000.0001)   space allocated for all stats-diags:     0 levels
(PID.TID 0000.0001) DIAGSTATS_SET_POINTERS: done
(PID.TID 0000.0001) ------------------------------------------------------------
(PID.TID 0000.0001) OBCS_CHECK: #define ALLOW_OBCS
(PID.TID 0000.0001) OBCS_CHECK: #define ALLOW_ORLANSKI
(PID.TID 0000.0001) OBCS_CHECK: OK
(PID.TID 0000.0001) %MON fCori_max                    =   1.0000000000000E-04
(PID.TID 0000.0001) %MON fCori_min                    =   1.0000000000000E-04
(PID.TID 0000.0001) %MON fCori_mean                   =   1.0000000000000E-04
(PID.TID 0000.0001) %MON fCori_sd                     =   5.4210108624275E-20
(PID.TID 0000.0001) %MON fCoriG_max                   =   1.0000000000000E-04
(PID.TID 0000.0001) %MON fCoriG_min                   =   1.0000000000000E-04
(PID.TID 0000.0001) %MON fCoriG_mean                  =   1.0000000000000E-04
(PID.TID 0000.0001) %MON fCoriG_sd                    =   5.4210108624275E-20
(PID.TID 0000.0001) %MON fCoriCos_max                 =   0.0000000000000E+00
(PID.TID 0000.0001) %MON fCoriCos_min                 =   0.0000000000000E+00
(PID.TID 0000.0001) %MON fCoriCos_mean                =   0.0000000000000E+00
(PID.TID 0000.0001) %MON fCoriCos_sd                  =   0.0000000000000E+00
(PID.TID 0000.0001) INI_CG2D: CG2D normalisation factor =  6.9857849865313112E-05
(PID.TID 0000.0001) 
(PID.TID 0000.0001) // CG3D normalisation factor =          0.3621430937017829786233822E-06
(PID.TID 0000.0001) 
(PID.TID 0000.0001) CONFIG_CHECK: OK
(PID.TID 0000.0001) // =======================================================
(PID.TID 0000.0001) // Model configuration
(PID.TID 0000.0001) // =======================================================
(PID.TID 0000.0001) //
(PID.TID 0000.0001) // "Physical" paramters ( PARM01 in namelist )
(PID.TID 0000.0001) //
(PID.TID 0000.0001) buoyancyRelation = OCEANIC
(PID.TID 0000.0001) fluidIsAir  =  /* fluid major constituent is Air */
(PID.TID 0000.0001)                   F
(PID.TID 0000.0001)     ;
(PID.TID 0000.0001) fluidIsWater=  /* fuild major constituent is Water */
(PID.TID 0000.0001)                   T
(PID.TID 0000.0001)     ;
(PID.TID 0000.0001) usingPCoords =  /* use p (or p*) vertical coordinate */
(PID.TID 0000.0001)                   F
(PID.TID 0000.0001)     ;
(PID.TID 0000.0001) usingZCoords =  /* use z (or z*) vertical coordinate */
(PID.TID 0000.0001)                   T
(PID.TID 0000.0001)     ;
(PID.TID 0000.0001) tRef =   /* Reference temperature profile ( oC or oK ) */
(PID.TID 0000.0001)                -1.941750000000000E-01,      /* K =  1 */
(PID.TID 0000.0001)                -5.825240000000000E-01,      /* K =  2 */
(PID.TID 0000.0001)                -9.708740000000000E-01,      /* K =  3 */
(PID.TID 0000.0001)                -1.359220000000000E+00,      /* K =  4 */
(PID.TID 0000.0001)                -1.747570000000000E+00,      /* K =  5 */
(PID.TID 0000.0001)                -2.135920000000000E+00,      /* K =  6 */
(PID.TID 0000.0001)                -2.524270000000000E+00,      /* K =  7 */
(PID.TID 0000.0001)                -2.912620000000000E+00,      /* K =  8 */
(PID.TID 0000.0001)                -3.300970000000000E+00,      /* K =  9 */
(PID.TID 0000.0001)                -3.689320000000000E+00,      /* K = 10 */
(PID.TID 0000.0001)                -4.077670000000000E+00,      /* K = 11 */
(PID.TID 0000.0001)                -4.466020000000000E+00,      /* K = 12 */
(PID.TID 0000.0001)                -4.854370000000000E+00,      /* K = 13 */
(PID.TID 0000.0001)                -5.242720000000000E+00,      /* K = 14 */
(PID.TID 0000.0001)                -5.631070000000000E+00,      /* K = 15 */
(PID.TID 0000.0001)                -6.019420000000000E+00,      /* K = 16 */
(PID.TID 0000.0001)                -6.407770000000000E+00,      /* K = 17 */
(PID.TID 0000.0001)                -6.796120000000000E+00,      /* K = 18 */
(PID.TID 0000.0001)                -7.184470000000000E+00,      /* K = 19 */
(PID.TID 0000.0001)                -7.572820000000000E+00,      /* K = 20 */
(PID.TID 0000.0001)                -7.961170000000000E+00,      /* K = 21 */
(PID.TID 0000.0001)                -8.349510000000000E+00,      /* K = 22 */
(PID.TID 0000.0001)                -8.737860000000000E+00,      /* K = 23 */
(PID.TID 0000.0001)                -9.126210000000000E+00,      /* K = 24 */
(PID.TID 0000.0001)                -9.514559999999999E+00       /* K = 25 */
(PID.TID 0000.0001)     ;
(PID.TID 0000.0001) sRef =   /* Reference salinity profile ( ppt ) */
(PID.TID 0000.0001)    25 @  1.000000000000000E+00              /* K =  1: 25 */
(PID.TID 0000.0001)     ;
(PID.TID 0000.0001) viscAh =   /* Lateral eddy viscosity ( m^2/s ) */
(PID.TID 0000.0001)                 0.000000000000000E+00
(PID.TID 0000.0001)     ;
(PID.TID 0000.0001) viscAhMax =   /* Maximum lateral eddy viscosity ( m^2/s ) */
(PID.TID 0000.0001)                 1.000000000000000E+21
(PID.TID 0000.0001)     ;
(PID.TID 0000.0001) viscAhGrid =   /* Grid dependent lateral eddy viscosity ( non-dim. ) */
(PID.TID 0000.0001)                 0.000000000000000E+00
(PID.TID 0000.0001)     ;
(PID.TID 0000.0001) useFullLeith =   /* Use Full Form of Leith Viscosity on/off flag*/
(PID.TID 0000.0001)                   F
(PID.TID 0000.0001)     ;
(PID.TID 0000.0001) useStrainTensionVisc =   /* Use StrainTension Form of Viscous Operator on/off flag*/
(PID.TID 0000.0001)                   F
(PID.TID 0000.0001)     ;
(PID.TID 0000.0001) useAreaViscLength =   /* Use area for visc length instead of geom. mean*/
(PID.TID 0000.0001)                   T
(PID.TID 0000.0001)     ;
(PID.TID 0000.0001) viscC2leith = /* Leith harmonic visc. factor (on grad(vort),non-dim.) */
(PID.TID 0000.0001)                 0.000000000000000E+00
(PID.TID 0000.0001)     ;
(PID.TID 0000.0001) viscC2leithD = /* Leith harmonic viscosity factor (on grad(div),non-dim.) */
(PID.TID 0000.0001)                 0.000000000000000E+00
(PID.TID 0000.0001)     ;
(PID.TID 0000.0001) viscC2smag =   /* Smagorinsky harmonic viscosity factor (non-dim.) */
(PID.TID 0000.0001)                 0.000000000000000E+00
(PID.TID 0000.0001)     ;
(PID.TID 0000.0001) viscA4 =   /* Lateral biharmonic viscosity ( m^4/s ) */
(PID.TID 0000.0001)                 0.000000000000000E+00
(PID.TID 0000.0001)     ;
(PID.TID 0000.0001) viscA4Max =   /* Maximum biharmonic viscosity ( m^2/s ) */
(PID.TID 0000.0001)                 1.000000000000000E+21
(PID.TID 0000.0001)     ;
(PID.TID 0000.0001) viscA4Grid =   /* Grid dependent biharmonic viscosity ( non-dim. ) */
(PID.TID 0000.0001)                 0.000000000000000E+00
(PID.TID 0000.0001)     ;
(PID.TID 0000.0001) viscC4leith = /* Leith biharm viscosity factor (on grad(vort), non-dim.) */
(PID.TID 0000.0001)                 1.458198138065000E+00
(PID.TID 0000.0001)     ;
(PID.TID 0000.0001) viscC4leithD = /* Leith biharm viscosity factor (on grad(div), non-dim.) */
(PID.TID 0000.0001)                 0.000000000000000E+00
(PID.TID 0000.0001)     ;
(PID.TID 0000.0001) viscC4Smag = /* Smagorinsky biharm viscosity factor (non-dim) */
(PID.TID 0000.0001)                 0.000000000000000E+00
(PID.TID 0000.0001)     ;
(PID.TID 0000.0001) no_slip_sides =  /* Viscous BCs: No-slip sides */
(PID.TID 0000.0001)                   T
(PID.TID 0000.0001)     ;
(PID.TID 0000.0001) viscAr =   /* Vertical eddy viscosity ( units of r^2/s ) */
(PID.TID 0000.0001)                 5.000000000000000E-01
(PID.TID 0000.0001)     ;
(PID.TID 0000.0001) no_slip_bottom =  /* Viscous BCs: No-slip bottom */
(PID.TID 0000.0001)                   T
(PID.TID 0000.0001)     ;
(PID.TID 0000.0001) diffKhT =   /* Laplacian diffusion of heat laterally ( m^2/s ) */
(PID.TID 0000.0001)                 0.000000000000000E+00
(PID.TID 0000.0001)     ;
(PID.TID 0000.0001) diffK4T =   /* Bihaarmonic diffusion of heat laterally ( m^4/s ) */
(PID.TID 0000.0001)                 0.000000000000000E+00
(PID.TID 0000.0001)     ;
(PID.TID 0000.0001) diffKhS =   /* Laplacian diffusion of salt laterally ( m^2/s ) */
(PID.TID 0000.0001)                 0.000000000000000E+00
(PID.TID 0000.0001)     ;
(PID.TID 0000.0001) diffK4S =   /* Bihaarmonic diffusion of salt laterally ( m^4/s ) */
(PID.TID 0000.0001)                 0.000000000000000E+00
(PID.TID 0000.0001)     ;
(PID.TID 0000.0001) diffKrNrT = /* vertical profile of vertical diffusion of Temp ( m^2/s )*/
(PID.TID 0000.0001)    25 @  0.000000000000000E+00              /* K =  1: 25 */
(PID.TID 0000.0001)     ;
(PID.TID 0000.0001) diffKrNrS = /* vertical profile of vertical diffusion of Salt ( m^2/s )*/
(PID.TID 0000.0001)    25 @  0.000000000000000E+00              /* K =  1: 25 */
(PID.TID 0000.0001)     ;
(PID.TID 0000.0001) diffKrBL79surf =   /* Surface diffusion for Bryan and Lewis 1979 ( m^2/s ) */
(PID.TID 0000.0001)                 0.000000000000000E+00
(PID.TID 0000.0001)     ;
(PID.TID 0000.0001) diffKrBL79deep =   /* Deep diffusion for Bryan and Lewis 1979 ( m^2/s ) */
(PID.TID 0000.0001)                 0.000000000000000E+00
(PID.TID 0000.0001)     ;
(PID.TID 0000.0001) diffKrBL79scl =   /* Depth scale for Bryan and Lewis 1979 ( m ) */
(PID.TID 0000.0001)                 2.000000000000000E+02
(PID.TID 0000.0001)     ;
(PID.TID 0000.0001) diffKrBL79Ho =   /* Turning depth for Bryan and Lewis 1979 ( m ) */
(PID.TID 0000.0001)                -2.000000000000000E+03
(PID.TID 0000.0001)     ;
(PID.TID 0000.0001)  Equation of State : eosType = LINEAR
(PID.TID 0000.0001) tAlpha =   /* Linear EOS thermal expansion coefficient ( 1/degree ) */
(PID.TID 0000.0001)                 2.000000000000000E-04
(PID.TID 0000.0001)     ;
(PID.TID 0000.0001) sBeta =   /* Linear EOS haline contraction coefficient ( 1/ppt ) */
(PID.TID 0000.0001)                 0.000000000000000E+00
(PID.TID 0000.0001)     ;
(PID.TID 0000.0001) rhonil =   /* Reference density ( kg/m^3 ) */
(PID.TID 0000.0001)                 1.030000000000000E+03
(PID.TID 0000.0001)     ;
(PID.TID 0000.0001) rhoConst =   /* Reference density ( kg/m^3 ) */
(PID.TID 0000.0001)                 1.030000000000000E+03
(PID.TID 0000.0001)     ;
(PID.TID 0000.0001) rhoConstFresh =   /* Reference density ( kg/m^3 ) */
(PID.TID 0000.0001)                 1.030000000000000E+03
(PID.TID 0000.0001)     ;
(PID.TID 0000.0001) gravity =   /* Gravitational acceleration ( m/s^2 ) */
(PID.TID 0000.0001)                 9.810000000000000E+00
(PID.TID 0000.0001)     ;
(PID.TID 0000.0001) gBaro =   /* Barotropic gravity ( m/s^2 ) */
(PID.TID 0000.0001)                 9.810000000000000E+00
(PID.TID 0000.0001)     ;
(PID.TID 0000.0001) rotationPeriod =   /* Rotation Period ( s ) */
(PID.TID 0000.0001)                 8.640000000000000E+04
(PID.TID 0000.0001)     ;
(PID.TID 0000.0001) omega =   /* Angular velocity ( rad/s ) */
(PID.TID 0000.0001)                 7.272205216643040E-05
(PID.TID 0000.0001)     ;
(PID.TID 0000.0001) f0 =   /* Reference coriolis parameter ( 1/s ) */
(PID.TID 0000.0001)                 1.000000000000000E-04
(PID.TID 0000.0001)     ;
(PID.TID 0000.0001) beta =   /* Beta ( 1/(m.s) ) */
(PID.TID 0000.0001)                 0.000000000000000E+00
(PID.TID 0000.0001)     ;
(PID.TID 0000.0001) freeSurfFac =   /* Implicit free surface factor */
(PID.TID 0000.0001)                 1.000000000000000E+00
(PID.TID 0000.0001)     ;
(PID.TID 0000.0001) implicitFreeSurface =   /* Implicit free surface on/off flag */
(PID.TID 0000.0001)                   T
(PID.TID 0000.0001)     ;
(PID.TID 0000.0001) rigidLid =   /* Rigid lid on/off flag */
(PID.TID 0000.0001)                   F
(PID.TID 0000.0001)     ;
(PID.TID 0000.0001) implicSurfPress =   /* Surface Pressure implicit factor (0-1)*/
(PID.TID 0000.0001)                 1.000000000000000E+00
(PID.TID 0000.0001)     ;
(PID.TID 0000.0001) implicDiv2Dflow =   /* Barot. Flow Div. implicit factor (0-1)*/
(PID.TID 0000.0001)                 1.000000000000000E+00
(PID.TID 0000.0001)     ;
(PID.TID 0000.0001) exactConserv =   /* Exact Volume Conservation on/off flag*/
(PID.TID 0000.0001)                   F
(PID.TID 0000.0001)     ;
(PID.TID 0000.0001) uniformLin_PhiSurf =   /* use uniform Bo_surf on/off flag*/
(PID.TID 0000.0001)                   T
(PID.TID 0000.0001)     ;
(PID.TID 0000.0001) nonlinFreeSurf =   /* Non-linear Free Surf. options (-1,0,1,2,3)*/
(PID.TID 0000.0001)                       0
(PID.TID 0000.0001)     ;
(PID.TID 0000.0001)      -1,0= Off ; 1,2,3= On, 2=+rescale gU,gV, 3=+update cg2d solv.
(PID.TID 0000.0001) hFacInf =   /* lower threshold for hFac (nonlinFreeSurf only)*/
(PID.TID 0000.0001)                 2.000000000000000E-01
(PID.TID 0000.0001)     ;
(PID.TID 0000.0001) hFacSup =   /* upper threshold for hFac (nonlinFreeSurf only)*/
(PID.TID 0000.0001)                 2.000000000000000E+00
(PID.TID 0000.0001)     ;
(PID.TID 0000.0001) select_rStar =   /* r* Coordinate options (not yet implemented)*/
(PID.TID 0000.0001)                       0
(PID.TID 0000.0001)     ;
(PID.TID 0000.0001) useRealFreshWaterFlux =   /* Real Fresh Water Flux on/off flag*/
(PID.TID 0000.0001)                   F
(PID.TID 0000.0001)     ;
(PID.TID 0000.0001) convertFW2Salt = /* convert F.W. Flux to Salt Flux (-1=use local S)(ppt)*/
(PID.TID 0000.0001)                 3.500000000000000E+01
(PID.TID 0000.0001)     ;
(PID.TID 0000.0001) nonHydrostatic =  /* Non-Hydrostatic on/off flag */
(PID.TID 0000.0001)                   F
(PID.TID 0000.0001)     ;
(PID.TID 0000.0001) momStepping =  /* Momentum equation on/off flag */
(PID.TID 0000.0001)                   T
(PID.TID 0000.0001)     ;
(PID.TID 0000.0001) momAdvection =  /* Momentum advection on/off flag */
(PID.TID 0000.0001)                   T
(PID.TID 0000.0001)     ;
(PID.TID 0000.0001) momViscosity =  /* Momentum viscosity on/off flag */
(PID.TID 0000.0001)                   T
(PID.TID 0000.0001)     ;
(PID.TID 0000.0001) momImplVertAdv =/* Momentum implicit vert. advection on/off*/
(PID.TID 0000.0001)                   F
(PID.TID 0000.0001)     ;
(PID.TID 0000.0001) implicitViscosity = /* Implicit viscosity on/off flag */
(PID.TID 0000.0001)                   F
(PID.TID 0000.0001)     ;
(PID.TID 0000.0001) useCoriolis =  /* Coriolis on/off flag */
(PID.TID 0000.0001)                   T
(PID.TID 0000.0001)     ;
(PID.TID 0000.0001) useCDscheme =  /* CD scheme on/off flag */
(PID.TID 0000.0001)                   F
(PID.TID 0000.0001)     ;
(PID.TID 0000.0001) useJamartWetPoints= /* Coriolis WetPoints method flag */
(PID.TID 0000.0001)                   F
(PID.TID 0000.0001)     ;
(PID.TID 0000.0001) useJamartMomAdv= /* V.I. Non-linear terms Jamart flag */
(PID.TID 0000.0001)                   F
(PID.TID 0000.0001)     ;
(PID.TID 0000.0001) SadournyCoriolis= /* Sadourny Coriolis discr. flag */
(PID.TID 0000.0001)                   F
(PID.TID 0000.0001)     ;
(PID.TID 0000.0001) upwindVorticity= /* Upwind bias vorticity flag */
(PID.TID 0000.0001)                   F
(PID.TID 0000.0001)     ;
(PID.TID 0000.0001) useAbsVorticity= /* Work with f+zeta in Coriolis */
(PID.TID 0000.0001)                   F
(PID.TID 0000.0001)     ;
(PID.TID 0000.0001) highOrderVorticity= /* High order interp. of vort. flag */
(PID.TID 0000.0001)                   F
(PID.TID 0000.0001)     ;
(PID.TID 0000.0001) upwindShear= /* Upwind vertical Shear advection flag */
(PID.TID 0000.0001)                   F
(PID.TID 0000.0001)     ;
(PID.TID 0000.0001) selectKEscheme= /* Kinetic Energy scheme selector */
(PID.TID 0000.0001)                       0
(PID.TID 0000.0001)     ;
(PID.TID 0000.0001) momForcing =  /* Momentum forcing on/off flag */
(PID.TID 0000.0001)                   T
(PID.TID 0000.0001)     ;
(PID.TID 0000.0001) momPressureForcing =  /* Momentum pressure term on/off flag */
(PID.TID 0000.0001)                   T
(PID.TID 0000.0001)     ;
(PID.TID 0000.0001) staggerTimeStep =   /* Stagger time stepping on/off flag */
(PID.TID 0000.0001)                   T
(PID.TID 0000.0001)     ;
(PID.TID 0000.0001) multiDimAdvection =   /* enable/disable Multi-Dim Advection */
(PID.TID 0000.0001)                   T
(PID.TID 0000.0001)     ;
(PID.TID 0000.0001) useMultiDimAdvec =   /* Multi-Dim Advection is/is-not used */
(PID.TID 0000.0001)                   T
(PID.TID 0000.0001)     ;
(PID.TID 0000.0001) implicitDiffusion =/* Implicit Diffusion on/off flag */
(PID.TID 0000.0001)                   F
(PID.TID 0000.0001)     ;
(PID.TID 0000.0001) tempStepping =  /* Temperature equation on/off flag */
(PID.TID 0000.0001)                   T
(PID.TID 0000.0001)     ;
(PID.TID 0000.0001) tempAdvection=  /* Temperature advection on/off flag */
(PID.TID 0000.0001)                   T
(PID.TID 0000.0001)     ;
(PID.TID 0000.0001) tempImplVertAdv =/* Temp. implicit vert. advection on/off */
(PID.TID 0000.0001)                   F
(PID.TID 0000.0001)     ;
(PID.TID 0000.0001) tempForcing  =  /* Temperature forcing on/off flag */
(PID.TID 0000.0001)                   T
(PID.TID 0000.0001)     ;
(PID.TID 0000.0001) saltStepping =  /* Salinity equation on/off flag */
(PID.TID 0000.0001)                   T
(PID.TID 0000.0001)     ;
(PID.TID 0000.0001) saltAdvection=  /* Salinity advection on/off flag */
(PID.TID 0000.0001)                   T
(PID.TID 0000.0001)     ;
(PID.TID 0000.0001) saltImplVertAdv =/* Sali. implicit vert. advection on/off */
(PID.TID 0000.0001)                   F
(PID.TID 0000.0001)     ;
(PID.TID 0000.0001) saltForcing  =  /* Salinity forcing on/off flag */
(PID.TID 0000.0001)                   T
(PID.TID 0000.0001)     ;
(PID.TID 0000.0001)  debugMode  =  /* Debug Mode on/off flag */
(PID.TID 0000.0001)                   F
(PID.TID 0000.0001)     ;
(PID.TID 0000.0001)    debLevA  =  /* 1rst level of debugging */
(PID.TID 0000.0001)                       1
(PID.TID 0000.0001)     ;
(PID.TID 0000.0001)    debLevB  =  /* 2nd  level of debugging */
(PID.TID 0000.0001)                       2
(PID.TID 0000.0001)     ;
(PID.TID 0000.0001)  debugLevel =  /* select debugging level */
(PID.TID 0000.0001)                       1
(PID.TID 0000.0001)     ;
(PID.TID 0000.0001) //
(PID.TID 0000.0001) // Elliptic solver(s) paramters ( PARM02 in namelist )
(PID.TID 0000.0001) //
(PID.TID 0000.0001) cg2dMaxIters =   /* Upper limit on 2d con. grad iterations  */
(PID.TID 0000.0001)                    1000
(PID.TID 0000.0001)     ;
(PID.TID 0000.0001) cg2dChkResFreq =   /* 2d con. grad convergence test frequency */
(PID.TID 0000.0001)                       1
(PID.TID 0000.0001)     ;
(PID.TID 0000.0001) cg2dTargetResidual =   /* 2d con. grad target residual  */
(PID.TID 0000.0001)                 9.999999999999999E-12
(PID.TID 0000.0001)     ;
(PID.TID 0000.0001) cg2dTargetResWunit =   /* CG2d target residual [W units] */
(PID.TID 0000.0001)                -1.000000000000000E+00
(PID.TID 0000.0001)     ;
(PID.TID 0000.0001) cg2dPreCondFreq =   /* Freq. for updating cg2d preconditioner */
(PID.TID 0000.0001)                       1
(PID.TID 0000.0001)     ;
(PID.TID 0000.0001) //
(PID.TID 0000.0001) // Time stepping paramters ( PARM03 in namelist )
(PID.TID 0000.0001) //
(PID.TID 0000.0001) nIter0 =   /* Run starting timestep number  */
(PID.TID 0000.0001)                       0
(PID.TID 0000.0001)     ;
(PID.TID 0000.0001) nTimeSteps =   /* Number of timesteps */
(PID.TID 0000.0001)                      20
(PID.TID 0000.0001)     ;
(PID.TID 0000.0001) deltatTmom =   /* Momentum equation timestep ( s ) */
(PID.TID 0000.0001)                 3.000000000000000E+02
(PID.TID 0000.0001)     ;
(PID.TID 0000.0001) deltaTfreesurf =   /* FreeSurface equation timestep ( s ) */
(PID.TID 0000.0001)                 3.000000000000000E+02
(PID.TID 0000.0001)     ;
(PID.TID 0000.0001) dTtracerLev =   /* Tracer equation timestep ( s ) */
(PID.TID 0000.0001)    25 @  3.000000000000000E+02              /* K =  1: 25 */
(PID.TID 0000.0001)     ;
(PID.TID 0000.0001) deltatTClock  =   /* Model clock timestep ( s ) */
(PID.TID 0000.0001)                 3.000000000000000E+02
(PID.TID 0000.0001)     ;
(PID.TID 0000.0001) cAdjFreq =   /* Convective adjustment interval ( s ) */
(PID.TID 0000.0001)                 0.000000000000000E+00
(PID.TID 0000.0001)     ;
(PID.TID 0000.0001) forcing_In_AB =   /* put T,S Forcing in Adams-Bash. stepping */
(PID.TID 0000.0001)                   T
(PID.TID 0000.0001)     ;
(PID.TID 0000.0001) abEps =   /* Adams-Bashforth-2 stabilizing weight */
(PID.TID 0000.0001)                 1.000000000000000E-01
(PID.TID 0000.0001)     ;
(PID.TID 0000.0001) baseTime =   /* Model base time ( s ). */
(PID.TID 0000.0001)                 0.000000000000000E+00
(PID.TID 0000.0001)     ;
(PID.TID 0000.0001) startTime =   /* Run start time ( s ). */
(PID.TID 0000.0001)                 0.000000000000000E+00
(PID.TID 0000.0001)     ;
(PID.TID 0000.0001) endTime =   /* Integration ending time ( s ). */
(PID.TID 0000.0001)                 6.000000000000000E+03
(PID.TID 0000.0001)     ;
(PID.TID 0000.0001) pChkPtFreq =   /* Permanent restart/checkpoint file interval ( s ). */
(PID.TID 0000.0001)                 0.000000000000000E+00
(PID.TID 0000.0001)     ;
(PID.TID 0000.0001) chkPtFreq =   /* Rolling restart/checkpoint file interval ( s ). */
(PID.TID 0000.0001)                 1.000000000000000E+05
(PID.TID 0000.0001)     ;
(PID.TID 0000.0001) pickup_write_mdsio =   /* Model IO flag. */
(PID.TID 0000.0001)                   T
(PID.TID 0000.0001)     ;
(PID.TID 0000.0001) pickup_read_mdsio =   /* Model IO flag. */
(PID.TID 0000.0001)                   T
(PID.TID 0000.0001)     ;
(PID.TID 0000.0001) pickup_write_immed =   /* Model IO flag. */
(PID.TID 0000.0001)                   F
(PID.TID 0000.0001)     ;
(PID.TID 0000.0001) dumpFreq =   /* Model state write out interval ( s ). */
(PID.TID 0000.0001)                 3.000000000000000E+04
(PID.TID 0000.0001)     ;
(PID.TID 0000.0001) dumpInitAndLast= /* write out Initial & Last iter. model state */
(PID.TID 0000.0001)                   T
(PID.TID 0000.0001)     ;
(PID.TID 0000.0001) snapshot_mdsio =   /* Model IO flag. */
(PID.TID 0000.0001)                   T
(PID.TID 0000.0001)     ;
(PID.TID 0000.0001) monitorFreq =   /* Monitor output interval ( s ). */
(PID.TID 0000.0001)                 3.000000000000000E+02
(PID.TID 0000.0001)     ;
(PID.TID 0000.0001) monitor_stdio =   /* Model IO flag. */
(PID.TID 0000.0001)                   T
(PID.TID 0000.0001)     ;
(PID.TID 0000.0001) externForcingPeriod =   /* forcing period (s) */
(PID.TID 0000.0001)                 0.000000000000000E+00
(PID.TID 0000.0001)     ;
(PID.TID 0000.0001) externForcingCycle =   /* period of the cyle (s). */
(PID.TID 0000.0001)                 0.000000000000000E+00
(PID.TID 0000.0001)     ;
(PID.TID 0000.0001) tauThetaClimRelax =   /* relaxation time scale (s) */
(PID.TID 0000.0001)                 0.000000000000000E+00
(PID.TID 0000.0001)     ;
(PID.TID 0000.0001) tauSaltClimRelax =   /* relaxation time scale (s) */
(PID.TID 0000.0001)                 0.000000000000000E+00
(PID.TID 0000.0001)     ;
(PID.TID 0000.0001) latBandClimRelax =   /* max. Lat. where relaxation */
(PID.TID 0000.0001)                 1.800000000000000E+06
(PID.TID 0000.0001)     ;
(PID.TID 0000.0001) //
(PID.TID 0000.0001) // Gridding paramters ( PARM04 in namelist )
(PID.TID 0000.0001) //
(PID.TID 0000.0001) usingCartesianGrid =   /* Cartesian coordinates flag ( True / False ) */
(PID.TID 0000.0001)                   T
(PID.TID 0000.0001)     ;
(PID.TID 0000.0001) usingSphericalPolarGrid =   /* Spherical coordinates flag ( True / False ) */
(PID.TID 0000.0001)                   F
(PID.TID 0000.0001)     ;
(PID.TID 0000.0001) usingCylindricalGrid =   /* Spherical coordinates flag ( True / False ) */
(PID.TID 0000.0001)                   F
(PID.TID 0000.0001)     ;
(PID.TID 0000.0001) Ro_SeaLevel =   /* r(1) ( units of r ) */
(PID.TID 0000.0001)                 0.000000000000000E+00
(PID.TID 0000.0001)     ;
(PID.TID 0000.0001) rkSign =   /* index orientation relative to vertical coordinate */
(PID.TID 0000.0001)                -1.000000000000000E+00
(PID.TID 0000.0001)     ;
(PID.TID 0000.0001) horiVertRatio =   /* Ratio on units : Horiz - Vertical */
(PID.TID 0000.0001)                 1.000000000000000E+00
(PID.TID 0000.0001)     ;
(PID.TID 0000.0001) drC =   /* C spacing ( units of r ) */
(PID.TID 0000.0001)                 7.200000000000000E+01,      /* K =  1 */
(PID.TID 0000.0001)    24 @  1.440000000000000E+02              /* K =  2: 25 */
(PID.TID 0000.0001)     ;
(PID.TID 0000.0001) drF =   /* W spacing ( units of r ) */
(PID.TID 0000.0001)    25 @  1.440000000000000E+02              /* K =  1: 25 */
(PID.TID 0000.0001)     ;
(PID.TID 0000.0001) delX =   /* U spacing ( m - cartesian, degrees - spherical ) */
(PID.TID 0000.0001)   200 @  1.000000000000000E+04              /* I =  1:200 */
(PID.TID 0000.0001)     ;
(PID.TID 0000.0001) delY =   /* V spacing ( m - cartesian, degrees - spherical ) */
(PID.TID 0000.0001)                 4.354770412272808E+04,      /* J =  1 */
(PID.TID 0000.0001)                 3.976328763529614E+04,      /* J =  2 */
(PID.TID 0000.0001)                 3.845253979986927E+04,      /* J =  3 */
(PID.TID 0000.0001)                 3.330179774422351E+04,      /* J =  4 */
(PID.TID 0000.0001)                 2.498218561664100E+04,      /* J =  5 */
(PID.TID 0000.0001)                 1.850347835747289E+04,      /* J =  6 */
(PID.TID 0000.0001)                 1.476940894853175E+04,      /* J =  7 */
(PID.TID 0000.0001)                 1.272781949244290E+04,      /* J =  8 */
(PID.TID 0000.0001)                 1.159189758968330E+04,      /* J =  9 */
(PID.TID 0000.0001)                 1.094219501627191E+04,      /* J = 10 */
(PID.TID 0000.0001)                 1.056279034603045E+04,      /* J = 11 */
(PID.TID 0000.0001)                 1.033823866459392E+04,      /* J = 12 */
(PID.TID 0000.0001)                 1.020398171822501E+04,      /* J = 13 */
(PID.TID 0000.0001)                 1.012328472029299E+04,      /* J = 14 */
(PID.TID 0000.0001)                 1.007461407944328E+04,      /* J = 15 */
(PID.TID 0000.0001)                 1.004519587625975E+04,      /* J = 16 */
(PID.TID 0000.0001)                 1.002739060034890E+04,      /* J = 17 */
(PID.TID 0000.0001)                 1.001660509967246E+04,      /* J = 18 */
(PID.TID 0000.0001)                 1.001006850448283E+04,      /* J = 19 */
(PID.TID 0000.0001)                 1.000610575317793E+04,      /* J = 20 */
(PID.TID 0000.0001)                 1.000370292038679E+04,      /* J = 21 */
(PID.TID 0000.0001)                 1.000224578530626E+04,      /* J = 22 */
(PID.TID 0000.0001)                 1.000136208265968E+04,      /* J = 23 */
(PID.TID 0000.0001)                 1.000082612466494E+04,      /* J = 24 */
(PID.TID 0000.0001)                 1.000050106249572E+04,      /* J = 25 */
(PID.TID 0000.0001)                 1.000030390702810E+04,      /* J = 26 */
(PID.TID 0000.0001)                 1.000018432792299E+04,      /* J = 27 */
(PID.TID 0000.0001)                 1.000011180016617E+04,      /* J = 28 */
(PID.TID 0000.0001)                 1.000006781009222E+04,      /* J = 29 */
(PID.TID 0000.0001)                 1.000004112884983E+04,      /* J = 30 */
(PID.TID 0000.0001)                 1.000002494588998E+04,      /* J = 31 */
(PID.TID 0000.0001)                 1.000001513044032E+04,      /* J = 32 */
(PID.TID 0000.0001)                 1.000000917707345E+04,      /* J = 33 */
(PID.TID 0000.0001)                 1.000000556617549E+04,      /* J = 34 */
(PID.TID 0000.0001)                 1.000000337605576E+04,      /* J = 35 */
(PID.TID 0000.0001)                 1.000000204768121E+04,      /* J = 36 */
(PID.TID 0000.0001)                 1.000000124198138E+04,      /* J = 37 */
(PID.TID 0000.0001)                 1.000000075329977E+04,      /* J = 38 */
(PID.TID 0000.0001)                 1.000000045689940E+04,      /* J = 39 */
(PID.TID 0000.0001)                 1.000000027712349E+04,      /* J = 40 */
(PID.TID 0000.0001)                 1.000000016808389E+04,      /* J = 41 */
(PID.TID 0000.0001)                 1.000000010194804E+04,      /* J = 42 */
(PID.TID 0000.0001)                 1.000000006183461E+04,      /* J = 43 */
(PID.TID 0000.0001)                 1.000000003750459E+04,      /* J = 44 */
(PID.TID 0000.0001)                 1.000000002274768E+04       /* J = 45 */
(PID.TID 0000.0001)     ;
(PID.TID 0000.0001) phiMin =    /* South edge (ignored - cartesian, degrees - spherical ) */
(PID.TID 0000.0001)                 0.000000000000000E+00
(PID.TID 0000.0001)     ;
(PID.TID 0000.0001) thetaMin =    /* West edge ( ignored - cartesian, degrees - spherical ) */
(PID.TID 0000.0001)                 0.000000000000000E+00
(PID.TID 0000.0001)     ;
(PID.TID 0000.0001) rSphere =    /* Radius ( ignored - cartesian, m - spherical ) */
(PID.TID 0000.0001)                 6.370000000000000E+06
(PID.TID 0000.0001)     ;
(PID.TID 0000.0001) xcoord =   /* P-point X coord ( m - cartesian, degrees - spherical ) */
(PID.TID 0000.0001)                 5.000000000000000E+03,      /* I =  1 */
(PID.TID 0000.0001)                 1.500000000000000E+04,      /* I =  2 */
(PID.TID 0000.0001)                 2.500000000000000E+04,      /* I =  3 */
(PID.TID 0000.0001)                 3.500000000000000E+04,      /* I =  4 */
(PID.TID 0000.0001)                 4.500000000000000E+04,      /* I =  5 */
(PID.TID 0000.0001)                 5.500000000000000E+04,      /* I =  6 */
(PID.TID 0000.0001)                 6.500000000000000E+04,      /* I =  7 */
(PID.TID 0000.0001)                 7.500000000000000E+04,      /* I =  8 */
(PID.TID 0000.0001)                 8.500000000000000E+04,      /* I =  9 */
(PID.TID 0000.0001)                 9.500000000000000E+04,      /* I = 10 */
(PID.TID 0000.0001)                 1.050000000000000E+05,      /* I = 11 */
(PID.TID 0000.0001)                 1.150000000000000E+05,      /* I = 12 */
(PID.TID 0000.0001)                 1.250000000000000E+05,      /* I = 13 */
(PID.TID 0000.0001)                 1.350000000000000E+05,      /* I = 14 */
(PID.TID 0000.0001)                 1.450000000000000E+05,      /* I = 15 */
(PID.TID 0000.0001)                 1.550000000000000E+05,      /* I = 16 */
(PID.TID 0000.0001)                 1.650000000000000E+05,      /* I = 17 */
(PID.TID 0000.0001)                 1.750000000000000E+05,      /* I = 18 */
(PID.TID 0000.0001)                 1.850000000000000E+05,      /* I = 19 */
(PID.TID 0000.0001)                 1.950000000000000E+05,      /* I = 20 */
(PID.TID 0000.0001)                 2.050000000000000E+05,      /* I = 21 */
(PID.TID 0000.0001)                 2.150000000000000E+05,      /* I = 22 */
(PID.TID 0000.0001)                 2.250000000000000E+05,      /* I = 23 */
(PID.TID 0000.0001)                 2.350000000000000E+05,      /* I = 24 */
(PID.TID 0000.0001)                 2.450000000000000E+05,      /* I = 25 */
(PID.TID 0000.0001)                 2.550000000000000E+05,      /* I = 26 */
(PID.TID 0000.0001)                 2.650000000000000E+05,      /* I = 27 */
(PID.TID 0000.0001)                 2.750000000000000E+05,      /* I = 28 */
(PID.TID 0000.0001)                 2.850000000000000E+05,      /* I = 29 */
(PID.TID 0000.0001)                 2.950000000000000E+05,      /* I = 30 */
(PID.TID 0000.0001)                 3.050000000000000E+05,      /* I = 31 */
(PID.TID 0000.0001)                 3.150000000000000E+05,      /* I = 32 */
(PID.TID 0000.0001)                 3.250000000000000E+05,      /* I = 33 */
(PID.TID 0000.0001)                 3.350000000000000E+05,      /* I = 34 */
(PID.TID 0000.0001)                 3.450000000000000E+05,      /* I = 35 */
(PID.TID 0000.0001)                 3.550000000000000E+05,      /* I = 36 */
(PID.TID 0000.0001)                 3.650000000000000E+05,      /* I = 37 */
(PID.TID 0000.0001)                 3.750000000000000E+05,      /* I = 38 */
(PID.TID 0000.0001)                 3.850000000000000E+05,      /* I = 39 */
(PID.TID 0000.0001)                 3.950000000000000E+05,      /* I = 40 */
(PID.TID 0000.0001)                 4.050000000000000E+05,      /* I = 41 */
(PID.TID 0000.0001)                 4.150000000000000E+05,      /* I = 42 */
(PID.TID 0000.0001)                 4.250000000000000E+05,      /* I = 43 */
(PID.TID 0000.0001)                 4.350000000000000E+05,      /* I = 44 */
(PID.TID 0000.0001)                 4.450000000000000E+05,      /* I = 45 */
(PID.TID 0000.0001)                 4.550000000000000E+05,      /* I = 46 */
(PID.TID 0000.0001)                 4.650000000000000E+05,      /* I = 47 */
(PID.TID 0000.0001)                 4.750000000000000E+05,      /* I = 48 */
(PID.TID 0000.0001)                 4.850000000000000E+05,      /* I = 49 */
(PID.TID 0000.0001)                 4.950000000000000E+05,      /* I = 50 */
(PID.TID 0000.0001)                 5.050000000000000E+05,      /* I = 51 */
(PID.TID 0000.0001)                 5.150000000000000E+05,      /* I = 52 */
(PID.TID 0000.0001)                 5.250000000000000E+05,      /* I = 53 */
(PID.TID 0000.0001)                 5.350000000000000E+05,      /* I = 54 */
(PID.TID 0000.0001)                 5.450000000000000E+05,      /* I = 55 */
(PID.TID 0000.0001)                 5.550000000000000E+05,      /* I = 56 */
(PID.TID 0000.0001)                 5.650000000000000E+05,      /* I = 57 */
(PID.TID 0000.0001)                 5.750000000000000E+05,      /* I = 58 */
(PID.TID 0000.0001)                 5.850000000000000E+05,      /* I = 59 */
(PID.TID 0000.0001)                 5.950000000000000E+05,      /* I = 60 */
(PID.TID 0000.0001)                 6.050000000000000E+05,      /* I = 61 */
(PID.TID 0000.0001)                 6.150000000000000E+05,      /* I = 62 */
(PID.TID 0000.0001)                 6.250000000000000E+05,      /* I = 63 */
(PID.TID 0000.0001)                 6.350000000000000E+05,      /* I = 64 */
(PID.TID 0000.0001)                 6.450000000000000E+05,      /* I = 65 */
(PID.TID 0000.0001)                 6.550000000000000E+05,      /* I = 66 */
(PID.TID 0000.0001)                 6.650000000000000E+05,      /* I = 67 */
(PID.TID 0000.0001)                 6.750000000000000E+05,      /* I = 68 */
(PID.TID 0000.0001)                 6.850000000000000E+05,      /* I = 69 */
(PID.TID 0000.0001)                 6.950000000000000E+05,      /* I = 70 */
(PID.TID 0000.0001)                 7.050000000000000E+05,      /* I = 71 */
(PID.TID 0000.0001)                 7.150000000000000E+05,      /* I = 72 */
(PID.TID 0000.0001)                 7.250000000000000E+05,      /* I = 73 */
(PID.TID 0000.0001)                 7.350000000000000E+05,      /* I = 74 */
(PID.TID 0000.0001)                 7.450000000000000E+05,      /* I = 75 */
(PID.TID 0000.0001)                 7.550000000000000E+05,      /* I = 76 */
(PID.TID 0000.0001)                 7.650000000000000E+05,      /* I = 77 */
(PID.TID 0000.0001)                 7.750000000000000E+05,      /* I = 78 */
(PID.TID 0000.0001)                 7.850000000000000E+05,      /* I = 79 */
(PID.TID 0000.0001)                 7.950000000000000E+05,      /* I = 80 */
(PID.TID 0000.0001)                 8.050000000000000E+05,      /* I = 81 */
(PID.TID 0000.0001)                 8.150000000000000E+05,      /* I = 82 */
(PID.TID 0000.0001)                 8.250000000000000E+05,      /* I = 83 */
(PID.TID 0000.0001)                 8.350000000000000E+05,      /* I = 84 */
(PID.TID 0000.0001)                 8.450000000000000E+05,      /* I = 85 */
(PID.TID 0000.0001)                 8.550000000000000E+05,      /* I = 86 */
(PID.TID 0000.0001)                 8.650000000000000E+05,      /* I = 87 */
(PID.TID 0000.0001)                 8.750000000000000E+05,      /* I = 88 */
(PID.TID 0000.0001)                 8.850000000000000E+05,      /* I = 89 */
(PID.TID 0000.0001)                 8.950000000000000E+05,      /* I = 90 */
(PID.TID 0000.0001)                 9.050000000000000E+05,      /* I = 91 */
(PID.TID 0000.0001)                 9.150000000000000E+05,      /* I = 92 */
(PID.TID 0000.0001)                 9.250000000000000E+05,      /* I = 93 */
(PID.TID 0000.0001)                 9.350000000000000E+05,      /* I = 94 */
(PID.TID 0000.0001)                 9.450000000000000E+05,      /* I = 95 */
(PID.TID 0000.0001)                 9.550000000000000E+05,      /* I = 96 */
(PID.TID 0000.0001)                 9.650000000000000E+05,      /* I = 97 */
(PID.TID 0000.0001)                 9.750000000000000E+05,      /* I = 98 */
(PID.TID 0000.0001)                 9.850000000000000E+05,      /* I = 99 */
(PID.TID 0000.0001)                 9.950000000000000E+05,      /* I =100 */
(PID.TID 0000.0001)                 1.005000000000000E+06,      /* I =101 */
(PID.TID 0000.0001)                 1.015000000000000E+06,      /* I =102 */
(PID.TID 0000.0001)                 1.025000000000000E+06,      /* I =103 */
(PID.TID 0000.0001)                 1.035000000000000E+06,      /* I =104 */
(PID.TID 0000.0001)                 1.045000000000000E+06,      /* I =105 */
(PID.TID 0000.0001)                 1.055000000000000E+06,      /* I =106 */
(PID.TID 0000.0001)                 1.065000000000000E+06,      /* I =107 */
(PID.TID 0000.0001)                 1.075000000000000E+06,      /* I =108 */
(PID.TID 0000.0001)                 1.085000000000000E+06,      /* I =109 */
(PID.TID 0000.0001)                 1.095000000000000E+06,      /* I =110 */
(PID.TID 0000.0001)                 1.105000000000000E+06,      /* I =111 */
(PID.TID 0000.0001)                 1.115000000000000E+06,      /* I =112 */
(PID.TID 0000.0001)                 1.125000000000000E+06,      /* I =113 */
(PID.TID 0000.0001)                 1.135000000000000E+06,      /* I =114 */
(PID.TID 0000.0001)                 1.145000000000000E+06,      /* I =115 */
(PID.TID 0000.0001)                 1.155000000000000E+06,      /* I =116 */
(PID.TID 0000.0001)                 1.165000000000000E+06,      /* I =117 */
(PID.TID 0000.0001)                 1.175000000000000E+06,      /* I =118 */
(PID.TID 0000.0001)                 1.185000000000000E+06,      /* I =119 */
(PID.TID 0000.0001)                 1.195000000000000E+06,      /* I =120 */
(PID.TID 0000.0001)                 1.205000000000000E+06,      /* I =121 */
(PID.TID 0000.0001)                 1.215000000000000E+06,      /* I =122 */
(PID.TID 0000.0001)                 1.225000000000000E+06,      /* I =123 */
(PID.TID 0000.0001)                 1.235000000000000E+06,      /* I =124 */
(PID.TID 0000.0001)                 1.245000000000000E+06,      /* I =125 */
(PID.TID 0000.0001)                 1.255000000000000E+06,      /* I =126 */
(PID.TID 0000.0001)                 1.265000000000000E+06,      /* I =127 */
(PID.TID 0000.0001)                 1.275000000000000E+06,      /* I =128 */
(PID.TID 0000.0001)                 1.285000000000000E+06,      /* I =129 */
(PID.TID 0000.0001)                 1.295000000000000E+06,      /* I =130 */
(PID.TID 0000.0001)                 1.305000000000000E+06,      /* I =131 */
(PID.TID 0000.0001)                 1.315000000000000E+06,      /* I =132 */
(PID.TID 0000.0001)                 1.325000000000000E+06,      /* I =133 */
(PID.TID 0000.0001)                 1.335000000000000E+06,      /* I =134 */
(PID.TID 0000.0001)                 1.345000000000000E+06,      /* I =135 */
(PID.TID 0000.0001)                 1.355000000000000E+06,      /* I =136 */
(PID.TID 0000.0001)                 1.365000000000000E+06,      /* I =137 */
(PID.TID 0000.0001)                 1.375000000000000E+06,      /* I =138 */
(PID.TID 0000.0001)                 1.385000000000000E+06,      /* I =139 */
(PID.TID 0000.0001)                 1.395000000000000E+06,      /* I =140 */
(PID.TID 0000.0001)                 1.405000000000000E+06,      /* I =141 */
(PID.TID 0000.0001)                 1.415000000000000E+06,      /* I =142 */
(PID.TID 0000.0001)                 1.425000000000000E+06,      /* I =143 */
(PID.TID 0000.0001)                 1.435000000000000E+06,      /* I =144 */
(PID.TID 0000.0001)                 1.445000000000000E+06,      /* I =145 */
(PID.TID 0000.0001)                 1.455000000000000E+06,      /* I =146 */
(PID.TID 0000.0001)                 1.465000000000000E+06,      /* I =147 */
(PID.TID 0000.0001)                 1.475000000000000E+06,      /* I =148 */
(PID.TID 0000.0001)                 1.485000000000000E+06,      /* I =149 */
(PID.TID 0000.0001)                 1.495000000000000E+06,      /* I =150 */
(PID.TID 0000.0001)                 1.505000000000000E+06,      /* I =151 */
(PID.TID 0000.0001)                 1.515000000000000E+06,      /* I =152 */
(PID.TID 0000.0001)                 1.525000000000000E+06,      /* I =153 */
(PID.TID 0000.0001)                 1.535000000000000E+06,      /* I =154 */
(PID.TID 0000.0001)                 1.545000000000000E+06,      /* I =155 */
(PID.TID 0000.0001)                 1.555000000000000E+06,      /* I =156 */
(PID.TID 0000.0001)                 1.565000000000000E+06,      /* I =157 */
(PID.TID 0000.0001)                 1.575000000000000E+06,      /* I =158 */
(PID.TID 0000.0001)                 1.585000000000000E+06,      /* I =159 */
(PID.TID 0000.0001)                 1.595000000000000E+06,      /* I =160 */
(PID.TID 0000.0001)                 1.605000000000000E+06,      /* I =161 */
(PID.TID 0000.0001)                 1.615000000000000E+06,      /* I =162 */
(PID.TID 0000.0001)                 1.625000000000000E+06,      /* I =163 */
(PID.TID 0000.0001)                 1.635000000000000E+06,      /* I =164 */
(PID.TID 0000.0001)                 1.645000000000000E+06,      /* I =165 */
(PID.TID 0000.0001)                 1.655000000000000E+06,      /* I =166 */
(PID.TID 0000.0001)                 1.665000000000000E+06,      /* I =167 */
(PID.TID 0000.0001)                 1.675000000000000E+06,      /* I =168 */
(PID.TID 0000.0001)                 1.685000000000000E+06,      /* I =169 */
(PID.TID 0000.0001)                 1.695000000000000E+06,      /* I =170 */
(PID.TID 0000.0001)                 1.705000000000000E+06,      /* I =171 */
(PID.TID 0000.0001)                 1.715000000000000E+06,      /* I =172 */
(PID.TID 0000.0001)                 1.725000000000000E+06,      /* I =173 */
(PID.TID 0000.0001)                 1.735000000000000E+06,      /* I =174 */
(PID.TID 0000.0001)                 1.745000000000000E+06,      /* I =175 */
(PID.TID 0000.0001)                 1.755000000000000E+06,      /* I =176 */
(PID.TID 0000.0001)                 1.765000000000000E+06,      /* I =177 */
(PID.TID 0000.0001)                 1.775000000000000E+06,      /* I =178 */
(PID.TID 0000.0001)                 1.785000000000000E+06,      /* I =179 */
(PID.TID 0000.0001)                 1.795000000000000E+06,      /* I =180 */
(PID.TID 0000.0001)                 1.805000000000000E+06,      /* I =181 */
(PID.TID 0000.0001)                 1.815000000000000E+06,      /* I =182 */
(PID.TID 0000.0001)                 1.825000000000000E+06,      /* I =183 */
(PID.TID 0000.0001)                 1.835000000000000E+06,      /* I =184 */
(PID.TID 0000.0001)                 1.845000000000000E+06,      /* I =185 */
(PID.TID 0000.0001)                 1.855000000000000E+06,      /* I =186 */
(PID.TID 0000.0001)                 1.865000000000000E+06,      /* I =187 */
(PID.TID 0000.0001)                 1.875000000000000E+06,      /* I =188 */
(PID.TID 0000.0001)                 1.885000000000000E+06,      /* I =189 */
(PID.TID 0000.0001)                 1.895000000000000E+06,      /* I =190 */
(PID.TID 0000.0001)                 1.905000000000000E+06,      /* I =191 */
(PID.TID 0000.0001)                 1.915000000000000E+06,      /* I =192 */
(PID.TID 0000.0001)                 1.925000000000000E+06,      /* I =193 */
(PID.TID 0000.0001)                 1.935000000000000E+06,      /* I =194 */
(PID.TID 0000.0001)                 1.945000000000000E+06,      /* I =195 */
(PID.TID 0000.0001)                 1.955000000000000E+06,      /* I =196 */
(PID.TID 0000.0001)                 1.965000000000000E+06,      /* I =197 */
(PID.TID 0000.0001)                 1.975000000000000E+06,      /* I =198 */
(PID.TID 0000.0001)                 1.985000000000000E+06,      /* I =199 */
(PID.TID 0000.0001)                 1.995000000000000E+06       /* I =200 */
(PID.TID 0000.0001)     ;
(PID.TID 0000.0001) ycoord =   /* P-point Y coord ( m - cartesian, degrees - spherical ) */
(PID.TID 0000.0001)                 2.177385206136404E+04,      /* J =  1 */
(PID.TID 0000.0001)                 6.342934794037614E+04,      /* J =  2 */
(PID.TID 0000.0001)                 1.025372616579589E+05,      /* J =  3 */
(PID.TID 0000.0001)                 1.384144304300052E+05,      /* J =  4 */
(PID.TID 0000.0001)                 1.675564221104375E+05,      /* J =  5 */
(PID.TID 0000.0001)                 1.892992540974945E+05,      /* J =  6 */
(PID.TID 0000.0001)                 2.059356977504968E+05,      /* J =  7 */
(PID.TID 0000.0001)                 2.196843119709841E+05,      /* J =  8 */
(PID.TID 0000.0001)                 2.318441705120472E+05,      /* J =  9 */
(PID.TID 0000.0001)                 2.431112168150248E+05,      /* J = 10 */
(PID.TID 0000.0001)                 2.538637094961760E+05,      /* J = 11 */
(PID.TID 0000.0001)                 2.643142240014882E+05,      /* J = 12 */
(PID.TID 0000.0001)                 2.745853341928977E+05,      /* J = 13 */
(PID.TID 0000.0001)                 2.847489674121566E+05,      /* J = 14 */
(PID.TID 0000.0001)                 2.948479168120248E+05,      /* J = 15 */
(PID.TID 0000.0001)                 3.049078217898763E+05,      /* J = 16 */
(PID.TID 0000.0001)                 3.149441150281806E+05,      /* J = 17 */
(PID.TID 0000.0001)                 3.249661128781913E+05,      /* J = 18 */
(PID.TID 0000.0001)                 3.349794496802689E+05,      /* J = 19 */
(PID.TID 0000.0001)                 3.449875368090994E+05,      /* J = 20 */
(PID.TID 0000.0001)                 3.549924411458817E+05,      /* J = 21 */
(PID.TID 0000.0001)                 3.649954154987283E+05,      /* J = 22 */
(PID.TID 0000.0001)                 3.749972194327113E+05,      /* J = 23 */
(PID.TID 0000.0001)                 3.849983135363735E+05,      /* J = 24 */
(PID.TID 0000.0001)                 3.949989771299538E+05,      /* J = 25 */
(PID.TID 0000.0001)                 4.049993796147157E+05,      /* J = 26 */
(PID.TID 0000.0001)                 4.149996237321913E+05,      /* J = 27 */
(PID.TID 0000.0001)                 4.249997717962359E+05,      /* J = 28 */
(PID.TID 0000.0001)                 4.349998616013651E+05,      /* J = 29 */
(PID.TID 0000.0001)                 4.449999160708361E+05,      /* J = 30 */
(PID.TID 0000.0001)                 4.549999491082059E+05,      /* J = 31 */
(PID.TID 0000.0001)                 4.649999691463710E+05,      /* J = 32 */
(PID.TID 0000.0001)                 4.749999813001279E+05,      /* J = 33 */
(PID.TID 0000.0001)                 4.849999886717524E+05,      /* J = 34 */
(PID.TID 0000.0001)                 4.949999931428680E+05,      /* J = 35 */
(PID.TID 0000.0001)                 5.049999958547364E+05,      /* J = 36 */
(PID.TID 0000.0001)                 5.149999974995677E+05,      /* J = 37 */
(PID.TID 0000.0001)                 5.249999984972083E+05,      /* J = 38 */
(PID.TID 0000.0001)                 5.349999991023079E+05,      /* J = 39 */
(PID.TID 0000.0001)                 5.449999994693194E+05,      /* J = 40 */
(PID.TID 0000.0001)                 5.549999996919231E+05,      /* J = 41 */
(PID.TID 0000.0001)                 5.649999998269391E+05,      /* J = 42 */
(PID.TID 0000.0001)                 5.749999999088305E+05,      /* J = 43 */
(PID.TID 0000.0001)                 5.849999999585000E+05,      /* J = 44 */
(PID.TID 0000.0001)                 5.949999999886262E+05       /* J = 45 */
(PID.TID 0000.0001)     ;
(PID.TID 0000.0001) rcoord =   /* P-point R coordinate (  units of r ) */
(PID.TID 0000.0001)                -7.200000000000000E+01,      /* K =  1 */
(PID.TID 0000.0001)                -2.160000000000000E+02,      /* K =  2 */
(PID.TID 0000.0001)                -3.600000000000000E+02,      /* K =  3 */
(PID.TID 0000.0001)                -5.040000000000000E+02,      /* K =  4 */
(PID.TID 0000.0001)                -6.480000000000000E+02,      /* K =  5 */
(PID.TID 0000.0001)                -7.920000000000000E+02,      /* K =  6 */
(PID.TID 0000.0001)                -9.360000000000000E+02,      /* K =  7 */
(PID.TID 0000.0001)                -1.080000000000000E+03,      /* K =  8 */
(PID.TID 0000.0001)                -1.224000000000000E+03,      /* K =  9 */
(PID.TID 0000.0001)                -1.368000000000000E+03,      /* K = 10 */
(PID.TID 0000.0001)                -1.512000000000000E+03,      /* K = 11 */
(PID.TID 0000.0001)                -1.656000000000000E+03,      /* K = 12 */
(PID.TID 0000.0001)                -1.800000000000000E+03,      /* K = 13 */
(PID.TID 0000.0001)                -1.944000000000000E+03,      /* K = 14 */
(PID.TID 0000.0001)                -2.088000000000000E+03,      /* K = 15 */
(PID.TID 0000.0001)                -2.232000000000000E+03,      /* K = 16 */
(PID.TID 0000.0001)                -2.376000000000000E+03,      /* K = 17 */
(PID.TID 0000.0001)                -2.520000000000000E+03,      /* K = 18 */
(PID.TID 0000.0001)                -2.664000000000000E+03,      /* K = 19 */
(PID.TID 0000.0001)                -2.808000000000000E+03,      /* K = 20 */
(PID.TID 0000.0001)                -2.952000000000000E+03,      /* K = 21 */
(PID.TID 0000.0001)                -3.096000000000000E+03,      /* K = 22 */
(PID.TID 0000.0001)                -3.240000000000000E+03,      /* K = 23 */
(PID.TID 0000.0001)                -3.384000000000000E+03,      /* K = 24 */
(PID.TID 0000.0001)                -3.528000000000000E+03       /* K = 25 */
(PID.TID 0000.0001)     ;
(PID.TID 0000.0001) rF =   /* W-Interf. R coordinate (  units of r ) */
(PID.TID 0000.0001)                 0.000000000000000E+00,      /* K =  1 */
(PID.TID 0000.0001)                -1.440000000000000E+02,      /* K =  2 */
(PID.TID 0000.0001)                -2.880000000000000E+02,      /* K =  3 */
(PID.TID 0000.0001)                -4.320000000000000E+02,      /* K =  4 */
(PID.TID 0000.0001)                -5.760000000000000E+02,      /* K =  5 */
(PID.TID 0000.0001)                -7.200000000000000E+02,      /* K =  6 */
(PID.TID 0000.0001)                -8.640000000000000E+02,      /* K =  7 */
(PID.TID 0000.0001)                -1.008000000000000E+03,      /* K =  8 */
(PID.TID 0000.0001)                -1.152000000000000E+03,      /* K =  9 */
(PID.TID 0000.0001)                -1.296000000000000E+03,      /* K = 10 */
(PID.TID 0000.0001)                -1.440000000000000E+03,      /* K = 11 */
(PID.TID 0000.0001)                -1.584000000000000E+03,      /* K = 12 */
(PID.TID 0000.0001)                -1.728000000000000E+03,      /* K = 13 */
(PID.TID 0000.0001)                -1.872000000000000E+03,      /* K = 14 */
(PID.TID 0000.0001)                -2.016000000000000E+03,      /* K = 15 */
(PID.TID 0000.0001)                -2.160000000000000E+03,      /* K = 16 */
(PID.TID 0000.0001)                -2.304000000000000E+03,      /* K = 17 */
(PID.TID 0000.0001)                -2.448000000000000E+03,      /* K = 18 */
(PID.TID 0000.0001)                -2.592000000000000E+03,      /* K = 19 */
(PID.TID 0000.0001)                -2.736000000000000E+03,      /* K = 20 */
(PID.TID 0000.0001)                -2.880000000000000E+03,      /* K = 21 */
(PID.TID 0000.0001)                -3.024000000000000E+03,      /* K = 22 */
(PID.TID 0000.0001)                -3.168000000000000E+03,      /* K = 23 */
(PID.TID 0000.0001)                -3.312000000000000E+03,      /* K = 24 */
(PID.TID 0000.0001)                -3.456000000000000E+03,      /* K = 25 */
(PID.TID 0000.0001)                -3.600000000000000E+03       /* K = 26 */
(PID.TID 0000.0001)     ;
(PID.TID 0000.0001) dxF =  /* dxF(:,1,:,1) ( m - cartesian, degrees - spherical ) */
(PID.TID 0000.0001)   200 @  1.000000000000000E+04              /* I =  1:200 */
(PID.TID 0000.0001)     ;
(PID.TID 0000.0001) dxF =  /* dxF(1,:,1,:) ( m - cartesian, degrees - spherical ) */
(PID.TID 0000.0001)    45 @  1.000000000000000E+04              /* J =  1: 45 */
(PID.TID 0000.0001)     ;
(PID.TID 0000.0001) dyF =  /* dyF(:,1,:,1) ( m - cartesian, degrees - spherical ) */
(PID.TID 0000.0001)   200 @  4.354770412272808E+04              /* I =  1:200 */
(PID.TID 0000.0001)     ;
(PID.TID 0000.0001) dyF =  /* dyF(1,:,1,:) ( m - cartesian, degrees - spherical ) */
(PID.TID 0000.0001)                 4.354770412272808E+04,      /* J =  1 */
(PID.TID 0000.0001)                 3.976328763529614E+04,      /* J =  2 */
(PID.TID 0000.0001)                 3.845253979986927E+04,      /* J =  3 */
(PID.TID 0000.0001)                 3.330179774422351E+04,      /* J =  4 */
(PID.TID 0000.0001)                 2.498218561664100E+04,      /* J =  5 */
(PID.TID 0000.0001)                 1.850347835747289E+04,      /* J =  6 */
(PID.TID 0000.0001)                 1.476940894853175E+04,      /* J =  7 */
(PID.TID 0000.0001)                 1.272781949244290E+04,      /* J =  8 */
(PID.TID 0000.0001)                 1.159189758968330E+04,      /* J =  9 */
(PID.TID 0000.0001)                 1.094219501627191E+04,      /* J = 10 */
(PID.TID 0000.0001)                 1.056279034603045E+04,      /* J = 11 */
(PID.TID 0000.0001)                 1.033823866459392E+04,      /* J = 12 */
(PID.TID 0000.0001)                 1.020398171822501E+04,      /* J = 13 */
(PID.TID 0000.0001)                 1.012328472029299E+04,      /* J = 14 */
(PID.TID 0000.0001)                 1.007461407944328E+04,      /* J = 15 */
(PID.TID 0000.0001)                 1.004519587625975E+04,      /* J = 16 */
(PID.TID 0000.0001)                 1.002739060034890E+04,      /* J = 17 */
(PID.TID 0000.0001)                 1.001660509967246E+04,      /* J = 18 */
(PID.TID 0000.0001)                 1.001006850448283E+04,      /* J = 19 */
(PID.TID 0000.0001)                 1.000610575317793E+04,      /* J = 20 */
(PID.TID 0000.0001)                 1.000370292038679E+04,      /* J = 21 */
(PID.TID 0000.0001)                 1.000224578530626E+04,      /* J = 22 */
(PID.TID 0000.0001)                 1.000136208265968E+04,      /* J = 23 */
(PID.TID 0000.0001)                 1.000082612466494E+04,      /* J = 24 */
(PID.TID 0000.0001)                 1.000050106249572E+04,      /* J = 25 */
(PID.TID 0000.0001)                 1.000030390702810E+04,      /* J = 26 */
(PID.TID 0000.0001)                 1.000018432792299E+04,      /* J = 27 */
(PID.TID 0000.0001)                 1.000011180016617E+04,      /* J = 28 */
(PID.TID 0000.0001)                 1.000006781009222E+04,      /* J = 29 */
(PID.TID 0000.0001)                 1.000004112884983E+04,      /* J = 30 */
(PID.TID 0000.0001)                 1.000002494588998E+04,      /* J = 31 */
(PID.TID 0000.0001)                 1.000001513044032E+04,      /* J = 32 */
(PID.TID 0000.0001)                 1.000000917707345E+04,      /* J = 33 */
(PID.TID 0000.0001)                 1.000000556617549E+04,      /* J = 34 */
(PID.TID 0000.0001)                 1.000000337605576E+04,      /* J = 35 */
(PID.TID 0000.0001)                 1.000000204768121E+04,      /* J = 36 */
(PID.TID 0000.0001)                 1.000000124198138E+04,      /* J = 37 */
(PID.TID 0000.0001)                 1.000000075329977E+04,      /* J = 38 */
(PID.TID 0000.0001)                 1.000000045689940E+04,      /* J = 39 */
(PID.TID 0000.0001)                 1.000000027712349E+04,      /* J = 40 */
(PID.TID 0000.0001)                 1.000000016808389E+04,      /* J = 41 */
(PID.TID 0000.0001)                 1.000000010194804E+04,      /* J = 42 */
(PID.TID 0000.0001)                 1.000000006183461E+04,      /* J = 43 */
(PID.TID 0000.0001)                 1.000000003750459E+04,      /* J = 44 */
(PID.TID 0000.0001)                 1.000000002274768E+04       /* J = 45 */
(PID.TID 0000.0001)     ;
(PID.TID 0000.0001) dxG =  /* dxG(:,1,:,1) ( m - cartesian, degrees - spherical ) */
(PID.TID 0000.0001)   200 @  1.000000000000000E+04              /* I =  1:200 */
(PID.TID 0000.0001)     ;
(PID.TID 0000.0001) dxG =  /* dxG(1,:,1,:) ( m - cartesian, degrees - spherical ) */
(PID.TID 0000.0001)    45 @  1.000000000000000E+04              /* J =  1: 45 */
(PID.TID 0000.0001)     ;
(PID.TID 0000.0001) dyG =  /* dyG(:,1,:,1) ( m - cartesian, degrees - spherical ) */
(PID.TID 0000.0001)   200 @  4.354770412272808E+04              /* I =  1:200 */
(PID.TID 0000.0001)     ;
(PID.TID 0000.0001) dyG =  /* dyG(1,:,1,:) ( m - cartesian, degrees - spherical ) */
(PID.TID 0000.0001)                 4.354770412272808E+04,      /* J =  1 */
(PID.TID 0000.0001)                 3.976328763529614E+04,      /* J =  2 */
(PID.TID 0000.0001)                 3.845253979986927E+04,      /* J =  3 */
(PID.TID 0000.0001)                 3.330179774422351E+04,      /* J =  4 */
(PID.TID 0000.0001)                 2.498218561664100E+04,      /* J =  5 */
(PID.TID 0000.0001)                 1.850347835747289E+04,      /* J =  6 */
(PID.TID 0000.0001)                 1.476940894853175E+04,      /* J =  7 */
(PID.TID 0000.0001)                 1.272781949244290E+04,      /* J =  8 */
(PID.TID 0000.0001)                 1.159189758968330E+04,      /* J =  9 */
(PID.TID 0000.0001)                 1.094219501627191E+04,      /* J = 10 */
(PID.TID 0000.0001)                 1.056279034603045E+04,      /* J = 11 */
(PID.TID 0000.0001)                 1.033823866459392E+04,      /* J = 12 */
(PID.TID 0000.0001)                 1.020398171822501E+04,      /* J = 13 */
(PID.TID 0000.0001)                 1.012328472029299E+04,      /* J = 14 */
(PID.TID 0000.0001)                 1.007461407944328E+04,      /* J = 15 */
(PID.TID 0000.0001)                 1.004519587625975E+04,      /* J = 16 */
(PID.TID 0000.0001)                 1.002739060034890E+04,      /* J = 17 */
(PID.TID 0000.0001)                 1.001660509967246E+04,      /* J = 18 */
(PID.TID 0000.0001)                 1.001006850448283E+04,      /* J = 19 */
(PID.TID 0000.0001)                 1.000610575317793E+04,      /* J = 20 */
(PID.TID 0000.0001)                 1.000370292038679E+04,      /* J = 21 */
(PID.TID 0000.0001)                 1.000224578530626E+04,      /* J = 22 */
(PID.TID 0000.0001)                 1.000136208265968E+04,      /* J = 23 */
(PID.TID 0000.0001)                 1.000082612466494E+04,      /* J = 24 */
(PID.TID 0000.0001)                 1.000050106249572E+04,      /* J = 25 */
(PID.TID 0000.0001)                 1.000030390702810E+04,      /* J = 26 */
(PID.TID 0000.0001)                 1.000018432792299E+04,      /* J = 27 */
(PID.TID 0000.0001)                 1.000011180016617E+04,      /* J = 28 */
(PID.TID 0000.0001)                 1.000006781009222E+04,      /* J = 29 */
(PID.TID 0000.0001)                 1.000004112884983E+04,      /* J = 30 */
(PID.TID 0000.0001)                 1.000002494588998E+04,      /* J = 31 */
(PID.TID 0000.0001)                 1.000001513044032E+04,      /* J = 32 */
(PID.TID 0000.0001)                 1.000000917707345E+04,      /* J = 33 */
(PID.TID 0000.0001)                 1.000000556617549E+04,      /* J = 34 */
(PID.TID 0000.0001)                 1.000000337605576E+04,      /* J = 35 */
(PID.TID 0000.0001)                 1.000000204768121E+04,      /* J = 36 */
(PID.TID 0000.0001)                 1.000000124198138E+04,      /* J = 37 */
(PID.TID 0000.0001)                 1.000000075329977E+04,      /* J = 38 */
(PID.TID 0000.0001)                 1.000000045689940E+04,      /* J = 39 */
(PID.TID 0000.0001)                 1.000000027712349E+04,      /* J = 40 */
(PID.TID 0000.0001)                 1.000000016808389E+04,      /* J = 41 */
(PID.TID 0000.0001)                 1.000000010194804E+04,      /* J = 42 */
(PID.TID 0000.0001)                 1.000000006183461E+04,      /* J = 43 */
(PID.TID 0000.0001)                 1.000000003750459E+04,      /* J = 44 */
(PID.TID 0000.0001)                 1.000000002274768E+04       /* J = 45 */
(PID.TID 0000.0001)     ;
(PID.TID 0000.0001) dxC =  /* dxC(:,1,:,1) ( m - cartesian, degrees - spherical ) */
(PID.TID 0000.0001)   200 @  1.000000000000000E+04              /* I =  1:200 */
(PID.TID 0000.0001)     ;
(PID.TID 0000.0001) dxC =  /* dxC(1,:,1,:) ( m - cartesian, degrees - spherical ) */
(PID.TID 0000.0001)    45 @  1.000000000000000E+04              /* J =  1: 45 */
(PID.TID 0000.0001)     ;
(PID.TID 0000.0001) dyC =  /* dyC(:,1,:,1) ( m - cartesian, degrees - spherical ) */
(PID.TID 0000.0001)   200 @  2.677385207273788E+04              /* I =  1:200 */
(PID.TID 0000.0001)     ;
(PID.TID 0000.0001) dyC =  /* dyC(1,:,1,:) ( m - cartesian, degrees - spherical ) */
(PID.TID 0000.0001)                 2.677385207273788E+04,      /* J =  1 */
(PID.TID 0000.0001)                 4.165549587901211E+04,      /* J =  2 */
(PID.TID 0000.0001)                 3.910791371758271E+04,      /* J =  3 */
(PID.TID 0000.0001)                 3.587716877204639E+04,      /* J =  4 */
(PID.TID 0000.0001)                 2.914199168043226E+04,      /* J =  5 */
(PID.TID 0000.0001)                 2.174283198705695E+04,      /* J =  6 */
(PID.TID 0000.0001)                 1.663644365300232E+04,      /* J =  7 */
(PID.TID 0000.0001)                 1.374861422048732E+04,      /* J =  8 */
(PID.TID 0000.0001)                 1.215985854106310E+04,      /* J =  9 */
(PID.TID 0000.0001)                 1.126704630297760E+04,      /* J = 10 */
(PID.TID 0000.0001)                 1.075249268115118E+04,      /* J = 11 */
(PID.TID 0000.0001)                 1.045051450531219E+04,      /* J = 12 */
(PID.TID 0000.0001)                 1.027111019140946E+04,      /* J = 13 */
(PID.TID 0000.0001)                 1.016363321925900E+04,      /* J = 14 */
(PID.TID 0000.0001)                 1.009894939986813E+04,      /* J = 15 */
(PID.TID 0000.0001)                 1.005990497785152E+04,      /* J = 16 */
(PID.TID 0000.0001)                 1.003629323830432E+04,      /* J = 17 */
(PID.TID 0000.0001)                 1.002199785001068E+04,      /* J = 18 */
(PID.TID 0000.0001)                 1.001333680207765E+04,      /* J = 19 */
(PID.TID 0000.0001)                 1.000808712883038E+04,      /* J = 20 */
(PID.TID 0000.0001)                 1.000490433678236E+04,      /* J = 21 */
(PID.TID 0000.0001)                 1.000297435284652E+04,      /* J = 22 */
(PID.TID 0000.0001)                 1.000180393398297E+04,      /* J = 23 */
(PID.TID 0000.0001)                 1.000109410366231E+04,      /* J = 24 */
(PID.TID 0000.0001)                 1.000066359358033E+04,      /* J = 25 */
(PID.TID 0000.0001)                 1.000040248476191E+04,      /* J = 26 */
(PID.TID 0000.0001)                 1.000024411747555E+04,      /* J = 27 */
(PID.TID 0000.0001)                 1.000014806404458E+04,      /* J = 28 */
(PID.TID 0000.0001)                 1.000008980512919E+04,      /* J = 29 */
(PID.TID 0000.0001)                 1.000005446947102E+04,      /* J = 30 */
(PID.TID 0000.0001)                 1.000003303736990E+04,      /* J = 31 */
(PID.TID 0000.0001)                 1.000002003816515E+04,      /* J = 32 */
(PID.TID 0000.0001)                 1.000001215375688E+04,      /* J = 33 */
(PID.TID 0000.0001)                 1.000000737162447E+04,      /* J = 34 */
(PID.TID 0000.0001)                 1.000000447111562E+04,      /* J = 35 */
(PID.TID 0000.0001)                 1.000000271186848E+04,      /* J = 36 */
(PID.TID 0000.0001)                 1.000000164483129E+04,      /* J = 37 */
(PID.TID 0000.0001)                 1.000000099764058E+04,      /* J = 38 */
(PID.TID 0000.0001)                 1.000000060509959E+04,      /* J = 39 */
(PID.TID 0000.0001)                 1.000000036701145E+04,      /* J = 40 */
(PID.TID 0000.0001)                 1.000000022260369E+04,      /* J = 41 */
(PID.TID 0000.0001)                 1.000000013501597E+04,      /* J = 42 */
(PID.TID 0000.0001)                 1.000000008189132E+04,      /* J = 43 */
(PID.TID 0000.0001)                 1.000000004966960E+04,      /* J = 44 */
(PID.TID 0000.0001)                 1.000000003012614E+04       /* J = 45 */
(PID.TID 0000.0001)     ;
(PID.TID 0000.0001) dxV =  /* dxV(:,1,:,1) ( m - cartesian, degrees - spherical ) */
(PID.TID 0000.0001)   200 @  1.000000000000000E+04              /* I =  1:200 */
(PID.TID 0000.0001)     ;
(PID.TID 0000.0001) dxV =  /* dxV(1,:,1,:) ( m - cartesian, degrees - spherical ) */
(PID.TID 0000.0001)    45 @  1.000000000000000E+04              /* J =  1: 45 */
(PID.TID 0000.0001)     ;
(PID.TID 0000.0001) dyU =  /* dyU(:,1,:,1) ( m - cartesian, degrees - spherical ) */
(PID.TID 0000.0001)   200 @  2.677385207273788E+04              /* I =  1:200 */
(PID.TID 0000.0001)     ;
(PID.TID 0000.0001) dyU =  /* dyU(1,:,1,:) ( m - cartesian, degrees - spherical ) */
(PID.TID 0000.0001)                 2.677385207273788E+04,      /* J =  1 */
(PID.TID 0000.0001)                 4.165549587901211E+04,      /* J =  2 */
(PID.TID 0000.0001)                 3.910791371758271E+04,      /* J =  3 */
(PID.TID 0000.0001)                 3.587716877204639E+04,      /* J =  4 */
(PID.TID 0000.0001)                 2.914199168043226E+04,      /* J =  5 */
(PID.TID 0000.0001)                 2.174283198705695E+04,      /* J =  6 */
(PID.TID 0000.0001)                 1.663644365300232E+04,      /* J =  7 */
(PID.TID 0000.0001)                 1.374861422048732E+04,      /* J =  8 */
(PID.TID 0000.0001)                 1.215985854106310E+04,      /* J =  9 */
(PID.TID 0000.0001)                 1.126704630297760E+04,      /* J = 10 */
(PID.TID 0000.0001)                 1.075249268115118E+04,      /* J = 11 */
(PID.TID 0000.0001)                 1.045051450531219E+04,      /* J = 12 */
(PID.TID 0000.0001)                 1.027111019140946E+04,      /* J = 13 */
(PID.TID 0000.0001)                 1.016363321925900E+04,      /* J = 14 */
(PID.TID 0000.0001)                 1.009894939986813E+04,      /* J = 15 */
(PID.TID 0000.0001)                 1.005990497785152E+04,      /* J = 16 */
(PID.TID 0000.0001)                 1.003629323830432E+04,      /* J = 17 */
(PID.TID 0000.0001)                 1.002199785001068E+04,      /* J = 18 */
(PID.TID 0000.0001)                 1.001333680207765E+04,      /* J = 19 */
(PID.TID 0000.0001)                 1.000808712883038E+04,      /* J = 20 */
(PID.TID 0000.0001)                 1.000490433678236E+04,      /* J = 21 */
(PID.TID 0000.0001)                 1.000297435284652E+04,      /* J = 22 */
(PID.TID 0000.0001)                 1.000180393398297E+04,      /* J = 23 */
(PID.TID 0000.0001)                 1.000109410366231E+04,      /* J = 24 */
(PID.TID 0000.0001)                 1.000066359358033E+04,      /* J = 25 */
(PID.TID 0000.0001)                 1.000040248476191E+04,      /* J = 26 */
(PID.TID 0000.0001)                 1.000024411747555E+04,      /* J = 27 */
(PID.TID 0000.0001)                 1.000014806404458E+04,      /* J = 28 */
(PID.TID 0000.0001)                 1.000008980512919E+04,      /* J = 29 */
(PID.TID 0000.0001)                 1.000005446947102E+04,      /* J = 30 */
(PID.TID 0000.0001)                 1.000003303736990E+04,      /* J = 31 */
(PID.TID 0000.0001)                 1.000002003816515E+04,      /* J = 32 */
(PID.TID 0000.0001)                 1.000001215375688E+04,      /* J = 33 */
(PID.TID 0000.0001)                 1.000000737162447E+04,      /* J = 34 */
(PID.TID 0000.0001)                 1.000000447111562E+04,      /* J = 35 */
(PID.TID 0000.0001)                 1.000000271186848E+04,      /* J = 36 */
(PID.TID 0000.0001)                 1.000000164483129E+04,      /* J = 37 */
(PID.TID 0000.0001)                 1.000000099764058E+04,      /* J = 38 */
(PID.TID 0000.0001)                 1.000000060509959E+04,      /* J = 39 */
(PID.TID 0000.0001)                 1.000000036701145E+04,      /* J = 40 */
(PID.TID 0000.0001)                 1.000000022260369E+04,      /* J = 41 */
(PID.TID 0000.0001)                 1.000000013501597E+04,      /* J = 42 */
(PID.TID 0000.0001)                 1.000000008189132E+04,      /* J = 43 */
(PID.TID 0000.0001)                 1.000000004966960E+04,      /* J = 44 */
(PID.TID 0000.0001)                 1.000000003012614E+04       /* J = 45 */
(PID.TID 0000.0001)     ;
(PID.TID 0000.0001) rA =  /* rA(:,1,:,1) ( m - cartesian, degrees - spherical ) */
(PID.TID 0000.0001)   200 @  4.354770412272808E+08              /* I =  1:200 */
(PID.TID 0000.0001)     ;
(PID.TID 0000.0001) rA =  /* rA(1,:,1,:) ( m - cartesian, degrees - spherical ) */
(PID.TID 0000.0001)                 4.354770412272808E+08,      /* J =  1 */
(PID.TID 0000.0001)                 3.976328763529614E+08,      /* J =  2 */
(PID.TID 0000.0001)                 3.845253979986927E+08,      /* J =  3 */
(PID.TID 0000.0001)                 3.330179774422351E+08,      /* J =  4 */
(PID.TID 0000.0001)                 2.498218561664100E+08,      /* J =  5 */
(PID.TID 0000.0001)                 1.850347835747289E+08,      /* J =  6 */
(PID.TID 0000.0001)                 1.476940894853175E+08,      /* J =  7 */
(PID.TID 0000.0001)                 1.272781949244290E+08,      /* J =  8 */
(PID.TID 0000.0001)                 1.159189758968330E+08,      /* J =  9 */
(PID.TID 0000.0001)                 1.094219501627191E+08,      /* J = 10 */
(PID.TID 0000.0001)                 1.056279034603045E+08,      /* J = 11 */
(PID.TID 0000.0001)                 1.033823866459392E+08,      /* J = 12 */
(PID.TID 0000.0001)                 1.020398171822501E+08,      /* J = 13 */
(PID.TID 0000.0001)                 1.012328472029299E+08,      /* J = 14 */
(PID.TID 0000.0001)                 1.007461407944328E+08,      /* J = 15 */
(PID.TID 0000.0001)                 1.004519587625975E+08,      /* J = 16 */
(PID.TID 0000.0001)                 1.002739060034890E+08,      /* J = 17 */
(PID.TID 0000.0001)                 1.001660509967246E+08,      /* J = 18 */
(PID.TID 0000.0001)                 1.001006850448283E+08,      /* J = 19 */
(PID.TID 0000.0001)                 1.000610575317793E+08,      /* J = 20 */
(PID.TID 0000.0001)                 1.000370292038679E+08,      /* J = 21 */
(PID.TID 0000.0001)                 1.000224578530626E+08,      /* J = 22 */
(PID.TID 0000.0001)                 1.000136208265968E+08,      /* J = 23 */
(PID.TID 0000.0001)                 1.000082612466494E+08,      /* J = 24 */
(PID.TID 0000.0001)                 1.000050106249572E+08,      /* J = 25 */
(PID.TID 0000.0001)                 1.000030390702810E+08,      /* J = 26 */
(PID.TID 0000.0001)                 1.000018432792299E+08,      /* J = 27 */
(PID.TID 0000.0001)                 1.000011180016617E+08,      /* J = 28 */
(PID.TID 0000.0001)                 1.000006781009222E+08,      /* J = 29 */
(PID.TID 0000.0001)                 1.000004112884983E+08,      /* J = 30 */
(PID.TID 0000.0001)                 1.000002494588998E+08,      /* J = 31 */
(PID.TID 0000.0001)                 1.000001513044032E+08,      /* J = 32 */
(PID.TID 0000.0001)                 1.000000917707345E+08,      /* J = 33 */
(PID.TID 0000.0001)                 1.000000556617549E+08,      /* J = 34 */
(PID.TID 0000.0001)                 1.000000337605576E+08,      /* J = 35 */
(PID.TID 0000.0001)                 1.000000204768121E+08,      /* J = 36 */
(PID.TID 0000.0001)                 1.000000124198138E+08,      /* J = 37 */
(PID.TID 0000.0001)                 1.000000075329977E+08,      /* J = 38 */
(PID.TID 0000.0001)                 1.000000045689940E+08,      /* J = 39 */
(PID.TID 0000.0001)                 1.000000027712349E+08,      /* J = 40 */
(PID.TID 0000.0001)                 1.000000016808389E+08,      /* J = 41 */
(PID.TID 0000.0001)                 1.000000010194803E+08,      /* J = 42 */
(PID.TID 0000.0001)                 1.000000006183461E+08,      /* J = 43 */
(PID.TID 0000.0001)                 1.000000003750459E+08,      /* J = 44 */
(PID.TID 0000.0001)                 1.000000002274768E+08       /* J = 45 */
(PID.TID 0000.0001)     ;
(PID.TID 0000.0001) rAw =  /* rAw(:,1,:,1) ( m - cartesian, degrees - spherical ) */
(PID.TID 0000.0001)   200 @  4.354770412272808E+08              /* I =  1:200 */
(PID.TID 0000.0001)     ;
(PID.TID 0000.0001) rAw =  /* rAw(1,:,1,:) ( m - cartesian, degrees - spherical ) */
(PID.TID 0000.0001)                 4.354770412272808E+08,      /* J =  1 */
(PID.TID 0000.0001)                 3.976328763529614E+08,      /* J =  2 */
(PID.TID 0000.0001)                 3.845253979986927E+08,      /* J =  3 */
(PID.TID 0000.0001)                 3.330179774422351E+08,      /* J =  4 */
(PID.TID 0000.0001)                 2.498218561664100E+08,      /* J =  5 */
(PID.TID 0000.0001)                 1.850347835747289E+08,      /* J =  6 */
(PID.TID 0000.0001)                 1.476940894853175E+08,      /* J =  7 */
(PID.TID 0000.0001)                 1.272781949244290E+08,      /* J =  8 */
(PID.TID 0000.0001)                 1.159189758968330E+08,      /* J =  9 */
(PID.TID 0000.0001)                 1.094219501627191E+08,      /* J = 10 */
(PID.TID 0000.0001)                 1.056279034603045E+08,      /* J = 11 */
(PID.TID 0000.0001)                 1.033823866459392E+08,      /* J = 12 */
(PID.TID 0000.0001)                 1.020398171822501E+08,      /* J = 13 */
(PID.TID 0000.0001)                 1.012328472029299E+08,      /* J = 14 */
(PID.TID 0000.0001)                 1.007461407944328E+08,      /* J = 15 */
(PID.TID 0000.0001)                 1.004519587625975E+08,      /* J = 16 */
(PID.TID 0000.0001)                 1.002739060034890E+08,      /* J = 17 */
(PID.TID 0000.0001)                 1.001660509967246E+08,      /* J = 18 */
(PID.TID 0000.0001)                 1.001006850448283E+08,      /* J = 19 */
(PID.TID 0000.0001)                 1.000610575317793E+08,      /* J = 20 */
(PID.TID 0000.0001)                 1.000370292038679E+08,      /* J = 21 */
(PID.TID 0000.0001)                 1.000224578530626E+08,      /* J = 22 */
(PID.TID 0000.0001)                 1.000136208265968E+08,      /* J = 23 */
(PID.TID 0000.0001)                 1.000082612466494E+08,      /* J = 24 */
(PID.TID 0000.0001)                 1.000050106249572E+08,      /* J = 25 */
(PID.TID 0000.0001)                 1.000030390702810E+08,      /* J = 26 */
(PID.TID 0000.0001)                 1.000018432792299E+08,      /* J = 27 */
(PID.TID 0000.0001)                 1.000011180016617E+08,      /* J = 28 */
(PID.TID 0000.0001)                 1.000006781009222E+08,      /* J = 29 */
(PID.TID 0000.0001)                 1.000004112884983E+08,      /* J = 30 */
(PID.TID 0000.0001)                 1.000002494588998E+08,      /* J = 31 */
(PID.TID 0000.0001)                 1.000001513044032E+08,      /* J = 32 */
(PID.TID 0000.0001)                 1.000000917707345E+08,      /* J = 33 */
(PID.TID 0000.0001)                 1.000000556617549E+08,      /* J = 34 */
(PID.TID 0000.0001)                 1.000000337605576E+08,      /* J = 35 */
(PID.TID 0000.0001)                 1.000000204768121E+08,      /* J = 36 */
(PID.TID 0000.0001)                 1.000000124198138E+08,      /* J = 37 */
(PID.TID 0000.0001)                 1.000000075329977E+08,      /* J = 38 */
(PID.TID 0000.0001)                 1.000000045689940E+08,      /* J = 39 */
(PID.TID 0000.0001)                 1.000000027712349E+08,      /* J = 40 */
(PID.TID 0000.0001)                 1.000000016808389E+08,      /* J = 41 */
(PID.TID 0000.0001)                 1.000000010194803E+08,      /* J = 42 */
(PID.TID 0000.0001)                 1.000000006183461E+08,      /* J = 43 */
(PID.TID 0000.0001)                 1.000000003750459E+08,      /* J = 44 */
(PID.TID 0000.0001)                 1.000000002274768E+08       /* J = 45 */
(PID.TID 0000.0001)     ;
(PID.TID 0000.0001) rAs =  /* rAs(:,1,:,1) ( m - cartesian, degrees - spherical ) */
(PID.TID 0000.0001)   200 @  2.677385207273788E+08              /* I =  1:200 */
(PID.TID 0000.0001)     ;
(PID.TID 0000.0001) rAs =  /* rAs(1,:,1,:) ( m - cartesian, degrees - spherical ) */
(PID.TID 0000.0001)                 2.677385207273788E+08,      /* J =  1 */
(PID.TID 0000.0001)                 4.165549587901211E+08,      /* J =  2 */
(PID.TID 0000.0001)                 3.910791371758270E+08,      /* J =  3 */
(PID.TID 0000.0001)                 3.587716877204639E+08,      /* J =  4 */
(PID.TID 0000.0001)                 2.914199168043225E+08,      /* J =  5 */
(PID.TID 0000.0001)                 2.174283198705695E+08,      /* J =  6 */
(PID.TID 0000.0001)                 1.663644365300232E+08,      /* J =  7 */
(PID.TID 0000.0001)                 1.374861422048733E+08,      /* J =  8 */
(PID.TID 0000.0001)                 1.215985854106310E+08,      /* J =  9 */
(PID.TID 0000.0001)                 1.126704630297760E+08,      /* J = 10 */
(PID.TID 0000.0001)                 1.075249268115118E+08,      /* J = 11 */
(PID.TID 0000.0001)                 1.045051450531218E+08,      /* J = 12 */
(PID.TID 0000.0001)                 1.027111019140946E+08,      /* J = 13 */
(PID.TID 0000.0001)                 1.016363321925900E+08,      /* J = 14 */
(PID.TID 0000.0001)                 1.009894939986813E+08,      /* J = 15 */
(PID.TID 0000.0001)                 1.005990497785152E+08,      /* J = 16 */
(PID.TID 0000.0001)                 1.003629323830432E+08,      /* J = 17 */
(PID.TID 0000.0001)                 1.002199785001068E+08,      /* J = 18 */
(PID.TID 0000.0001)                 1.001333680207765E+08,      /* J = 19 */
(PID.TID 0000.0001)                 1.000808712883038E+08,      /* J = 20 */
(PID.TID 0000.0001)                 1.000490433678236E+08,      /* J = 21 */
(PID.TID 0000.0001)                 1.000297435284652E+08,      /* J = 22 */
(PID.TID 0000.0001)                 1.000180393398297E+08,      /* J = 23 */
(PID.TID 0000.0001)                 1.000109410366231E+08,      /* J = 24 */
(PID.TID 0000.0001)                 1.000066359358033E+08,      /* J = 25 */
(PID.TID 0000.0001)                 1.000040248476191E+08,      /* J = 26 */
(PID.TID 0000.0001)                 1.000024411747555E+08,      /* J = 27 */
(PID.TID 0000.0001)                 1.000014806404458E+08,      /* J = 28 */
(PID.TID 0000.0001)                 1.000008980512919E+08,      /* J = 29 */
(PID.TID 0000.0001)                 1.000005446947102E+08,      /* J = 30 */
(PID.TID 0000.0001)                 1.000003303736990E+08,      /* J = 31 */
(PID.TID 0000.0001)                 1.000002003816515E+08,      /* J = 32 */
(PID.TID 0000.0001)                 1.000001215375689E+08,      /* J = 33 */
(PID.TID 0000.0001)                 1.000000737162447E+08,      /* J = 34 */
(PID.TID 0000.0001)                 1.000000447111562E+08,      /* J = 35 */
(PID.TID 0000.0001)                 1.000000271186848E+08,      /* J = 36 */
(PID.TID 0000.0001)                 1.000000164483129E+08,      /* J = 37 */
(PID.TID 0000.0001)                 1.000000099764058E+08,      /* J = 38 */
(PID.TID 0000.0001)                 1.000000060509959E+08,      /* J = 39 */
(PID.TID 0000.0001)                 1.000000036701145E+08,      /* J = 40 */
(PID.TID 0000.0001)                 1.000000022260369E+08,      /* J = 41 */
(PID.TID 0000.0001)                 1.000000013501597E+08,      /* J = 42 */
(PID.TID 0000.0001)                 1.000000008189132E+08,      /* J = 43 */
(PID.TID 0000.0001)                 1.000000004966960E+08,      /* J = 44 */
(PID.TID 0000.0001)                 1.000000003012614E+08       /* J = 45 */
(PID.TID 0000.0001)     ;
(PID.TID 0000.0001) 
(PID.TID 0000.0001)  MDSREADFIELD: opening global file: T.init
(PID.TID 0000.0001) // =======================================================
(PID.TID 0000.0001) // Field Initial Temperature at iteration          1
(PID.TID 0000.0001) // CMIN =         -1.941747572815533E-01
(PID.TID 0000.0001) // CMAX =         -1.941747572815533E-01
(PID.TID 0000.0001) // CINT =          0.000000000000000E+00
(PID.TID 0000.0001) // SYMBOLS (CMIN->CMAX): -abcdefghijklmnopqrstuvwxyz+
(PID.TID 0000.0001) //                  0.0: .
(PID.TID 0000.0001) // RANGE I (Lo:Hi:Step):(   1: 200:   1)
(PID.TID 0000.0001) // RANGE J (Lo:Hi:Step):(  45:   1:  -1)
(PID.TID 0000.0001) // RANGE K (Lo:Hi:Step):(   1:   1:   1)
(PID.TID 0000.0001) // =======================================================
(PID.TID 0000.0001) // =======================================================
(PID.TID 0000.0001) // END OF FIELD                                          =
(PID.TID 0000.0001) // =======================================================
(PID.TID 0000.0001) 
(PID.TID 0000.0001) // =======================================================
(PID.TID 0000.0001) // Field Initial Salinity at iteration          1
(PID.TID 0000.0001) // CMIN =          1.000000000000000E+00
(PID.TID 0000.0001) // CMAX =          1.000000000000000E+00
(PID.TID 0000.0001) // CINT =          0.000000000000000E+00
(PID.TID 0000.0001) // SYMBOLS (CMIN->CMAX): -abcdefghijklmnopqrstuvwxyz+
(PID.TID 0000.0001) //                  0.0: .
(PID.TID 0000.0001) // RANGE I (Lo:Hi:Step):(   1: 200:   1)
(PID.TID 0000.0001) // RANGE J (Lo:Hi:Step):(  45:   1:  -1)
(PID.TID 0000.0001) // RANGE K (Lo:Hi:Step):(   1:   1:   1)
(PID.TID 0000.0001) // =======================================================
(PID.TID 0000.0001) // =======================================================
(PID.TID 0000.0001) // END OF FIELD                                          =
(PID.TID 0000.0001) // =======================================================
(PID.TID 0000.0001) 
(PID.TID 0000.0001) Start initial hydrostatic pressure computation
(PID.TID 0000.0001) Pressure is predetermined for buoyancyRelation OCEANIC
(PID.TID 0000.0001) 
(PID.TID 0000.0001)  write diagnostics summary to file ioUnit:      6
Iter.Nb:         0 ; Time(s):  0.0000000000000E+00
------------------------------------------------------------------------
2D/3D diagnostics: Number of lists:     1
------------------------------------------------------------------------
listId=   1 ; file name: visc
 nFlds, nActive,       freq     &   phase        , nLev                 
   1  |   1  |      3000.000000         0.000000 |  25
 levels:   1   2   3   4   5   6   7   8   9  10  11  12  13  14  15  16  17  18  19  20  21  22  23  24  25
 diag#| name   | ipt  | iMate| kLev| count | mate.C|                    
   95 |VISCA4D |    1 |    0 |  25 |     0 |
------------------------------------------------------------------------
Global & Regional Statistics diagnostics: Number of lists:     0
------------------------------------------------------------------------
(PID.TID 0000.0001) // =======================================================
(PID.TID 0000.0001) // Model current state
(PID.TID 0000.0001) // =======================================================
(PID.TID 0000.0001) 
(PID.TID 0000.0001) // =======================================================
(PID.TID 0000.0001) // Begin MONITOR dynamic field statistics
(PID.TID 0000.0001) // =======================================================
(PID.TID 0000.0001) %MON time_tsnumber                =                     0
(PID.TID 0000.0001) %MON time_secondsf                =   0.0000000000000E+00
(PID.TID 0000.0001) %MON dynstat_eta_max              =   0.0000000000000E+00
(PID.TID 0000.0001) %MON dynstat_eta_min              =   0.0000000000000E+00
(PID.TID 0000.0001) %MON dynstat_eta_mean             =   0.0000000000000E+00
(PID.TID 0000.0001) %MON dynstat_eta_sd               =   0.0000000000000E+00
(PID.TID 0000.0001) %MON dynstat_eta_del2             =   0.0000000000000E+00
(PID.TID 0000.0001) %MON dynstat_uvel_max             =   0.0000000000000E+00
(PID.TID 0000.0001) %MON dynstat_uvel_min             =   0.0000000000000E+00
(PID.TID 0000.0001) %MON dynstat_uvel_mean            =   0.0000000000000E+00
(PID.TID 0000.0001) %MON dynstat_uvel_sd              =   0.0000000000000E+00
(PID.TID 0000.0001) %MON dynstat_uvel_del2            =   0.0000000000000E+00
(PID.TID 0000.0001) %MON dynstat_vvel_max             =   0.0000000000000E+00
(PID.TID 0000.0001) %MON dynstat_vvel_min             =  -1.9393425212476E+00
(PID.TID 0000.0001) %MON dynstat_vvel_mean            =  -3.4481281093507E-05
(PID.TID 0000.0001) %MON dynstat_vvel_sd              =   6.8634250558140E-03
(PID.TID 0000.0001) %MON dynstat_vvel_del2            =   4.7959883259205E-05
(PID.TID 0000.0001) %MON dynstat_wvel_max             =   4.8654876599978E-02
(PID.TID 0000.0001) %MON dynstat_wvel_min             =  -4.8654876671778E-02
(PID.TID 0000.0001) %MON dynstat_wvel_mean            =  -1.1271475845572E-22
(PID.TID 0000.0001) %MON dynstat_wvel_sd              =   3.1707972158465E-04
(PID.TID 0000.0001) %MON dynstat_wvel_del2            =   4.1329437904732E-06
(PID.TID 0000.0001) %MON dynstat_theta_max            =  -1.9417475728155E-01
(PID.TID 0000.0001) %MON dynstat_theta_min            =  -9.7087381093410E+00
(PID.TID 0000.0001) %MON dynstat_theta_mean           =  -4.1282029734286E+00
(PID.TID 0000.0001) %MON dynstat_theta_sd             =   2.6834035016147E+00
(PID.TID 0000.0001) %MON dynstat_theta_del2           =   4.4351272023061E-04
(PID.TID 0000.0001) %MON dynstat_salt_max             =   2.0000000000000E+00
(PID.TID 0000.0001) %MON dynstat_salt_min             =   1.0000000000000E+00
(PID.TID 0000.0001) %MON dynstat_salt_mean            =   1.0000284002028E+00
(PID.TID 0000.0001) %MON dynstat_salt_sd              =   5.1195250063010E-03
(PID.TID 0000.0001) %MON dynstat_salt_del2            =   5.5335980057108E-05
(PID.TID 0000.0001) %MON advcfl_uvel_max              =   0.0000000000000E+00
(PID.TID 0000.0001) %MON advcfl_vvel_max              =   5.8180275462155E-02
(PID.TID 0000.0001) %MON advcfl_wvel_max              =   2.0272865279907E-01
(PID.TID 0000.0001) %MON advcfl_W_hf_max              =   2.0272865279907E-01
(PID.TID 0000.0001) %MON pe_b_mean                    =   0.0000000000000E+00
(PID.TID 0000.0001) %MON ke_max                       =   9.4026235437356E-01
(PID.TID 0000.0001) %MON ke_mean                      =   2.2000289742655E-05
(PID.TID 0000.0001) %MON ke_vol                       =   2.7059236822588E+15
(PID.TID 0000.0001) %MON vort_r_min                   =  -1.9393425212476E-04
(PID.TID 0000.0001) %MON vort_r_max                   =   1.0515998621734E-04
(PID.TID 0000.0001) %MON vort_a_mean                  =   1.0000000000000E-04
(PID.TID 0000.0001) %MON vort_a_sd                    =   7.5823206071112E-07
(PID.TID 0000.0001) %MON vort_p_mean                  =   1.1277618388223E-04
(PID.TID 0000.0001) %MON vort_p_sd                    =   7.1146391807535E-05
(PID.TID 0000.0001) %MON surfExpan_theta_mean         =   2.0884615731546E-12
(PID.TID 0000.0001) %MON surfExpan_salt_mean          =  -1.1786743486735E-21
(PID.TID 0000.0001) // =======================================================
(PID.TID 0000.0001) // End MONITOR dynamic field statistics
(PID.TID 0000.0001) // =======================================================
 cg2d: Sum(rhs),rhsMax =  -1.80156017829113E+00  1.12644441093343E+00
(PID.TID 0000.0001)                    cg2d_init_res =    1.12391545797777E+00
(PID.TID 0000.0001)                       cg2d_iters =    78
(PID.TID 0000.0001)                         cg2d_res =    8.30032125709490E-12
(PID.TID 0000.0001) // =======================================================
(PID.TID 0000.0001) // Begin MONITOR dynamic field statistics
(PID.TID 0000.0001) // =======================================================
(PID.TID 0000.0001) %MON time_tsnumber                =                     1
(PID.TID 0000.0001) %MON time_secondsf                =   3.0000000000000E+02
(PID.TID 0000.0001) %MON dynstat_eta_max              =   3.0417743189514E+00
(PID.TID 0000.0001) %MON dynstat_eta_min              =   0.0000000000000E+00
(PID.TID 0000.0001) %MON dynstat_eta_mean             =   2.5813385030270E-03
(PID.TID 0000.0001) %MON dynstat_eta_sd               =   5.2409711861216E-02
(PID.TID 0000.0001) %MON dynstat_eta_del2             =   7.7945982714237E-04
(PID.TID 0000.0001) %MON dynstat_uvel_max             =   2.3662759648600E-01
(PID.TID 0000.0001) %MON dynstat_uvel_min             =  -3.6237315160894E-02
(PID.TID 0000.0001) %MON dynstat_uvel_mean            =   3.9252425679327E-05
(PID.TID 0000.0001) %MON dynstat_uvel_sd              =   2.1489093109760E-03
(PID.TID 0000.0001) %MON dynstat_uvel_del2            =   2.4113401264199E-05
(PID.TID 0000.0001) %MON dynstat_vvel_max             =   1.5622568603526E-06
(PID.TID 0000.0001) %MON dynstat_vvel_min             =  -1.9393425212476E+00
(PID.TID 0000.0001) %MON dynstat_vvel_mean            =  -1.0469528080154E-04
(PID.TID 0000.0001) %MON dynstat_vvel_sd              =   7.5348216498949E-03
(PID.TID 0000.0001) %MON dynstat_vvel_del2            =   5.1810892294516E-05
(PID.TID 0000.0001) %MON dynstat_wvel_max             =   2.8346474327563E-02
(PID.TID 0000.0001) %MON dynstat_wvel_min             =  -4.8654876671778E-02
(PID.TID 0000.0001) %MON dynstat_wvel_mean            =  -4.3251521916672E-23
(PID.TID 0000.0001) %MON dynstat_wvel_sd              =   2.5611047058683E-04
(PID.TID 0000.0001) %MON dynstat_wvel_del2            =   2.7324277845354E-06
(PID.TID 0000.0001) %MON dynstat_theta_max            =  -1.9417475728155E-01
(PID.TID 0000.0001) %MON dynstat_theta_min            =  -9.7087381093410E+00
(PID.TID 0000.0001) %MON dynstat_theta_mean           =  -4.1282112077303E+00
(PID.TID 0000.0001) %MON dynstat_theta_sd             =   2.6833953070497E+00
(PID.TID 0000.0001) %MON dynstat_theta_del2           =   4.3485422623972E-04
(PID.TID 0000.0001) %MON dynstat_salt_max             =   2.0000000000000E+00
(PID.TID 0000.0001) %MON dynstat_salt_min             =   1.0000000000000E+00
(PID.TID 0000.0001) %MON dynstat_salt_mean            =   1.0000292676600E+00
(PID.TID 0000.0001) %MON dynstat_salt_sd              =   5.1227752818219E-03
(PID.TID 0000.0001) %MON dynstat_salt_del2            =   5.4236562132164E-05
(PID.TID 0000.0001) %MON advcfl_uvel_max              =   7.0988278945801E-03
(PID.TID 0000.0001) %MON advcfl_vvel_max              =   5.8180275462155E-02
(PID.TID 0000.0001) %MON advcfl_wvel_max              =   2.0272865279907E-01
(PID.TID 0000.0001) %MON advcfl_W_hf_max              =   2.0272865279907E-01
(PID.TID 0000.0001) %MON pe_b_mean                    =   5.0552210327654E-06
(PID.TID 0000.0001) %MON ke_max                       =   9.9735197787980E-01
(PID.TID 0000.0001) %MON ke_mean                      =   2.8817331130969E-05
(PID.TID 0000.0001) %MON ke_vol                       =   2.7059236822588E+15
(PID.TID 0000.0001) %MON vort_r_min                   =  -1.9393425212476E-04
(PID.TID 0000.0001) %MON vort_r_max                   =   1.2844874425048E-04
(PID.TID 0000.0001) %MON vort_a_mean                  =   1.0000000000000E-04
(PID.TID 0000.0001) %MON vort_a_sd                    =   8.7413811230042E-07
(PID.TID 0000.0001) %MON vort_p_mean                  =   1.1277618388223E-04
(PID.TID 0000.0001) %MON vort_p_sd                    =   7.1134898462334E-05
(PID.TID 0000.0001) %MON surfExpan_theta_mean         =  -1.4121029329199E-08
(PID.TID 0000.0001) %MON surfExpan_salt_mean          =  -1.5876017186237E-21
(PID.TID 0000.0001) // =======================================================
(PID.TID 0000.0001) // End MONITOR dynamic field statistics
(PID.TID 0000.0001) // =======================================================
 cg2d: Sum(rhs),rhsMax =  -8.45238714652027E+00  4.80185622968810E-01
(PID.TID 0000.0001)                    cg2d_init_res =    1.77766685043683E+00
(PID.TID 0000.0001)                       cg2d_iters =    83
(PID.TID 0000.0001)                         cg2d_res =    9.77619488565738E-12
(PID.TID 0000.0001) // =======================================================
(PID.TID 0000.0001) // Begin MONITOR dynamic field statistics
(PID.TID 0000.0001) // =======================================================
(PID.TID 0000.0001) %MON time_tsnumber                =                     2
(PID.TID 0000.0001) %MON time_secondsf                =   6.0000000000000E+02
(PID.TID 0000.0001) %MON dynstat_eta_max              =   2.3911975944681E+00
(PID.TID 0000.0001) %MON dynstat_eta_min              =   0.0000000000000E+00
(PID.TID 0000.0001) %MON dynstat_eta_mean             =   5.1626770061175E-03
(PID.TID 0000.0001) %MON dynstat_eta_sd               =   6.5621824076003E-02
(PID.TID 0000.0001) %MON dynstat_eta_del2             =   8.0888946816981E-04
(PID.TID 0000.0001) %MON dynstat_uvel_max             =   3.3337599835953E-01
(PID.TID 0000.0001) %MON dynstat_uvel_min             =  -1.0668855040634E-01
(PID.TID 0000.0001) %MON dynstat_uvel_mean            =   7.5660080256715E-05
(PID.TID 0000.0001) %MON dynstat_uvel_sd              =   3.6842703127644E-03
(PID.TID 0000.0001) %MON dynstat_uvel_del2            =   3.8532340378172E-05
(PID.TID 0000.0001) %MON dynstat_vvel_max             =   9.5212730302820E-06
(PID.TID 0000.0001) %MON dynstat_vvel_min             =  -1.9393425212476E+00
(PID.TID 0000.0001) %MON dynstat_vvel_mean            =  -2.0578169524580E-04
(PID.TID 0000.0001) %MON dynstat_vvel_sd              =   8.5737733529732E-03
(PID.TID 0000.0001) %MON dynstat_vvel_del2            =   5.4706000520518E-05
(PID.TID 0000.0001) %MON dynstat_wvel_max             =   2.1944917718386E-02
(PID.TID 0000.0001) %MON dynstat_wvel_min             =  -4.8654876671778E-02
(PID.TID 0000.0001) %MON dynstat_wvel_mean            =  -2.3718576534949E-22
(PID.TID 0000.0001) %MON dynstat_wvel_sd              =   2.4212083927397E-04
(PID.TID 0000.0001) %MON dynstat_wvel_del2            =   2.4339046300527E-06
(PID.TID 0000.0001) %MON dynstat_theta_max            =  -1.9417475728155E-01
(PID.TID 0000.0001) %MON dynstat_theta_min            =  -9.7087381093410E+00
(PID.TID 0000.0001) %MON dynstat_theta_mean           =  -4.1282194419149E+00
(PID.TID 0000.0001) %MON dynstat_theta_sd             =   2.6833879513691E+00
(PID.TID 0000.0001) %MON dynstat_theta_del2           =   4.2627242197425E-04
(PID.TID 0000.0001) %MON dynstat_salt_max             =   2.0000000000000E+00
(PID.TID 0000.0001) %MON dynstat_salt_min             =   1.0000000000000E+00
(PID.TID 0000.0001) %MON dynstat_salt_mean            =   1.0000301351172E+00
(PID.TID 0000.0001) %MON dynstat_salt_sd              =   5.1322748014996E-03
(PID.TID 0000.0001) %MON dynstat_salt_del2            =   5.3153139880120E-05
(PID.TID 0000.0001) %MON advcfl_uvel_max              =   1.0001279950786E-02
(PID.TID 0000.0001) %MON advcfl_vvel_max              =   5.8180275462155E-02
(PID.TID 0000.0001) %MON advcfl_wvel_max              =   2.0272865279907E-01
(PID.TID 0000.0001) %MON advcfl_W_hf_max              =   2.0272865279907E-01
(PID.TID 0000.0001) %MON pe_b_mean                    =   7.9550095504343E-06
(PID.TID 0000.0001) %MON ke_max                       =   1.0431039122856E+00
(PID.TID 0000.0001) %MON ke_mean                      =   4.1105184161260E-05
(PID.TID 0000.0001) %MON ke_vol                       =   2.7059236822588E+15
(PID.TID 0000.0001) %MON vort_r_min                   =  -1.9393425212476E-04
(PID.TID 0000.0001) %MON vort_r_max                   =   1.3608771577275E-04
(PID.TID 0000.0001) %MON vort_a_mean                  =   1.0000000000000E-04
(PID.TID 0000.0001) %MON vort_a_sd                    =   9.6509756213771E-07
(PID.TID 0000.0001) %MON vort_p_mean                  =   1.1277618388223E-04
(PID.TID 0000.0001) %MON vort_p_sd                    =   7.1129752475460E-05
(PID.TID 0000.0001) %MON surfExpan_theta_mean         =  -2.9093916282065E-09
(PID.TID 0000.0001) %MON surfExpan_salt_mean          =  -5.4209394283707E-15
(PID.TID 0000.0001) // =======================================================
(PID.TID 0000.0001) // End MONITOR dynamic field statistics
(PID.TID 0000.0001) // =======================================================
 cg2d: Sum(rhs),rhsMax =  -2.85285769680418E+01  2.13402588854132E-01
(PID.TID 0000.0001)                    cg2d_init_res =    2.23146601185916E+00
(PID.TID 0000.0001)                       cg2d_iters =    86
(PID.TID 0000.0001)                         cg2d_res =    9.30899058771114E-12
(PID.TID 0000.0001) // =======================================================
(PID.TID 0000.0001) // Begin MONITOR dynamic field statistics
(PID.TID 0000.0001) // =======================================================
(PID.TID 0000.0001) %MON time_tsnumber                =                     3
(PID.TID 0000.0001) %MON time_secondsf                =   9.0000000000000E+02
(PID.TID 0000.0001) %MON dynstat_eta_max              =   1.4876524484896E+00
(PID.TID 0000.0001) %MON dynstat_eta_min              =   0.0000000000000E+00
(PID.TID 0000.0001) %MON dynstat_eta_mean             =   7.7440155092137E-03
(PID.TID 0000.0001) %MON dynstat_eta_sd               =   6.7443290590470E-02
(PID.TID 0000.0001) %MON dynstat_eta_del2             =   7.4926611177184E-04
(PID.TID 0000.0001) %MON dynstat_uvel_max             =   3.5639470237606E-01
(PID.TID 0000.0001) %MON dynstat_uvel_min             =  -1.7531204845716E-01
(PID.TID 0000.0001) %MON dynstat_uvel_mean            =   9.2276133677317E-05
(PID.TID 0000.0001) %MON dynstat_uvel_sd              =   4.4911972380998E-03
(PID.TID 0000.0001) %MON dynstat_uvel_del2            =   4.5281427445325E-05
(PID.TID 0000.0001) %MON dynstat_vvel_max             =   2.9994036623492E-05
(PID.TID 0000.0001) %MON dynstat_vvel_min             =  -1.9393425212476E+00
(PID.TID 0000.0001) %MON dynstat_vvel_mean            =  -3.3516904739284E-04
(PID.TID 0000.0001) %MON dynstat_vvel_sd              =   9.3708997269965E-03
(PID.TID 0000.0001) %MON dynstat_vvel_del2            =   5.9363585537176E-05
(PID.TID 0000.0001) %MON dynstat_wvel_max             =   2.1447908979141E-02
(PID.TID 0000.0001) %MON dynstat_wvel_min             =  -4.8654876671778E-02
(PID.TID 0000.0001) %MON dynstat_wvel_mean            =   5.0785657992479E-22
(PID.TID 0000.0001) %MON dynstat_wvel_sd              =   2.4036542827669E-04
(PID.TID 0000.0001) %MON dynstat_wvel_del2            =   2.4704152864503E-06
(PID.TID 0000.0001) %MON dynstat_theta_max            =  -1.9417475728155E-01
(PID.TID 0000.0001) %MON dynstat_theta_min            =  -9.7087381093410E+00
(PID.TID 0000.0001) %MON dynstat_theta_mean           =  -4.1282276765582E+00
(PID.TID 0000.0001) %MON dynstat_theta_sd             =   2.6833813713602E+00
(PID.TID 0000.0001) %MON dynstat_theta_del2           =   4.1790377696254E-04
(PID.TID 0000.0001) %MON dynstat_salt_max             =   2.0000000000000E+00
(PID.TID 0000.0001) %MON dynstat_salt_min             =   1.0000000000000E+00
(PID.TID 0000.0001) %MON dynstat_salt_mean            =   1.0000310025744E+00
(PID.TID 0000.0001) %MON dynstat_salt_sd              =   5.1475945549648E-03
(PID.TID 0000.0001) %MON dynstat_salt_del2            =   5.2089935934931E-05
(PID.TID 0000.0001) %MON advcfl_uvel_max              =   1.0691841071282E-02
(PID.TID 0000.0001) %MON advcfl_vvel_max              =   5.8180275462155E-02
(PID.TID 0000.0001) %MON advcfl_wvel_max              =   2.0272865279907E-01
(PID.TID 0000.0001) %MON advcfl_W_hf_max              =   2.0272865279907E-01
(PID.TID 0000.0001) %MON pe_b_mean                    =   8.4611670303730E-06
(PID.TID 0000.0001) %MON ke_max                       =   1.0523515739212E+00
(PID.TID 0000.0001) %MON ke_mean                      =   5.1101174019210E-05
(PID.TID 0000.0001) %MON ke_vol                       =   2.7059236822588E+15
(PID.TID 0000.0001) %MON vort_r_min                   =  -1.9393425212476E-04
(PID.TID 0000.0001) %MON vort_r_max                   =   1.3642398939267E-04
(PID.TID 0000.0001) %MON vort_a_mean                  =   1.0000000000000E-04
(PID.TID 0000.0001) %MON vort_a_sd                    =   1.0038026435965E-06
(PID.TID 0000.0001) %MON vort_p_mean                  =   1.1277618388223E-04
(PID.TID 0000.0001) %MON vort_p_sd                    =   7.1127859861681E-05
(PID.TID 0000.0001) %MON surfExpan_theta_mean         =   2.3656224527990E-09
(PID.TID 0000.0001) %MON surfExpan_salt_mean          =  -2.2895824012497E-14
(PID.TID 0000.0001) // =======================================================
(PID.TID 0000.0001) // End MONITOR dynamic field statistics
(PID.TID 0000.0001) // =======================================================
 cg2d: Sum(rhs),rhsMax =  -7.23733481612436E+01  1.12160481466228E-01
(PID.TID 0000.0001)                    cg2d_init_res =    2.56211654443881E+00
(PID.TID 0000.0001)                       cg2d_iters =    89
(PID.TID 0000.0001)                         cg2d_res =    7.31939414321956E-12
(PID.TID 0000.0001) // =======================================================
(PID.TID 0000.0001) // Begin MONITOR dynamic field statistics
(PID.TID 0000.0001) // =======================================================
(PID.TID 0000.0001) %MON time_tsnumber                =                     4
(PID.TID 0000.0001) %MON time_secondsf                =   1.2000000000000E+03
(PID.TID 0000.0001) %MON dynstat_eta_max              =   9.4232068885760E-01
(PID.TID 0000.0001) %MON dynstat_eta_min              =   0.0000000000000E+00
(PID.TID 0000.0001) %MON dynstat_eta_mean             =   1.0325354012319E-02
(PID.TID 0000.0001) %MON dynstat_eta_sd               =   6.5611445310567E-02
(PID.TID 0000.0001) %MON dynstat_eta_del2             =   6.3203189603429E-04
(PID.TID 0000.0001) %MON dynstat_uvel_max             =   3.4639094903401E-01
(PID.TID 0000.0001) %MON dynstat_uvel_min             =  -2.1870237202266E-01
(PID.TID 0000.0001) %MON dynstat_uvel_mean            =   8.7135829849592E-05
(PID.TID 0000.0001) %MON dynstat_uvel_sd              =   4.8050870375069E-03
(PID.TID 0000.0001) %MON dynstat_uvel_del2            =   4.6694510304126E-05
(PID.TID 0000.0001) %MON dynstat_vvel_max             =   6.9692178101275E-05
(PID.TID 0000.0001) %MON dynstat_vvel_min             =  -1.9393425212476E+00
(PID.TID 0000.0001) %MON dynstat_vvel_mean            =  -4.9530513447138E-04
(PID.TID 0000.0001) %MON dynstat_vvel_sd              =   9.9507332946131E-03
(PID.TID 0000.0001) %MON dynstat_vvel_del2            =   6.2533035294345E-05
(PID.TID 0000.0001) %MON dynstat_wvel_max             =   2.1862817776298E-02
(PID.TID 0000.0001) %MON dynstat_wvel_min             =  -4.8654876671778E-02
(PID.TID 0000.0001) %MON dynstat_wvel_mean            =  -6.8086266759148E-22
(PID.TID 0000.0001) %MON dynstat_wvel_sd              =   2.4093378433533E-04
(PID.TID 0000.0001) %MON dynstat_wvel_del2            =   2.5377796393836E-06
(PID.TID 0000.0001) %MON dynstat_theta_max            =  -1.9417475728155E-01
(PID.TID 0000.0001) %MON dynstat_theta_min            =  -9.7087381093410E+00
(PID.TID 0000.0001) %MON dynstat_theta_mean           =  -4.1282359113243E+00
(PID.TID 0000.0001) %MON dynstat_theta_sd             =   2.6833755092691E+00
(PID.TID 0000.0001) %MON dynstat_theta_del2           =   4.0975768641801E-04
(PID.TID 0000.0001) %MON dynstat_salt_max             =   2.0000000000000E+00
(PID.TID 0000.0001) %MON dynstat_salt_min             =   1.0000000000000E+00
(PID.TID 0000.0001) %MON dynstat_salt_mean            =   1.0000318700316E+00
(PID.TID 0000.0001) %MON dynstat_salt_sd              =   5.1683010397649E-03
(PID.TID 0000.0001) %MON dynstat_salt_del2            =   5.1050768577123E-05
(PID.TID 0000.0001) %MON advcfl_uvel_max              =   1.0391728471020E-02
(PID.TID 0000.0001) %MON advcfl_vvel_max              =   5.8180275462155E-02
(PID.TID 0000.0001) %MON advcfl_wvel_max              =   2.0272865279907E-01
(PID.TID 0000.0001) %MON advcfl_W_hf_max              =   2.0272865279907E-01
(PID.TID 0000.0001) %MON pe_b_mean                    =   8.0993120889055E-06
(PID.TID 0000.0001) %MON ke_max                       =   1.0557368894396E+00
(PID.TID 0000.0001) %MON ke_mean                      =   5.7846523486044E-05
(PID.TID 0000.0001) %MON ke_vol                       =   2.7059236822588E+15
(PID.TID 0000.0001) %MON vort_r_min                   =  -1.9393425212476E-04
(PID.TID 0000.0001) %MON vort_r_max                   =   1.3516892069168E-04
(PID.TID 0000.0001) %MON vort_a_mean                  =   1.0000000000000E-04
(PID.TID 0000.0001) %MON vort_a_sd                    =   1.0138144417383E-06
(PID.TID 0000.0001) %MON vort_p_mean                  =   1.1277618388223E-04
(PID.TID 0000.0001) %MON vort_p_sd                    =   7.1127692503968E-05
(PID.TID 0000.0001) %MON surfExpan_theta_mean         =   3.8628745177132E-09
(PID.TID 0000.0001) %MON surfExpan_salt_mean          =  -5.2420465472267E-14
(PID.TID 0000.0001) // =======================================================
(PID.TID 0000.0001) // End MONITOR dynamic field statistics
(PID.TID 0000.0001) // =======================================================
 cg2d: Sum(rhs),rhsMax =  -1.42498826741745E+02  7.12061088563742E-02
(PID.TID 0000.0001)                    cg2d_init_res =    2.93116742731300E+00
(PID.TID 0000.0001)                       cg2d_iters =    90
(PID.TID 0000.0001)                         cg2d_res =    8.09666120012641E-12
(PID.TID 0000.0001) // =======================================================
(PID.TID 0000.0001) // Begin MONITOR dynamic field statistics
(PID.TID 0000.0001) // =======================================================
(PID.TID 0000.0001) %MON time_tsnumber                =                     5
(PID.TID 0000.0001) %MON time_secondsf                =   1.5000000000000E+03
(PID.TID 0000.0001) %MON dynstat_eta_max              =   7.7221672675803E-01
(PID.TID 0000.0001) %MON dynstat_eta_min              =   0.0000000000000E+00
(PID.TID 0000.0001) %MON dynstat_eta_mean             =   1.2906692515425E-02
(PID.TID 0000.0001) %MON dynstat_eta_sd               =   6.1703625506818E-02
(PID.TID 0000.0001) %MON dynstat_eta_del2             =   4.9486809014194E-04
(PID.TID 0000.0001) %MON dynstat_uvel_max             =   3.3199968451634E-01
(PID.TID 0000.0001) %MON dynstat_uvel_min             =  -2.3761963529986E-01
(PID.TID 0000.0001) %MON dynstat_uvel_mean            =   6.4765988855661E-05
(PID.TID 0000.0001) %MON dynstat_uvel_sd              =   4.8928404422202E-03
(PID.TID 0000.0001) %MON dynstat_uvel_del2            =   4.4799263082351E-05
(PID.TID 0000.0001) %MON dynstat_vvel_max             =   1.3195181206794E-04
(PID.TID 0000.0001) %MON dynstat_vvel_min             =  -1.9393425212476E+00
(PID.TID 0000.0001) %MON dynstat_vvel_mean            =  -6.8488063218124E-04
(PID.TID 0000.0001) %MON dynstat_vvel_sd              =   1.0366580960372E-02
(PID.TID 0000.0001) %MON dynstat_vvel_del2            =   6.4081100323609E-05
(PID.TID 0000.0001) %MON dynstat_wvel_max             =   2.2097140036584E-02
(PID.TID 0000.0001) %MON dynstat_wvel_min             =  -4.8654876671778E-02
(PID.TID 0000.0001) %MON dynstat_wvel_mean            =  -4.4646732301081E-21
(PID.TID 0000.0001) %MON dynstat_wvel_sd              =   2.4167308371364E-04
(PID.TID 0000.0001) %MON dynstat_wvel_del2            =   2.5841715485070E-06
(PID.TID 0000.0001) %MON dynstat_theta_max            =  -1.9417475728155E-01
(PID.TID 0000.0001) %MON dynstat_theta_min            =  -9.7087381093410E+00
(PID.TID 0000.0001) %MON dynstat_theta_mean           =  -4.1282441460938E+00
(PID.TID 0000.0001) %MON dynstat_theta_sd             =   2.6833703162983E+00
(PID.TID 0000.0001) %MON dynstat_theta_del2           =   4.0184315031719E-04
(PID.TID 0000.0001) %MON dynstat_salt_max             =   2.0000000000000E+00
(PID.TID 0000.0001) %MON dynstat_salt_min             =   1.0000000000000E+00
(PID.TID 0000.0001) %MON dynstat_salt_mean            =   1.0000327374888E+00
(PID.TID 0000.0001) %MON dynstat_salt_sd              =   5.1939982334875E-03
(PID.TID 0000.0001) %MON dynstat_salt_del2            =   5.0037493404210E-05
(PID.TID 0000.0001) %MON advcfl_uvel_max              =   9.9599905354902E-03
(PID.TID 0000.0001) %MON advcfl_vvel_max              =   5.8180275462155E-02
(PID.TID 0000.0001) %MON advcfl_wvel_max              =   2.0272865279907E-01
(PID.TID 0000.0001) %MON advcfl_W_hf_max              =   2.0272865279907E-01
(PID.TID 0000.0001) %MON pe_b_mean                    =   7.2959772999582E-06
(PID.TID 0000.0001) %MON ke_max                       =   1.0613433817672E+00
(PID.TID 0000.0001) %MON ke_mean                      =   6.2318461690592E-05
(PID.TID 0000.0001) %MON ke_vol                       =   2.7059236822588E+15
(PID.TID 0000.0001) %MON vort_r_min                   =  -1.9393425212476E-04
(PID.TID 0000.0001) %MON vort_r_max                   =   1.3392895777658E-04
(PID.TID 0000.0001) %MON vort_a_mean                  =   1.0000000000000E-04
(PID.TID 0000.0001) %MON vort_a_sd                    =   1.0120287591574E-06
(PID.TID 0000.0001) %MON vort_p_mean                  =   1.1277618388223E-04
(PID.TID 0000.0001) %MON vort_p_sd                    =   7.1128145312259E-05
(PID.TID 0000.0001) %MON surfExpan_theta_mean         =   4.0298360491740E-09
(PID.TID 0000.0001) %MON surfExpan_salt_mean          =  -9.6133879688331E-14
(PID.TID 0000.0001) // =======================================================
(PID.TID 0000.0001) // End MONITOR dynamic field statistics
(PID.TID 0000.0001) // =======================================================
 cg2d: Sum(rhs),rhsMax =  -1.97153430601547E+02  6.17597387249020E-02
(PID.TID 0000.0001)                    cg2d_init_res =    2.69454377002477E+00
(PID.TID 0000.0001)                       cg2d_iters =    90
(PID.TID 0000.0001)                         cg2d_res =    9.10895740547340E-12
(PID.TID 0000.0001) // =======================================================
(PID.TID 0000.0001) // Begin MONITOR dynamic field statistics
(PID.TID 0000.0001) // =======================================================
(PID.TID 0000.0001) %MON time_tsnumber                =                     6
(PID.TID 0000.0001) %MON time_secondsf                =   1.8000000000000E+03
(PID.TID 0000.0001) %MON dynstat_eta_max              =   6.3562248952850E-01
(PID.TID 0000.0001) %MON dynstat_eta_min              =   0.0000000000000E+00
(PID.TID 0000.0001) %MON dynstat_eta_mean             =   1.5488031018531E-02
(PID.TID 0000.0001) %MON dynstat_eta_sd               =   5.5996685611307E-02
(PID.TID 0000.0001) %MON dynstat_eta_del2             =   3.5764254100309E-04
(PID.TID 0000.0001) %MON dynstat_uvel_max             =   3.2266637394973E-01
(PID.TID 0000.0001) %MON dynstat_uvel_min             =  -2.4260059634180E-01
(PID.TID 0000.0001) %MON dynstat_uvel_mean            =   2.9149678483359E-05
(PID.TID 0000.0001) %MON dynstat_uvel_sd              =   4.9481586038733E-03
(PID.TID 0000.0001) %MON dynstat_uvel_del2            =   4.2254366932959E-05
(PID.TID 0000.0001) %MON dynstat_vvel_max             =   2.0998471867690E-04
(PID.TID 0000.0001) %MON dynstat_vvel_min             =  -1.9393425212476E+00
(PID.TID 0000.0001) %MON dynstat_vvel_mean            =  -8.9791875053749E-04
(PID.TID 0000.0001) %MON dynstat_vvel_sd              =   1.0642541139848E-02
(PID.TID 0000.0001) %MON dynstat_vvel_del2            =   6.4749462152995E-05
(PID.TID 0000.0001) %MON dynstat_wvel_max             =   2.2103334428092E-02
(PID.TID 0000.0001) %MON dynstat_wvel_min             =  -4.8654876671778E-02
(PID.TID 0000.0001) %MON dynstat_wvel_mean            =   3.0359777964735E-21
(PID.TID 0000.0001) %MON dynstat_wvel_sd              =   2.4230463351173E-04
(PID.TID 0000.0001) %MON dynstat_wvel_del2            =   2.6343731896444E-06
(PID.TID 0000.0001) %MON dynstat_theta_max            =  -1.9417475728155E-01
(PID.TID 0000.0001) %MON dynstat_theta_min            =  -9.7087381093410E+00
(PID.TID 0000.0001) %MON dynstat_theta_mean           =  -4.1282523808306E+00
(PID.TID 0000.0001) %MON dynstat_theta_sd             =   2.6833657494588E+00
(PID.TID 0000.0001) %MON dynstat_theta_del2           =   3.9423000088625E-04
(PID.TID 0000.0001) %MON dynstat_salt_max             =   2.0000000000000E+00
(PID.TID 0000.0001) %MON dynstat_salt_min             =   1.0000000000000E+00
(PID.TID 0000.0001) %MON dynstat_salt_mean            =   1.0000336049460E+00
(PID.TID 0000.0001) %MON dynstat_salt_sd              =   5.2243259596696E-03
(PID.TID 0000.0001) %MON dynstat_salt_del2            =   4.9050812036855E-05
(PID.TID 0000.0001) %MON advcfl_uvel_max              =   9.6799912184920E-03
(PID.TID 0000.0001) %MON advcfl_vvel_max              =   5.8180275462155E-02
(PID.TID 0000.0001) %MON advcfl_wvel_max              =   2.0272865279907E-01
(PID.TID 0000.0001) %MON advcfl_W_hf_max              =   2.0272865279907E-01
(PID.TID 0000.0001) %MON pe_b_mean                    =   6.1973135717532E-06
(PID.TID 0000.0001) %MON ke_max                       =   1.0693004491822E+00
(PID.TID 0000.0001) %MON ke_mean                      =   6.5452705796748E-05
(PID.TID 0000.0001) %MON ke_vol                       =   2.7059236822588E+15
(PID.TID 0000.0001) %MON vort_r_min                   =  -1.9393425212476E-04
(PID.TID 0000.0001) %MON vort_r_max                   =   1.3297786795176E-04
(PID.TID 0000.0001) %MON vort_a_mean                  =   1.0000000000000E-04
(PID.TID 0000.0001) %MON vort_a_sd                    =   1.0072126712476E-06
(PID.TID 0000.0001) %MON vort_p_mean                  =   1.1277618388223E-04
(PID.TID 0000.0001) %MON vort_p_sd                    =   7.1128160873895E-05
(PID.TID 0000.0001) %MON surfExpan_theta_mean         =   3.7302227638676E-09
(PID.TID 0000.0001) %MON surfExpan_salt_mean          =  -1.4091026408648E-13
(PID.TID 0000.0001) // =======================================================
(PID.TID 0000.0001) // End MONITOR dynamic field statistics
(PID.TID 0000.0001) // =======================================================
 cg2d: Sum(rhs),rhsMax =  -2.58996052311105E+02  5.48483331297862E-02
(PID.TID 0000.0001)                    cg2d_init_res =    2.90500430876945E+00
(PID.TID 0000.0001)                       cg2d_iters =    90
(PID.TID 0000.0001)                         cg2d_res =    9.59423988966783E-12
(PID.TID 0000.0001) // =======================================================
(PID.TID 0000.0001) // Begin MONITOR dynamic field statistics
(PID.TID 0000.0001) // =======================================================
(PID.TID 0000.0001) %MON time_tsnumber                =                     7
(PID.TID 0000.0001) %MON time_secondsf                =   2.1000000000000E+03
(PID.TID 0000.0001) %MON dynstat_eta_max              =   3.9133949750685E-01
(PID.TID 0000.0001) %MON dynstat_eta_min              =   0.0000000000000E+00
(PID.TID 0000.0001) %MON dynstat_eta_mean             =   1.8069369521636E-02
(PID.TID 0000.0001) %MON dynstat_eta_sd               =   4.9831129258208E-02
(PID.TID 0000.0001) %MON dynstat_eta_del2             =   2.2873432744687E-04
(PID.TID 0000.0001) %MON dynstat_uvel_max             =   3.2232504614810E-01
(PID.TID 0000.0001) %MON dynstat_uvel_min             =  -2.4201449208240E-01
(PID.TID 0000.0001) %MON dynstat_uvel_mean            =  -2.0114893432921E-05
(PID.TID 0000.0001) %MON dynstat_uvel_sd              =   5.0327764452853E-03
(PID.TID 0000.0001) %MON dynstat_uvel_del2            =   4.0759725386702E-05
(PID.TID 0000.0001) %MON dynstat_vvel_max             =   3.8133460511414E-04
(PID.TID 0000.0001) %MON dynstat_vvel_min             =  -1.9393425212476E+00
(PID.TID 0000.0001) %MON dynstat_vvel_mean            =  -1.1239068179128E-03
(PID.TID 0000.0001) %MON dynstat_vvel_sd              =   1.0790117772073E-02
(PID.TID 0000.0001) %MON dynstat_vvel_del2            =   6.5040615757072E-05
(PID.TID 0000.0001) %MON dynstat_wvel_max             =   2.1931017432109E-02
(PID.TID 0000.0001) %MON dynstat_wvel_min             =  -4.8654876671778E-02
(PID.TID 0000.0001) %MON dynstat_wvel_mean            =   1.1161683075270E-21
(PID.TID 0000.0001) %MON dynstat_wvel_sd              =   2.4269345809382E-04
(PID.TID 0000.0001) %MON dynstat_wvel_del2            =   2.6921763860132E-06
(PID.TID 0000.0001) %MON dynstat_theta_max            =  -1.9417475728155E-01
(PID.TID 0000.0001) %MON dynstat_theta_min            =  -9.7087381093410E+00
(PID.TID 0000.0001) %MON dynstat_theta_mean           =  -4.1282606155286E+00
(PID.TID 0000.0001) %MON dynstat_theta_sd             =   2.6833617732680E+00
(PID.TID 0000.0001) %MON dynstat_theta_del2           =   3.8688326548951E-04
(PID.TID 0000.0001) %MON dynstat_salt_max             =   2.0000000000000E+00
(PID.TID 0000.0001) %MON dynstat_salt_min             =   1.0000000000000E+00
(PID.TID 0000.0001) %MON dynstat_salt_mean            =   1.0000344724032E+00
(PID.TID 0000.0001) %MON dynstat_salt_sd              =   5.2589570835082E-03
(PID.TID 0000.0001) %MON dynstat_salt_del2            =   4.8090753936335E-05
(PID.TID 0000.0001) %MON advcfl_uvel_max              =   9.6697513844429E-03
(PID.TID 0000.0001) %MON advcfl_vvel_max              =   5.8180275462155E-02
(PID.TID 0000.0001) %MON advcfl_wvel_max              =   2.0272865279907E-01
(PID.TID 0000.0001) %MON advcfl_W_hf_max              =   2.0272865279907E-01
(PID.TID 0000.0001) %MON pe_b_mean                    =   5.1584065710672E-06
(PID.TID 0000.0001) %MON ke_max                       =   1.0791803968501E+00
(PID.TID 0000.0001) %MON ke_mean                      =   6.7563151579294E-05
(PID.TID 0000.0001) %MON ke_vol                       =   2.7059236822588E+15
(PID.TID 0000.0001) %MON vort_r_min                   =  -1.9393425212476E-04
(PID.TID 0000.0001) %MON vort_r_max                   =   1.3231490089343E-04
(PID.TID 0000.0001) %MON vort_a_mean                  =   1.0000000000000E-04
(PID.TID 0000.0001) %MON vort_a_sd                    =   1.0023838752993E-06
(PID.TID 0000.0001) %MON vort_p_mean                  =   1.1277618388223E-04
(PID.TID 0000.0001) %MON vort_p_sd                    =   7.1126904932185E-05
(PID.TID 0000.0001) %MON surfExpan_theta_mean         =   3.3595739637950E-09
(PID.TID 0000.0001) %MON surfExpan_salt_mean          =  -1.7967535195795E-13
(PID.TID 0000.0001) // =======================================================
(PID.TID 0000.0001) // End MONITOR dynamic field statistics
(PID.TID 0000.0001) // =======================================================
 cg2d: Sum(rhs),rhsMax =  -2.94638831041448E+02  5.51008809424352E-02
(PID.TID 0000.0001)                    cg2d_init_res =    2.81865332390175E+00
(PID.TID 0000.0001)                       cg2d_iters =    90
(PID.TID 0000.0001)                         cg2d_res =    9.45660967612809E-12
(PID.TID 0000.0001) // =======================================================
(PID.TID 0000.0001) // Begin MONITOR dynamic field statistics
(PID.TID 0000.0001) // =======================================================
(PID.TID 0000.0001) %MON time_tsnumber                =                     8
(PID.TID 0000.0001) %MON time_secondsf                =   2.4000000000000E+03
(PID.TID 0000.0001) %MON dynstat_eta_max              =   2.6515718731554E-01
(PID.TID 0000.0001) %MON dynstat_eta_min              =   0.0000000000000E+00
(PID.TID 0000.0001) %MON dynstat_eta_mean             =   2.0650708024721E-02
(PID.TID 0000.0001) %MON dynstat_eta_sd               =   4.5010198721676E-02
(PID.TID 0000.0001) %MON dynstat_eta_del2             =   1.1812756831473E-04
(PID.TID 0000.0001) %MON dynstat_uvel_max             =   3.2369304040214E-01
(PID.TID 0000.0001) %MON dynstat_uvel_min             =  -2.3949196084169E-01
(PID.TID 0000.0001) %MON dynstat_uvel_mean            =  -8.8217840285245E-05
(PID.TID 0000.0001) %MON dynstat_uvel_sd              =   5.1240734873573E-03
(PID.TID 0000.0001) %MON dynstat_uvel_del2            =   4.0546152173986E-05
(PID.TID 0000.0001) %MON dynstat_vvel_max             =   6.1022096704155E-04
(PID.TID 0000.0001) %MON dynstat_vvel_min             =  -1.9393425212476E+00
(PID.TID 0000.0001) %MON dynstat_vvel_mean            =  -1.3479524306285E-03
(PID.TID 0000.0001) %MON dynstat_vvel_sd              =   1.0825229937934E-02
(PID.TID 0000.0001) %MON dynstat_vvel_del2            =   6.5261600967357E-05
(PID.TID 0000.0001) %MON dynstat_wvel_max             =   2.1613941953779E-02
(PID.TID 0000.0001) %MON dynstat_wvel_min             =  -4.8654876671778E-02
(PID.TID 0000.0001) %MON dynstat_wvel_mean            =  -2.3216300796562E-21
(PID.TID 0000.0001) %MON dynstat_wvel_sd              =   2.4272507632344E-04
(PID.TID 0000.0001) %MON dynstat_wvel_del2            =   2.7341744548566E-06
(PID.TID 0000.0001) %MON dynstat_theta_max            =  -1.9417475728155E-01
(PID.TID 0000.0001) %MON dynstat_theta_min            =  -9.7087381093410E+00
(PID.TID 0000.0001) %MON dynstat_theta_mean           =  -4.1282688501951E+00
(PID.TID 0000.0001) %MON dynstat_theta_sd             =   2.6833583054900E+00
(PID.TID 0000.0001) %MON dynstat_theta_del2           =   3.8101559500583E-04
(PID.TID 0000.0001) %MON dynstat_salt_max             =   2.0000000000000E+00
(PID.TID 0000.0001) %MON dynstat_salt_min             =   1.0000000000000E+00
(PID.TID 0000.0001) %MON dynstat_salt_mean            =   1.0000353398604E+00
(PID.TID 0000.0001) %MON dynstat_salt_sd              =   5.2973287809941E-03
(PID.TID 0000.0001) %MON dynstat_salt_del2            =   4.7160315374943E-05
(PID.TID 0000.0001) %MON advcfl_uvel_max              =   9.7107912120643E-03
(PID.TID 0000.0001) %MON advcfl_vvel_max              =   5.8180275462155E-02
(PID.TID 0000.0001) %MON advcfl_wvel_max              =   2.0272865279907E-01
(PID.TID 0000.0001) %MON advcfl_W_hf_max              =   2.0272865279907E-01
(PID.TID 0000.0001) %MON pe_b_mean                    =   4.5024644134002E-06
(PID.TID 0000.0001) %MON ke_max                       =   1.0908348433172E+00
(PID.TID 0000.0001) %MON ke_mean                      =   6.8641178131532E-05
(PID.TID 0000.0001) %MON ke_vol                       =   2.7059236822588E+15
(PID.TID 0000.0001) %MON vort_r_min                   =  -1.9393425212476E-04
(PID.TID 0000.0001) %MON vort_r_max                   =   1.3188442211859E-04
(PID.TID 0000.0001) %MON vort_a_mean                  =   1.0000000000000E-04
(PID.TID 0000.0001) %MON vort_a_sd                    =   9.9817754506115E-07
(PID.TID 0000.0001) %MON vort_p_mean                  =   1.1277618388223E-04
(PID.TID 0000.0001) %MON vort_p_sd                    =   7.1124042810498E-05
(PID.TID 0000.0001) %MON surfExpan_theta_mean         =   3.0573509906744E-09
(PID.TID 0000.0001) %MON surfExpan_salt_mean          =  -2.3397020984496E-13
(PID.TID 0000.0001) // =======================================================
(PID.TID 0000.0001) // End MONITOR dynamic field statistics
(PID.TID 0000.0001) // =======================================================
 cg2d: Sum(rhs),rhsMax =  -3.35687456168578E+02  5.44083974789280E-02
(PID.TID 0000.0001)                    cg2d_init_res =    2.64208715815562E+00
(PID.TID 0000.0001)                       cg2d_iters =    91
(PID.TID 0000.0001)                         cg2d_res =    7.62243840340153E-12
(PID.TID 0000.0001) // =======================================================
(PID.TID 0000.0001) // Begin MONITOR dynamic field statistics
(PID.TID 0000.0001) // =======================================================
(PID.TID 0000.0001) %MON time_tsnumber                =                     9
(PID.TID 0000.0001) %MON time_secondsf                =   2.7000000000000E+03
(PID.TID 0000.0001) %MON dynstat_eta_max              =   2.2683118490009E-01
(PID.TID 0000.0001) %MON dynstat_eta_min              =  -6.3807851863475E-02
(PID.TID 0000.0001) %MON dynstat_eta_mean             =   2.3232046527682E-02
(PID.TID 0000.0001) %MON dynstat_eta_sd               =   4.2467835645356E-02
(PID.TID 0000.0001) %MON dynstat_eta_del2             =   9.5619153344573E-05
(PID.TID 0000.0001) %MON dynstat_uvel_max             =   3.2593312733273E-01
(PID.TID 0000.0001) %MON dynstat_uvel_min             =  -2.3580724369700E-01
(PID.TID 0000.0001) %MON dynstat_uvel_mean            =  -1.8293377012854E-04
(PID.TID 0000.0001) %MON dynstat_uvel_sd              =   5.1858996207165E-03
(PID.TID 0000.0001) %MON dynstat_uvel_del2            =   4.1245305567675E-05
(PID.TID 0000.0001) %MON dynstat_vvel_max             =   8.0688251259896E-04
(PID.TID 0000.0001) %MON dynstat_vvel_min             =  -1.9393425212476E+00
(PID.TID 0000.0001) %MON dynstat_vvel_mean            =  -1.5516295881019E-03
(PID.TID 0000.0001) %MON dynstat_vvel_sd              =   1.0771667656666E-02
(PID.TID 0000.0001) %MON dynstat_vvel_del2            =   6.5699576319785E-05
(PID.TID 0000.0001) %MON dynstat_wvel_max             =   2.1188101160036E-02
(PID.TID 0000.0001) %MON dynstat_wvel_min             =  -4.8654876671778E-02
(PID.TID 0000.0001) %MON dynstat_wvel_mean            =  -2.3551151288820E-21
(PID.TID 0000.0001) %MON dynstat_wvel_sd              =   2.4244006246706E-04
(PID.TID 0000.0001) %MON dynstat_wvel_del2            =   2.7574857158153E-06
(PID.TID 0000.0001) %MON dynstat_theta_max            =  -1.9417475728155E-01
(PID.TID 0000.0001) %MON dynstat_theta_min            =  -9.7087381093410E+00
(PID.TID 0000.0001) %MON dynstat_theta_mean           =  -4.1282770848314E+00
(PID.TID 0000.0001) %MON dynstat_theta_sd             =   2.6833552404702E+00
(PID.TID 0000.0001) %MON dynstat_theta_del2           =   3.7741506197514E-04
(PID.TID 0000.0001) %MON dynstat_salt_max             =   2.0000000000000E+00
(PID.TID 0000.0001) %MON dynstat_salt_min             =   1.0000000000000E+00
(PID.TID 0000.0001) %MON dynstat_salt_mean            =   1.0000362073176E+00
(PID.TID 0000.0001) %MON dynstat_salt_sd              =   5.3385897783215E-03
(PID.TID 0000.0001) %MON dynstat_salt_del2            =   4.6516159650906E-05
(PID.TID 0000.0001) %MON advcfl_uvel_max              =   9.7779938199818E-03
(PID.TID 0000.0001) %MON advcfl_vvel_max              =   5.8180275462155E-02
(PID.TID 0000.0001) %MON advcfl_wvel_max              =   2.0272865279907E-01
(PID.TID 0000.0001) %MON advcfl_W_hf_max              =   2.0272865279907E-01
(PID.TID 0000.0001) %MON pe_b_mean                    =   4.3021153449321E-06
(PID.TID 0000.0001) %MON ke_max                       =   1.1041654515490E+00
(PID.TID 0000.0001) %MON ke_mean                      =   6.8706603863968E-05
(PID.TID 0000.0001) %MON ke_vol                       =   2.7059236822588E+15
(PID.TID 0000.0001) %MON vort_r_min                   =  -1.9393425212476E-04
(PID.TID 0000.0001) %MON vort_r_max                   =   1.3160607606271E-04
(PID.TID 0000.0001) %MON vort_a_mean                  =   1.0000000000000E-04
(PID.TID 0000.0001) %MON vort_a_sd                    =   9.9467918510041E-07
(PID.TID 0000.0001) %MON vort_p_mean                  =   1.1277618388223E-04
(PID.TID 0000.0001) %MON vort_p_sd                    =   7.1119719068967E-05
(PID.TID 0000.0001) %MON surfExpan_theta_mean         =   2.7682622657198E-09
(PID.TID 0000.0001) %MON surfExpan_salt_mean          =  -3.4181726087944E-13
(PID.TID 0000.0001) // =======================================================
(PID.TID 0000.0001) // End MONITOR dynamic field statistics
(PID.TID 0000.0001) // =======================================================
 cg2d: Sum(rhs),rhsMax =  -3.90438631168868E+02  5.19763474129846E-02
(PID.TID 0000.0001)                    cg2d_init_res =    2.57782638132999E+00
(PID.TID 0000.0001)                       cg2d_iters =    91
(PID.TID 0000.0001)                         cg2d_res =    7.87403863822495E-12
(PID.TID 0000.0001) // =======================================================
(PID.TID 0000.0001) // Begin MONITOR dynamic field statistics
(PID.TID 0000.0001) // =======================================================
(PID.TID 0000.0001) %MON time_tsnumber                =                    10
(PID.TID 0000.0001) %MON time_secondsf                =   3.0000000000000E+03
(PID.TID 0000.0001) %MON dynstat_eta_max              =   1.9926700207820E-01
(PID.TID 0000.0001) %MON dynstat_eta_min              =  -1.8085240811771E-01
(PID.TID 0000.0001) %MON dynstat_eta_mean             =   2.5813385030003E-02
(PID.TID 0000.0001) %MON dynstat_eta_sd               =   4.2054595117686E-02
(PID.TID 0000.0001) %MON dynstat_eta_del2             =   1.5138562888428E-04
(PID.TID 0000.0001) %MON dynstat_uvel_max             =   3.2815512313945E-01
(PID.TID 0000.0001) %MON dynstat_uvel_min             =  -2.3098594547182E-01
(PID.TID 0000.0001) %MON dynstat_uvel_mean            =  -3.1126844872606E-04
(PID.TID 0000.0001) %MON dynstat_uvel_sd              =   5.1946214677969E-03
(PID.TID 0000.0001) %MON dynstat_uvel_del2            =   4.2553646977276E-05
(PID.TID 0000.0001) %MON dynstat_vvel_max             =   8.6443198629303E-04
(PID.TID 0000.0001) %MON dynstat_vvel_min             =  -1.9393425212476E+00
(PID.TID 0000.0001) %MON dynstat_vvel_mean            =  -1.7150210014481E-03
(PID.TID 0000.0001) %MON dynstat_vvel_sd              =   1.0656070536498E-02
(PID.TID 0000.0001) %MON dynstat_vvel_del2            =   6.6381126957194E-05
(PID.TID 0000.0001) %MON dynstat_wvel_max             =   2.0693596036376E-02
(PID.TID 0000.0001) %MON dynstat_wvel_min             =  -4.8654876671778E-02
(PID.TID 0000.0001) %MON dynstat_wvel_mean            =   2.4667319596347E-21
(PID.TID 0000.0001) %MON dynstat_wvel_sd              =   2.4195246007235E-04
(PID.TID 0000.0001) %MON dynstat_wvel_del2            =   2.7627249348588E-06
(PID.TID 0000.0001) %MON dynstat_theta_max            =  -1.9417475728156E-01
(PID.TID 0000.0001) %MON dynstat_theta_min            =  -9.7087381093410E+00
(PID.TID 0000.0001) %MON dynstat_theta_mean           =  -4.1282853194237E+00
(PID.TID 0000.0001) %MON dynstat_theta_sd             =   2.6833525254875E+00
(PID.TID 0000.0001) %MON dynstat_theta_del2           =   3.7782681435182E-04
(PID.TID 0000.0001) %MON dynstat_salt_max             =   2.0000000000000E+00
(PID.TID 0000.0001) %MON dynstat_salt_min             =   1.0000000000000E+00
(PID.TID 0000.0001) %MON dynstat_salt_mean            =   1.0000370747749E+00
(PID.TID 0000.0001) %MON dynstat_salt_sd              =   5.3822226874156E-03
(PID.TID 0000.0001) %MON dynstat_salt_del2            =   4.6399993601596E-05
(PID.TID 0000.0001) %MON advcfl_uvel_max              =   9.8446536941835E-03
(PID.TID 0000.0001) %MON advcfl_vvel_max              =   5.8180275462155E-02
(PID.TID 0000.0001) %MON advcfl_wvel_max              =   2.0272865279907E-01
(PID.TID 0000.0001) %MON advcfl_W_hf_max              =   2.0272865279907E-01
(PID.TID 0000.0001) %MON pe_b_mean                    =   4.4704269867778E-06
(PID.TID 0000.0001) %MON ke_max                       =   1.1190491629970E+00
(PID.TID 0000.0001) %MON ke_mean                      =   6.7875655848581E-05
(PID.TID 0000.0001) %MON ke_vol                       =   2.7059236822588E+15
(PID.TID 0000.0001) %MON vort_r_min                   =  -1.9393425212476E-04
(PID.TID 0000.0001) %MON vort_r_max                   =   1.3139056635681E-04
(PID.TID 0000.0001) %MON vort_a_mean                  =   1.0000000000000E-04
(PID.TID 0000.0001) %MON vort_a_sd                    =   9.9173927351469E-07
(PID.TID 0000.0001) %MON vort_p_mean                  =   1.1277618388223E-04
(PID.TID 0000.0001) %MON vort_p_sd                    =   7.1114340836055E-05
(PID.TID 0000.0001) %MON surfExpan_theta_mean         =   2.3603941956192E-09
(PID.TID 0000.0001) %MON surfExpan_salt_mean          =  -4.9624094264048E-13
(PID.TID 0000.0001) // =======================================================
(PID.TID 0000.0001) // End MONITOR dynamic field statistics
(PID.TID 0000.0001) // =======================================================
 Computing Diagnostic #  95  VISCA4D      Counter:      10   Parms: SM      MR      
 cg2d: Sum(rhs),rhsMax =  -4.58327717992124E+02  4.87051741617920E-02
(PID.TID 0000.0001)                    cg2d_init_res =    2.67322941961300E+00
(PID.TID 0000.0001)                       cg2d_iters =    91
(PID.TID 0000.0001)                         cg2d_res =    8.37235916426863E-12
(PID.TID 0000.0001) // =======================================================
(PID.TID 0000.0001) // Begin MONITOR dynamic field statistics
(PID.TID 0000.0001) // =======================================================
(PID.TID 0000.0001) %MON time_tsnumber                =                    11
(PID.TID 0000.0001) %MON time_secondsf                =   3.3000000000000E+03
(PID.TID 0000.0001) %MON dynstat_eta_max              =   1.7855177618238E-01
(PID.TID 0000.0001) %MON dynstat_eta_min              =  -2.2575009053018E-01
(PID.TID 0000.0001) %MON dynstat_eta_mean             =   2.8394723529431E-02
(PID.TID 0000.0001) %MON dynstat_eta_sd               =   4.3140624209528E-02
(PID.TID 0000.0001) %MON dynstat_eta_del2             =   1.8203143989106E-04
(PID.TID 0000.0001) %MON dynstat_uvel_max             =   3.2964147295910E-01
(PID.TID 0000.0001) %MON dynstat_uvel_min             =  -2.2537004885352E-01
(PID.TID 0000.0001) %MON dynstat_uvel_mean            =  -4.7645278391688E-04
(PID.TID 0000.0001) %MON dynstat_uvel_sd              =   5.1428972475005E-03
(PID.TID 0000.0001) %MON dynstat_uvel_del2            =   4.3979216217826E-05
(PID.TID 0000.0001) %MON dynstat_vvel_max             =   7.3646900986416E-04
(PID.TID 0000.0001) %MON dynstat_vvel_min             =  -1.9393425212476E+00
(PID.TID 0000.0001) %MON dynstat_vvel_mean            =  -1.8198377055569E-03
(PID.TID 0000.0001) %MON dynstat_vvel_sd              =   1.0503678551277E-02
(PID.TID 0000.0001) %MON dynstat_vvel_del2            =   6.7103566566158E-05
(PID.TID 0000.0001) %MON dynstat_wvel_max             =   2.0160500195116E-02
(PID.TID 0000.0001) %MON dynstat_wvel_min             =  -4.8654876671778E-02
(PID.TID 0000.0001) %MON dynstat_wvel_mean            =  -1.2545731776604E-20
(PID.TID 0000.0001) %MON dynstat_wvel_sd              =   2.4133411294118E-04
(PID.TID 0000.0001) %MON dynstat_wvel_del2            =   2.7568768988719E-06
(PID.TID 0000.0001) %MON dynstat_theta_max            =  -1.9417475728157E-01
(PID.TID 0000.0001) %MON dynstat_theta_min            =  -9.7087381093410E+00
(PID.TID 0000.0001) %MON dynstat_theta_mean           =  -4.1282935539474E+00
(PID.TID 0000.0001) %MON dynstat_theta_sd             =   2.6833500962041E+00
(PID.TID 0000.0001) %MON dynstat_theta_del2           =   3.7881282919808E-04
(PID.TID 0000.0001) %MON dynstat_salt_max             =   2.0000000000000E+00
(PID.TID 0000.0001) %MON dynstat_salt_min             =   1.0000000000000E+00
(PID.TID 0000.0001) %MON dynstat_salt_mean            =   1.0000379422321E+00
(PID.TID 0000.0001) %MON dynstat_salt_sd              =   5.4277602277227E-03
(PID.TID 0000.0001) %MON dynstat_salt_del2            =   4.6415765504511E-05
(PID.TID 0000.0001) %MON advcfl_uvel_max              =   9.8892441887729E-03
(PID.TID 0000.0001) %MON advcfl_vvel_max              =   5.8180275462155E-02
(PID.TID 0000.0001) %MON advcfl_wvel_max              =   2.0272865279907E-01
(PID.TID 0000.0001) %MON advcfl_W_hf_max              =   2.0272865279907E-01
(PID.TID 0000.0001) %MON pe_b_mean                    =   4.8972042743729E-06
(PID.TID 0000.0001) %MON ke_max                       =   1.1354330484371E+00
(PID.TID 0000.0001) %MON ke_mean                      =   6.6341497958070E-05
(PID.TID 0000.0001) %MON ke_vol                       =   2.7059236822588E+15
(PID.TID 0000.0001) %MON vort_r_min                   =  -1.9393425212476E-04
(PID.TID 0000.0001) %MON vort_r_max                   =   1.3116454636113E-04
(PID.TID 0000.0001) %MON vort_a_mean                  =   1.0000000000000E-04
(PID.TID 0000.0001) %MON vort_a_sd                    =   9.8917169114740E-07
(PID.TID 0000.0001) %MON vort_p_mean                  =   1.1277618388223E-04
(PID.TID 0000.0001) %MON vort_p_sd                    =   7.1108391027251E-05
(PID.TID 0000.0001) %MON surfExpan_theta_mean         =   1.7407912140231E-09
(PID.TID 0000.0001) %MON surfExpan_salt_mean          =  -6.3016500421011E-13
(PID.TID 0000.0001) // =======================================================
(PID.TID 0000.0001) // End MONITOR dynamic field statistics
(PID.TID 0000.0001) // =======================================================
 cg2d: Sum(rhs),rhsMax =  -5.27879284132960E+02  4.61323060816892E-02
(PID.TID 0000.0001)                    cg2d_init_res =    2.75773425931476E+00
(PID.TID 0000.0001)                       cg2d_iters =    91
(PID.TID 0000.0001)                         cg2d_res =    7.67916623271446E-12
(PID.TID 0000.0001) // =======================================================
(PID.TID 0000.0001) // Begin MONITOR dynamic field statistics
(PID.TID 0000.0001) // =======================================================
(PID.TID 0000.0001) %MON time_tsnumber                =                    12
(PID.TID 0000.0001) %MON time_secondsf                =   3.6000000000000E+03
(PID.TID 0000.0001) %MON dynstat_eta_max              =   1.6254574581934E-01
(PID.TID 0000.0001) %MON dynstat_eta_min              =  -2.2296002298531E-01
(PID.TID 0000.0001) %MON dynstat_eta_mean             =   3.0976062017312E-02
(PID.TID 0000.0001) %MON dynstat_eta_sd               =   4.4995132908565E-02
(PID.TID 0000.0001) %MON dynstat_eta_del2             =   1.9089637615100E-04
(PID.TID 0000.0001) %MON dynstat_uvel_max             =   3.3002680505150E-01
(PID.TID 0000.0001) %MON dynstat_uvel_min             =  -2.1977823374444E-01
(PID.TID 0000.0001) %MON dynstat_uvel_mean            =  -6.7633207795557E-04
(PID.TID 0000.0001) %MON dynstat_uvel_sd              =   5.0421755483040E-03
(PID.TID 0000.0001) %MON dynstat_uvel_del2            =   4.5061983148479E-05
(PID.TID 0000.0001) %MON dynstat_vvel_max             =   7.3262345256981E-04
(PID.TID 0000.0001) %MON dynstat_vvel_min             =  -1.9393425212476E+00
(PID.TID 0000.0001) %MON dynstat_vvel_mean            =  -1.8529047354591E-03
(PID.TID 0000.0001) %MON dynstat_vvel_sd              =   1.0337072134077E-02
(PID.TID 0000.0001) %MON dynstat_vvel_del2            =   6.7543567161728E-05
(PID.TID 0000.0001) %MON dynstat_wvel_max             =   1.9602010448498E-02
(PID.TID 0000.0001) %MON dynstat_wvel_min             =  -4.8654876671778E-02
(PID.TID 0000.0001) %MON dynstat_wvel_mean            =   2.0983964181508E-21
(PID.TID 0000.0001) %MON dynstat_wvel_sd              =   2.4060930882964E-04
(PID.TID 0000.0001) %MON dynstat_wvel_del2            =   2.7411328713322E-06
(PID.TID 0000.0001) %MON dynstat_theta_max            =  -1.9417475728166E-01
(PID.TID 0000.0001) %MON dynstat_theta_min            =  -9.7087381093410E+00
(PID.TID 0000.0001) %MON dynstat_theta_mean           =  -4.1283017883795E+00
(PID.TID 0000.0001) %MON dynstat_theta_sd             =   2.6833479258209E+00
(PID.TID 0000.0001) %MON dynstat_theta_del2           =   3.7968820793880E-04
(PID.TID 0000.0001) %MON dynstat_salt_max             =   2.0000000000000E+00
(PID.TID 0000.0001) %MON dynstat_salt_min             =   1.0000000000000E+00
(PID.TID 0000.0001) %MON dynstat_salt_mean            =   1.0000388096894E+00
(PID.TID 0000.0001) %MON dynstat_salt_sd              =   5.4746856967045E-03
(PID.TID 0000.0001) %MON dynstat_salt_del2            =   4.6424757834090E-05
(PID.TID 0000.0001) %MON advcfl_uvel_max              =   9.9008041515450E-03
(PID.TID 0000.0001) %MON advcfl_vvel_max              =   5.8180275462155E-02
(PID.TID 0000.0001) %MON advcfl_wvel_max              =   2.0272865279907E-01
(PID.TID 0000.0001) %MON advcfl_W_hf_max              =   2.0272865279907E-01
(PID.TID 0000.0001) %MON pe_b_mean                    =   5.4786628009653E-06
(PID.TID 0000.0001) %MON ke_max                       =   1.1533688881161E+00
(PID.TID 0000.0001) %MON ke_mean                      =   6.4380948029478E-05
(PID.TID 0000.0001) %MON ke_vol                       =   2.7059236822588E+15
(PID.TID 0000.0001) %MON vort_r_min                   =  -1.9393425212476E-04
(PID.TID 0000.0001) %MON vort_r_max                   =   1.3088865603785E-04
(PID.TID 0000.0001) %MON vort_a_mean                  =   1.0000000000000E-04
(PID.TID 0000.0001) %MON vort_a_sd                    =   9.8705647069979E-07
(PID.TID 0000.0001) %MON vort_p_mean                  =   1.1277618388223E-04
(PID.TID 0000.0001) %MON vort_p_sd                    =   7.1102338567959E-05
(PID.TID 0000.0001) %MON surfExpan_theta_mean         =   9.2330012074477E-10
(PID.TID 0000.0001) %MON surfExpan_salt_mean          =  -6.1694480956526E-13
(PID.TID 0000.0001) // =======================================================
(PID.TID 0000.0001) // End MONITOR dynamic field statistics
(PID.TID 0000.0001) // =======================================================
 cg2d: Sum(rhs),rhsMax =  -5.54339443392731E+02  4.75911400018832E-02
(PID.TID 0000.0001)                    cg2d_init_res =    2.52269807804915E+00
(PID.TID 0000.0001)                       cg2d_iters =    90
(PID.TID 0000.0001)                         cg2d_res =    8.41410281004494E-12
(PID.TID 0000.0001) // =======================================================
(PID.TID 0000.0001) // Begin MONITOR dynamic field statistics
(PID.TID 0000.0001) // =======================================================
(PID.TID 0000.0001) %MON time_tsnumber                =                    13
(PID.TID 0000.0001) %MON time_secondsf                =   3.9000000000000E+03
(PID.TID 0000.0001) %MON dynstat_eta_max              =   1.7392086778984E-01
(PID.TID 0000.0001) %MON dynstat_eta_min              =  -1.9607143498445E-01
(PID.TID 0000.0001) %MON dynstat_eta_mean             =   3.3557400463781E-02
(PID.TID 0000.0001) %MON dynstat_eta_sd               =   4.6902149341965E-02
(PID.TID 0000.0001) %MON dynstat_eta_del2             =   1.8211041647610E-04
(PID.TID 0000.0001) %MON dynstat_uvel_max             =   3.2929773526222E-01
(PID.TID 0000.0001) %MON dynstat_uvel_min             =  -2.1519950620134E-01
(PID.TID 0000.0001) %MON dynstat_uvel_mean            =  -9.0350707459668E-04
(PID.TID 0000.0001) %MON dynstat_uvel_sd              =   4.9194989896848E-03
(PID.TID 0000.0001) %MON dynstat_uvel_del2            =   4.5708512311400E-05
(PID.TID 0000.0001) %MON dynstat_vvel_max             =   8.1023226111561E-04
(PID.TID 0000.0001) %MON dynstat_vvel_min             =  -1.9393425212476E+00
(PID.TID 0000.0001) %MON dynstat_vvel_mean            =  -1.8090160970415E-03
(PID.TID 0000.0001) %MON dynstat_vvel_sd              =   1.0176009488305E-02
(PID.TID 0000.0001) %MON dynstat_vvel_del2            =   6.7452811502553E-05
(PID.TID 0000.0001) %MON dynstat_wvel_max             =   1.9015413230267E-02
(PID.TID 0000.0001) %MON dynstat_wvel_min             =  -4.8654876671778E-02
(PID.TID 0000.0001) %MON dynstat_wvel_mean            =   1.8305160243443E-21
(PID.TID 0000.0001) %MON dynstat_wvel_sd              =   2.3980179073419E-04
(PID.TID 0000.0001) %MON dynstat_wvel_del2            =   2.7088227162189E-06
(PID.TID 0000.0001) %MON dynstat_theta_max            =  -1.9417475728209E-01
(PID.TID 0000.0001) %MON dynstat_theta_min            =  -9.7087381093410E+00
(PID.TID 0000.0001) %MON dynstat_theta_mean           =  -4.1283100227087E+00
(PID.TID 0000.0001) %MON dynstat_theta_sd             =   2.6833460295744E+00
(PID.TID 0000.0001) %MON dynstat_theta_del2           =   3.8052139346242E-04
(PID.TID 0000.0001) %MON dynstat_salt_max             =   2.0000000000000E+00
(PID.TID 0000.0001) %MON dynstat_salt_min             =   1.0000000000000E+00
(PID.TID 0000.0001) %MON dynstat_salt_mean            =   1.0000396771466E+00
(PID.TID 0000.0001) %MON dynstat_salt_sd              =   5.5232316278522E-03
(PID.TID 0000.0001) %MON dynstat_salt_del2            =   4.6432348980277E-05
(PID.TID 0000.0001) %MON advcfl_uvel_max              =   9.8789320578665E-03
(PID.TID 0000.0001) %MON advcfl_vvel_max              =   5.8180275462155E-02
(PID.TID 0000.0001) %MON advcfl_wvel_max              =   2.0272865279907E-01
(PID.TID 0000.0001) %MON advcfl_W_hf_max              =   2.0272865279907E-01
(PID.TID 0000.0001) %MON pe_b_mean                    =   6.1062549235174E-06
(PID.TID 0000.0001) %MON ke_max                       =   1.1730085613989E+00
(PID.TID 0000.0001) %MON ke_mean                      =   6.2333538776877E-05
(PID.TID 0000.0001) %MON ke_vol                       =   2.7059236822588E+15
(PID.TID 0000.0001) %MON vort_r_min                   =  -1.9393425212476E-04
(PID.TID 0000.0001) %MON vort_r_max                   =   1.3055911377112E-04
(PID.TID 0000.0001) %MON vort_a_mean                  =   1.0000000000000E-04
(PID.TID 0000.0001) %MON vort_a_sd                    =   9.8579279780358E-07
(PID.TID 0000.0001) %MON vort_p_mean                  =   1.1277618388223E-04
(PID.TID 0000.0001) %MON vort_p_sd                    =   7.1096602958350E-05
(PID.TID 0000.0001) %MON surfExpan_theta_mean         =   1.0640131503912E-11
(PID.TID 0000.0001) %MON surfExpan_salt_mean          =  -3.7078778554747E-13
(PID.TID 0000.0001) // =======================================================
(PID.TID 0000.0001) // End MONITOR dynamic field statistics
(PID.TID 0000.0001) // =======================================================
 cg2d: Sum(rhs),rhsMax =  -5.78083935504239E+02  4.91468479876411E-02
(PID.TID 0000.0001)                    cg2d_init_res =    2.19610048653438E+00
(PID.TID 0000.0001)                       cg2d_iters =    89
(PID.TID 0000.0001)                         cg2d_res =    9.31459764230846E-12
(PID.TID 0000.0001) // =======================================================
(PID.TID 0000.0001) // Begin MONITOR dynamic field statistics
(PID.TID 0000.0001) // =======================================================
(PID.TID 0000.0001) %MON time_tsnumber                =                    14
(PID.TID 0000.0001) %MON time_secondsf                =   4.2000000000000E+03
(PID.TID 0000.0001) %MON dynstat_eta_max              =   1.6733497702821E-01
(PID.TID 0000.0001) %MON dynstat_eta_min              =  -1.7893991122711E-01
(PID.TID 0000.0001) %MON dynstat_eta_mean             =   3.6138738775405E-02
(PID.TID 0000.0001) %MON dynstat_eta_sd               =   4.8301351159857E-02
(PID.TID 0000.0001) %MON dynstat_eta_del2             =   1.6481426438651E-04
(PID.TID 0000.0001) %MON dynstat_uvel_max             =   3.2766988486471E-01
(PID.TID 0000.0001) %MON dynstat_uvel_min             =  -2.1241047280002E-01
(PID.TID 0000.0001) %MON dynstat_uvel_mean            =  -1.1469246996229E-03
(PID.TID 0000.0001) %MON dynstat_uvel_sd              =   4.8055345224082E-03
(PID.TID 0000.0001) %MON dynstat_uvel_del2            =   4.6042544443154E-05
(PID.TID 0000.0001) %MON dynstat_vvel_max             =   8.8829839554256E-04
(PID.TID 0000.0001) %MON dynstat_vvel_min             =  -1.9393425212476E+00
(PID.TID 0000.0001) %MON dynstat_vvel_mean            =  -1.6923043089256E-03
(PID.TID 0000.0001) %MON dynstat_vvel_sd              =   1.0036848454506E-02
(PID.TID 0000.0001) %MON dynstat_vvel_del2            =   6.7040364064462E-05
(PID.TID 0000.0001) %MON dynstat_wvel_max             =   1.8391265943524E-02
(PID.TID 0000.0001) %MON dynstat_wvel_min             =  -4.8654876671778E-02
(PID.TID 0000.0001) %MON dynstat_wvel_mean            =   1.6965758274411E-21
(PID.TID 0000.0001) %MON dynstat_wvel_sd              =   2.3896051931133E-04
(PID.TID 0000.0001) %MON dynstat_wvel_del2            =   2.6660293784200E-06
(PID.TID 0000.0001) %MON dynstat_theta_max            =  -1.9417475728388E-01
(PID.TID 0000.0001) %MON dynstat_theta_min            =  -9.7087381093410E+00
(PID.TID 0000.0001) %MON dynstat_theta_mean           =  -4.1283182569396E+00
(PID.TID 0000.0001) %MON dynstat_theta_sd             =   2.6833443867781E+00
(PID.TID 0000.0001) %MON dynstat_theta_del2           =   3.8157821470389E-04
(PID.TID 0000.0001) %MON dynstat_salt_max             =   2.0000000000000E+00
(PID.TID 0000.0001) %MON dynstat_salt_min             =   1.0000000000000E+00
(PID.TID 0000.0001) %MON dynstat_salt_mean            =   1.0000405446038E+00
(PID.TID 0000.0001) %MON dynstat_salt_sd              =   5.5731890209720E-03
(PID.TID 0000.0001) %MON dynstat_salt_del2            =   4.6437298546546E-05
(PID.TID 0000.0001) %MON advcfl_uvel_max              =   9.8300965459412E-03
(PID.TID 0000.0001) %MON advcfl_vvel_max              =   5.8180275462155E-02
(PID.TID 0000.0001) %MON advcfl_wvel_max              =   2.0272865279907E-01
(PID.TID 0000.0001) %MON advcfl_W_hf_max              =   2.0272865279907E-01
(PID.TID 0000.0001) %MON pe_b_mean                    =   6.6811289521453E-06
(PID.TID 0000.0001) %MON ke_max                       =   1.1945267943751E+00
(PID.TID 0000.0001) %MON ke_mean                      =   6.0526003528946E-05
(PID.TID 0000.0001) %MON ke_vol                       =   2.7059236822588E+15
(PID.TID 0000.0001) %MON vort_r_min                   =  -1.9393425212476E-04
(PID.TID 0000.0001) %MON vort_r_max                   =   1.3019407714946E-04
(PID.TID 0000.0001) %MON vort_a_mean                  =   9.9999999999995E-05
(PID.TID 0000.0001) %MON vort_a_sd                    =   9.8585608195235E-07
(PID.TID 0000.0001) %MON vort_p_mean                  =   1.1277618388222E-04
(PID.TID 0000.0001) %MON vort_p_sd                    =   7.1091527107503E-05
(PID.TID 0000.0001) %MON surfExpan_theta_mean         =  -8.5508412032428E-10
(PID.TID 0000.0001) %MON surfExpan_salt_mean          =   9.0598144270974E-14
(PID.TID 0000.0001) // =======================================================
(PID.TID 0000.0001) // End MONITOR dynamic field statistics
(PID.TID 0000.0001) // =======================================================
 cg2d: Sum(rhs),rhsMax =  -5.98607224478001E+02  5.08519760281145E-02
(PID.TID 0000.0001)                    cg2d_init_res =    1.82933043751712E+00
(PID.TID 0000.0001)                       cg2d_iters =    88
(PID.TID 0000.0001)                         cg2d_res =    9.81838580634789E-12
(PID.TID 0000.0001) // =======================================================
(PID.TID 0000.0001) // Begin MONITOR dynamic field statistics
(PID.TID 0000.0001) // =======================================================
(PID.TID 0000.0001) %MON time_tsnumber                =                    15
(PID.TID 0000.0001) %MON time_secondsf                =   4.5000000000000E+03
(PID.TID 0000.0001) %MON dynstat_eta_max              =   1.5147640127358E-01
(PID.TID 0000.0001) %MON dynstat_eta_min              =  -1.5004202868821E-01
(PID.TID 0000.0001) %MON dynstat_eta_mean             =   3.8720076684865E-02
(PID.TID 0000.0001) %MON dynstat_eta_sd               =   4.8899622541546E-02
(PID.TID 0000.0001) %MON dynstat_eta_del2             =   1.4508889713952E-04
(PID.TID 0000.0001) %MON dynstat_uvel_max             =   3.2542274963383E-01
(PID.TID 0000.0001) %MON dynstat_uvel_min             =  -2.1174900328313E-01
(PID.TID 0000.0001) %MON dynstat_uvel_mean            =  -1.3942066448535E-03
(PID.TID 0000.0001) %MON dynstat_uvel_sd              =   4.7213359355933E-03
(PID.TID 0000.0001) %MON dynstat_uvel_del2            =   4.6341733957113E-05
(PID.TID 0000.0001) %MON dynstat_vvel_max             =   9.7207393658115E-04
(PID.TID 0000.0001) %MON dynstat_vvel_min             =  -1.9393425212476E+00
(PID.TID 0000.0001) %MON dynstat_vvel_mean            =  -1.5157528416995E-03
(PID.TID 0000.0001) %MON dynstat_vvel_sd              =   9.9315153328028E-03
(PID.TID 0000.0001) %MON dynstat_vvel_del2            =   6.6099388279014E-05
(PID.TID 0000.0001) %MON dynstat_wvel_max             =   1.7722080304793E-02
(PID.TID 0000.0001) %MON dynstat_wvel_min             =  -4.8654876671778E-02
(PID.TID 0000.0001) %MON dynstat_wvel_mean            =   9.3758137832269E-22
(PID.TID 0000.0001) %MON dynstat_wvel_sd              =   2.3815139805041E-04
(PID.TID 0000.0001) %MON dynstat_wvel_del2            =   2.6109835615188E-06
(PID.TID 0000.0001) %MON dynstat_theta_max            =  -1.9417475729054E-01
(PID.TID 0000.0001) %MON dynstat_theta_min            =  -9.7087381093410E+00
(PID.TID 0000.0001) %MON dynstat_theta_mean           =  -4.1283264910911E+00
(PID.TID 0000.0001) %MON dynstat_theta_sd             =   2.6833429621314E+00
(PID.TID 0000.0001) %MON dynstat_theta_del2           =   3.8390251551204E-04
(PID.TID 0000.0001) %MON dynstat_salt_max             =   2.0000000000000E+00
(PID.TID 0000.0001) %MON dynstat_salt_min             =   1.0000000000000E+00
(PID.TID 0000.0001) %MON dynstat_salt_mean            =   1.0000414120609E+00
(PID.TID 0000.0001) %MON dynstat_salt_sd              =   5.6243427807235E-03
(PID.TID 0000.0001) %MON dynstat_salt_del2            =   4.6572499577958E-05
(PID.TID 0000.0001) %MON advcfl_uvel_max              =   9.7626824890149E-03
(PID.TID 0000.0001) %MON advcfl_vvel_max              =   5.8180275462155E-02
(PID.TID 0000.0001) %MON advcfl_wvel_max              =   2.0272865279907E-01
(PID.TID 0000.0001) %MON advcfl_W_hf_max              =   2.0272865279907E-01
(PID.TID 0000.0001) %MON pe_b_mean                    =   7.1426693049412E-06
(PID.TID 0000.0001) %MON ke_max                       =   1.2180499012943E+00
(PID.TID 0000.0001) %MON ke_mean                      =   5.9192750952188E-05
(PID.TID 0000.0001) %MON ke_vol                       =   2.7059236822588E+15
(PID.TID 0000.0001) %MON vort_r_min                   =  -1.9393425212476E-04
(PID.TID 0000.0001) %MON vort_r_max                   =   1.2981702570231E-04
(PID.TID 0000.0001) %MON vort_a_mean                  =   9.9999999999983E-05
(PID.TID 0000.0001) %MON vort_a_sd                    =   9.8753166247415E-07
(PID.TID 0000.0001) %MON vort_p_mean                  =   1.1277618388221E-04
(PID.TID 0000.0001) %MON vort_p_sd                    =   7.1087346968636E-05
(PID.TID 0000.0001) %MON surfExpan_theta_mean         =  -1.5429477736168E-09
(PID.TID 0000.0001) %MON surfExpan_salt_mean          =   6.4981831182662E-13
(PID.TID 0000.0001) // =======================================================
(PID.TID 0000.0001) // End MONITOR dynamic field statistics
(PID.TID 0000.0001) // =======================================================
 cg2d: Sum(rhs),rhsMax =  -5.86541299666259E+02  5.53579369516717E-02
(PID.TID 0000.0001)                    cg2d_init_res =    1.43221862855583E+00
(PID.TID 0000.0001)                       cg2d_iters =    88
(PID.TID 0000.0001)                         cg2d_res =    8.76622627166188E-12
(PID.TID 0000.0001) // =======================================================
(PID.TID 0000.0001) // Begin MONITOR dynamic field statistics
(PID.TID 0000.0001) // =======================================================
(PID.TID 0000.0001) %MON time_tsnumber                =                    16
(PID.TID 0000.0001) %MON time_secondsf                =   4.8000000000000E+03
(PID.TID 0000.0001) %MON dynstat_eta_max              =   1.6422063702164E-01
(PID.TID 0000.0001) %MON dynstat_eta_min              =  -1.1183544921650E-01
(PID.TID 0000.0001) %MON dynstat_eta_mean             =   4.1301413487658E-02
(PID.TID 0000.0001) %MON dynstat_eta_sd               =   4.8666300146450E-02
(PID.TID 0000.0001) %MON dynstat_eta_del2             =   1.2063246824682E-04
(PID.TID 0000.0001) %MON dynstat_uvel_max             =   3.2278217791969E-01
(PID.TID 0000.0001) %MON dynstat_uvel_min             =  -2.1310382731929E-01
(PID.TID 0000.0001) %MON dynstat_uvel_mean            =  -1.6339321909148E-03
(PID.TID 0000.0001) %MON dynstat_uvel_sd              =   4.6731019609091E-03
(PID.TID 0000.0001) %MON dynstat_uvel_del2            =   4.6896573840151E-05
(PID.TID 0000.0001) %MON dynstat_vvel_max             =   1.2518825985562E-03
(PID.TID 0000.0001) %MON dynstat_vvel_min             =  -1.9393425212476E+00
(PID.TID 0000.0001) %MON dynstat_vvel_mean            =  -1.2990583327047E-03
(PID.TID 0000.0001) %MON dynstat_vvel_sd              =   9.8665389423630E-03
(PID.TID 0000.0001) %MON dynstat_vvel_del2            =   6.4653758192796E-05
(PID.TID 0000.0001) %MON dynstat_wvel_max             =   1.7007134221481E-02
(PID.TID 0000.0001) %MON dynstat_wvel_min             =  -4.8654876671778E-02
(PID.TID 0000.0001) %MON dynstat_wvel_mean            =   1.0045514767743E-20
(PID.TID 0000.0001) %MON dynstat_wvel_sd              =   2.3743684011542E-04
(PID.TID 0000.0001) %MON dynstat_wvel_del2            =   2.5463460844903E-06
(PID.TID 0000.0001) %MON dynstat_theta_max            =  -1.9417475731311E-01
(PID.TID 0000.0001) %MON dynstat_theta_min            =  -9.7087381093410E+00
(PID.TID 0000.0001) %MON dynstat_theta_mean           =  -4.1283347251893E+00
(PID.TID 0000.0001) %MON dynstat_theta_sd             =   2.6833417157674E+00
(PID.TID 0000.0001) %MON dynstat_theta_del2           =   3.8594429302572E-04
(PID.TID 0000.0001) %MON dynstat_salt_max             =   2.0000000000000E+00
(PID.TID 0000.0001) %MON dynstat_salt_min             =   1.0000000000000E+00
(PID.TID 0000.0001) %MON dynstat_salt_mean            =   1.0000422795180E+00
(PID.TID 0000.0001) %MON dynstat_salt_sd              =   5.6764871471846E-03
(PID.TID 0000.0001) %MON dynstat_salt_del2            =   4.6753740144691E-05
(PID.TID 0000.0001) %MON advcfl_uvel_max              =   9.6834653375907E-03
(PID.TID 0000.0001) %MON advcfl_vvel_max              =   5.8180275462155E-02
(PID.TID 0000.0001) %MON advcfl_wvel_max              =   2.0272865279907E-01
(PID.TID 0000.0001) %MON advcfl_W_hf_max              =   2.0272865279907E-01
(PID.TID 0000.0001) %MON pe_b_mean                    =   7.4801161453763E-06
(PID.TID 0000.0001) %MON ke_max                       =   1.2436154700162E+00
(PID.TID 0000.0001) %MON ke_mean                      =   5.8442808151384E-05
(PID.TID 0000.0001) %MON ke_vol                       =   2.7059236822588E+15
(PID.TID 0000.0001) %MON vort_r_min                   =  -1.9393425212476E-04
(PID.TID 0000.0001) %MON vort_r_max                   =   1.2944457056719E-04
(PID.TID 0000.0001) %MON vort_a_mean                  =   9.9999999999952E-05
(PID.TID 0000.0001) %MON vort_a_sd                    =   9.9082283394565E-07
(PID.TID 0000.0001) %MON vort_p_mean                  =   1.1277618388217E-04
(PID.TID 0000.0001) %MON vort_p_sd                    =   7.1084168136403E-05
(PID.TID 0000.0001) %MON surfExpan_theta_mean         =  -1.9938226746757E-09
(PID.TID 0000.0001) %MON surfExpan_salt_mean          =   1.1570372035207E-12
(PID.TID 0000.0001) // =======================================================
(PID.TID 0000.0001) // End MONITOR dynamic field statistics
(PID.TID 0000.0001) // =======================================================
 cg2d: Sum(rhs),rhsMax =  -5.76200739160327E+02  5.98733527677827E-02
(PID.TID 0000.0001)                    cg2d_init_res =    1.19325025358667E+00
(PID.TID 0000.0001)                       cg2d_iters =    88
(PID.TID 0000.0001)                         cg2d_res =    8.61295175204984E-12
(PID.TID 0000.0001) // =======================================================
(PID.TID 0000.0001) // Begin MONITOR dynamic field statistics
(PID.TID 0000.0001) // =======================================================
(PID.TID 0000.0001) %MON time_tsnumber                =                    17
(PID.TID 0000.0001) %MON time_secondsf                =   5.1000000000000E+03
(PID.TID 0000.0001) %MON dynstat_eta_max              =   1.6760193215710E-01
(PID.TID 0000.0001) %MON dynstat_eta_min              =  -7.0024815338586E-02
(PID.TID 0000.0001) %MON dynstat_eta_mean             =   4.3882747463133E-02
(PID.TID 0000.0001) %MON dynstat_eta_sd               =   4.7755674672829E-02
(PID.TID 0000.0001) %MON dynstat_eta_del2             =   9.2992710935628E-05
(PID.TID 0000.0001) %MON dynstat_uvel_max             =   3.1988064173786E-01
(PID.TID 0000.0001) %MON dynstat_uvel_min             =  -2.1605700718729E-01
(PID.TID 0000.0001) %MON dynstat_uvel_mean            =  -1.8573004128800E-03
(PID.TID 0000.0001) %MON dynstat_uvel_sd              =   4.6564479851894E-03
(PID.TID 0000.0001) %MON dynstat_uvel_del2            =   4.7361264689758E-05
(PID.TID 0000.0001) %MON dynstat_vvel_max             =   1.5868892529013E-03
(PID.TID 0000.0001) %MON dynstat_vvel_min             =  -1.9393425212476E+00
(PID.TID 0000.0001) %MON dynstat_vvel_mean            =  -1.0654791974856E-03
(PID.TID 0000.0001) %MON dynstat_vvel_sd              =   9.8427586635601E-03
(PID.TID 0000.0001) %MON dynstat_vvel_del2            =   6.3020166488882E-05
(PID.TID 0000.0001) %MON dynstat_wvel_max             =   1.6252393452959E-02
(PID.TID 0000.0001) %MON dynstat_wvel_min             =  -4.8654876671778E-02
(PID.TID 0000.0001) %MON dynstat_wvel_mean            =   8.4828791372053E-22
(PID.TID 0000.0001) %MON dynstat_wvel_sd              =   2.3685933476726E-04
(PID.TID 0000.0001) %MON dynstat_wvel_del2            =   2.4919215554831E-06
(PID.TID 0000.0001) %MON dynstat_theta_max            =  -1.9417475738336E-01
(PID.TID 0000.0001) %MON dynstat_theta_min            =  -9.7087381093410E+00
(PID.TID 0000.0001) %MON dynstat_theta_mean           =  -4.1283429592590E+00
(PID.TID 0000.0001) %MON dynstat_theta_sd             =   2.6833406298602E+00
(PID.TID 0000.0001) %MON dynstat_theta_del2           =   3.8782326394887E-04
(PID.TID 0000.0001) %MON dynstat_salt_max             =   2.0000000000000E+00
(PID.TID 0000.0001) %MON dynstat_salt_min             =   1.0000000000000E+00
(PID.TID 0000.0001) %MON dynstat_salt_mean            =   1.0000431469751E+00
(PID.TID 0000.0001) %MON dynstat_salt_sd              =   5.7292648448108E-03
(PID.TID 0000.0001) %MON dynstat_salt_del2            =   4.6923619647617E-05
(PID.TID 0000.0001) %MON advcfl_uvel_max              =   9.5964192521358E-03
(PID.TID 0000.0001) %MON advcfl_vvel_max              =   5.8180275462155E-02
(PID.TID 0000.0001) %MON advcfl_wvel_max              =   2.0272865279907E-01
(PID.TID 0000.0001) %MON advcfl_W_hf_max              =   2.0272865279907E-01
(PID.TID 0000.0001) %MON pe_b_mean                    =   7.7226185640745E-06
(PID.TID 0000.0001) %MON ke_max                       =   1.2711726621057E+00
(PID.TID 0000.0001) %MON ke_mean                      =   5.8276606944682E-05
(PID.TID 0000.0001) %MON ke_vol                       =   2.7059236822588E+15
(PID.TID 0000.0001) %MON vort_r_min                   =  -1.9393425212476E-04
(PID.TID 0000.0001) %MON vort_r_max                   =   1.2908270639689E-04
(PID.TID 0000.0001) %MON vort_a_mean                  =   9.9999999999874E-05
(PID.TID 0000.0001) %MON vort_a_sd                    =   9.9552305186128E-07
(PID.TID 0000.0001) %MON vort_p_mean                  =   1.1277618388209E-04
(PID.TID 0000.0001) %MON vort_p_sd                    =   7.1081959844753E-05
(PID.TID 0000.0001) %MON surfExpan_theta_mean         =  -2.2351590134194E-09
(PID.TID 0000.0001) %MON surfExpan_salt_mean          =   1.5075830585352E-12
(PID.TID 0000.0001) // =======================================================
(PID.TID 0000.0001) // End MONITOR dynamic field statistics
(PID.TID 0000.0001) // =======================================================
 cg2d: Sum(rhs),rhsMax =  -5.72326172781335E+02  6.38244770061006E-02
(PID.TID 0000.0001)                    cg2d_init_res =    1.12607415029947E+00
(PID.TID 0000.0001)                       cg2d_iters =    88
(PID.TID 0000.0001)                         cg2d_res =    7.75022311213930E-12
(PID.TID 0000.0001) // =======================================================
(PID.TID 0000.0001) // Begin MONITOR dynamic field statistics
(PID.TID 0000.0001) // =======================================================
(PID.TID 0000.0001) %MON time_tsnumber                =                    18
(PID.TID 0000.0001) %MON time_secondsf                =   5.4000000000000E+03
(PID.TID 0000.0001) %MON dynstat_eta_max              =   1.6167703122814E-01
(PID.TID 0000.0001) %MON dynstat_eta_min              =  -2.9627038465057E-02
(PID.TID 0000.0001) %MON dynstat_eta_mean             =   4.6464074696435E-02
(PID.TID 0000.0001) %MON dynstat_eta_sd               =   4.6429472162054E-02
(PID.TID 0000.0001) %MON dynstat_eta_del2             =   6.5749126217626E-05
(PID.TID 0000.0001) %MON dynstat_uvel_max             =   3.1677339941028E-01
(PID.TID 0000.0001) %MON dynstat_uvel_min             =  -2.2007388721679E-01
(PID.TID 0000.0001) %MON dynstat_uvel_mean            =  -2.0589331595486E-03
(PID.TID 0000.0001) %MON dynstat_uvel_sd              =   4.6640084157375E-03
(PID.TID 0000.0001) %MON dynstat_uvel_del2            =   4.7825346845494E-05
(PID.TID 0000.0001) %MON dynstat_vvel_max             =   1.7682522075693E-03
(PID.TID 0000.0001) %MON dynstat_vvel_min             =  -1.9393425212476E+00
(PID.TID 0000.0001) %MON dynstat_vvel_mean            =  -8.3845971734521E-04
(PID.TID 0000.0001) %MON dynstat_vvel_sd              =   9.8561757396831E-03
(PID.TID 0000.0001) %MON dynstat_vvel_del2            =   6.1462801858319E-05
(PID.TID 0000.0001) %MON dynstat_wvel_max             =   1.5467044665633E-02
(PID.TID 0000.0001) %MON dynstat_wvel_min             =  -4.8654876671778E-02
(PID.TID 0000.0001) %MON dynstat_wvel_mean            =  -7.3890341958289E-21
(PID.TID 0000.0001) %MON dynstat_wvel_sd              =   2.3643345807149E-04
(PID.TID 0000.0001) %MON dynstat_wvel_del2            =   2.4618226042845E-06
(PID.TID 0000.0001) %MON dynstat_theta_max            =  -1.9417475758580E-01
(PID.TID 0000.0001) %MON dynstat_theta_min            =  -9.7087381093410E+00
(PID.TID 0000.0001) %MON dynstat_theta_mean           =  -4.1283511933155E+00
(PID.TID 0000.0001) %MON dynstat_theta_sd             =   2.6833396340194E+00
(PID.TID 0000.0001) %MON dynstat_theta_del2           =   3.9050840811701E-04
(PID.TID 0000.0001) %MON dynstat_salt_max             =   2.0000000000000E+00
(PID.TID 0000.0001) %MON dynstat_salt_min             =   1.0000000000000E+00
(PID.TID 0000.0001) %MON dynstat_salt_mean            =   1.0000440144321E+00
(PID.TID 0000.0001) %MON dynstat_salt_sd              =   5.7823906691055E-03
(PID.TID 0000.0001) %MON dynstat_salt_del2            =   4.7207674230405E-05
(PID.TID 0000.0001) %MON advcfl_uvel_max              =   9.5032019823085E-03
(PID.TID 0000.0001) %MON advcfl_vvel_max              =   5.8180275462155E-02
(PID.TID 0000.0001) %MON advcfl_wvel_max              =   2.0272865279907E-01
(PID.TID 0000.0001) %MON advcfl_W_hf_max              =   2.0272865279907E-01
(PID.TID 0000.0001) %MON pe_b_mean                    =   7.9214648102883E-06
(PID.TID 0000.0001) %MON ke_max                       =   1.3006218086595E+00
(PID.TID 0000.0001) %MON ke_mean                      =   5.8626027734326E-05
(PID.TID 0000.0001) %MON ke_vol                       =   2.7059236822588E+15
(PID.TID 0000.0001) %MON vort_r_min                   =  -1.9393425212476E-04
(PID.TID 0000.0001) %MON vort_r_max                   =   1.2872972894282E-04
(PID.TID 0000.0001) %MON vort_a_mean                  =   9.9999999999696E-05
(PID.TID 0000.0001) %MON vort_a_sd                    =   1.0013480872312E-06
(PID.TID 0000.0001) %MON vort_p_mean                  =   1.1277618388189E-04
(PID.TID 0000.0001) %MON vort_p_sd                    =   7.1080572312005E-05
(PID.TID 0000.0001) %MON surfExpan_theta_mean         =  -2.3359832926126E-09
(PID.TID 0000.0001) %MON surfExpan_salt_mean          =   1.6766518094412E-12
(PID.TID 0000.0001) // =======================================================
(PID.TID 0000.0001) // End MONITOR dynamic field statistics
(PID.TID 0000.0001) // =======================================================
 cg2d: Sum(rhs),rhsMax =  -5.76218834110520E+02  6.69151250409462E-02
(PID.TID 0000.0001)                    cg2d_init_res =    1.16059293995388E+00
(PID.TID 0000.0001)                       cg2d_iters =    88
(PID.TID 0000.0001)                         cg2d_res =    7.86714745457354E-12
(PID.TID 0000.0001) // =======================================================
(PID.TID 0000.0001) // Begin MONITOR dynamic field statistics
(PID.TID 0000.0001) // =======================================================
(PID.TID 0000.0001) %MON time_tsnumber                =                    19
(PID.TID 0000.0001) %MON time_secondsf                =   5.7000000000000E+03
(PID.TID 0000.0001) %MON dynstat_eta_max              =   1.4799330724431E-01
(PID.TID 0000.0001) %MON dynstat_eta_min              =   0.0000000000000E+00
(PID.TID 0000.0001) %MON dynstat_eta_mean             =   4.9045386852634E-02
(PID.TID 0000.0001) %MON dynstat_eta_sd               =   4.5003392771631E-02
(PID.TID 0000.0001) %MON dynstat_eta_del2             =   6.1911288662669E-05
(PID.TID 0000.0001) %MON dynstat_uvel_max             =   3.1378525202181E-01
(PID.TID 0000.0001) %MON dynstat_uvel_min             =  -2.2465689580774E-01
(PID.TID 0000.0001) %MON dynstat_uvel_mean            =  -2.2368853471803E-03
(PID.TID 0000.0001) %MON dynstat_uvel_sd              =   4.6901249293535E-03
(PID.TID 0000.0001) %MON dynstat_uvel_del2            =   4.8213988774660E-05
(PID.TID 0000.0001) %MON dynstat_vvel_max             =   1.8167542663499E-03
(PID.TID 0000.0001) %MON dynstat_vvel_min             =  -1.9393425212476E+00
(PID.TID 0000.0001) %MON dynstat_vvel_mean            =  -6.3870902974660E-04
(PID.TID 0000.0001) %MON dynstat_vvel_sd              =   9.8998359239062E-03
(PID.TID 0000.0001) %MON dynstat_vvel_del2            =   6.0528555283550E-05
(PID.TID 0000.0001) %MON dynstat_wvel_max             =   1.4661488909103E-02
(PID.TID 0000.0001) %MON dynstat_wvel_min             =  -4.8654876671778E-02
(PID.TID 0000.0001) %MON dynstat_wvel_mean            =  -1.0101323183120E-20
(PID.TID 0000.0001) %MON dynstat_wvel_sd              =   2.3614713793532E-04
(PID.TID 0000.0001) %MON dynstat_wvel_del2            =   2.4515950356853E-06
(PID.TID 0000.0001) %MON dynstat_theta_max            =  -1.9417475812934E-01
(PID.TID 0000.0001) %MON dynstat_theta_min            =  -9.7087381093410E+00
(PID.TID 0000.0001) %MON dynstat_theta_mean           =  -4.1283594273646E+00
(PID.TID 0000.0001) %MON dynstat_theta_sd             =   2.6833386470485E+00
(PID.TID 0000.0001) %MON dynstat_theta_del2           =   3.9274011899569E-04
(PID.TID 0000.0001) %MON dynstat_salt_max             =   2.0000000000000E+00
(PID.TID 0000.0001) %MON dynstat_salt_min             =   1.0000000000000E+00
(PID.TID 0000.0001) %MON dynstat_salt_mean            =   1.0000448818891E+00
(PID.TID 0000.0001) %MON dynstat_salt_sd              =   5.8351787961137E-03
(PID.TID 0000.0001) %MON dynstat_salt_del2            =   4.7445823013185E-05
(PID.TID 0000.0001) %MON advcfl_uvel_max              =   9.4135575606544E-03
(PID.TID 0000.0001) %MON advcfl_vvel_max              =   5.8180275462155E-02
(PID.TID 0000.0001) %MON advcfl_wvel_max              =   2.0272865279907E-01
(PID.TID 0000.0001) %MON advcfl_W_hf_max              =   2.0272865279907E-01
(PID.TID 0000.0001) %MON pe_b_mean                    =   8.1347106668815E-06
(PID.TID 0000.0001) %MON ke_max                       =   1.3318179588708E+00
(PID.TID 0000.0001) %MON ke_mean                      =   5.9392840728818E-05
(PID.TID 0000.0001) %MON ke_vol                       =   2.7059236822588E+15
(PID.TID 0000.0001) %MON vort_r_min                   =  -1.9393425212476E-04
(PID.TID 0000.0001) %MON vort_r_max                   =   1.2838165835121E-04
(PID.TID 0000.0001) %MON vort_a_mean                  =   9.9999999999317E-05
(PID.TID 0000.0001) %MON vort_a_sd                    =   1.0080293905792E-06
(PID.TID 0000.0001) %MON vort_p_mean                  =   1.1277618388146E-04
(PID.TID 0000.0001) %MON vort_p_sd                    =   7.1079773092593E-05
(PID.TID 0000.0001) %MON surfExpan_theta_mean         =  -2.3454128054543E-09
(PID.TID 0000.0001) %MON surfExpan_salt_mean          =   1.7031220282370E-12
(PID.TID 0000.0001) // =======================================================
(PID.TID 0000.0001) // End MONITOR dynamic field statistics
(PID.TID 0000.0001) // =======================================================
 cg2d: Sum(rhs),rhsMax =  -5.87644749356718E+02  6.90673525146930E-02
(PID.TID 0000.0001)                    cg2d_init_res =    1.21182088015246E+00
(PID.TID 0000.0001)                       cg2d_iters =    87
(PID.TID 0000.0001)                         cg2d_res =    9.32137622431731E-12
(PID.TID 0000.0001) // =======================================================
(PID.TID 0000.0001) // Begin MONITOR dynamic field statistics
(PID.TID 0000.0001) // =======================================================
(PID.TID 0000.0001) %MON time_tsnumber                =                    20
(PID.TID 0000.0001) %MON time_secondsf                =   6.0000000000000E+03
(PID.TID 0000.0001) %MON dynstat_eta_max              =   1.6928712781669E-01
(PID.TID 0000.0001) %MON dynstat_eta_min              =   0.0000000000000E+00
(PID.TID 0000.0001) %MON dynstat_eta_mean             =   5.1626667261025E-02
(PID.TID 0000.0001) %MON dynstat_eta_sd               =   4.3796659222871E-02
(PID.TID 0000.0001) %MON dynstat_eta_del2             =   7.5953420260718E-05
(PID.TID 0000.0001) %MON dynstat_uvel_max             =   3.1178904735341E-01
(PID.TID 0000.0001) %MON dynstat_uvel_min             =  -2.2942729760806E-01
(PID.TID 0000.0001) %MON dynstat_uvel_mean            =  -2.3921079919003E-03
(PID.TID 0000.0001) %MON dynstat_uvel_sd              =   4.7312922038374E-03
(PID.TID 0000.0001) %MON dynstat_uvel_del2            =   4.8564672620182E-05
(PID.TID 0000.0001) %MON dynstat_vvel_max             =   2.0667320187988E-03
(PID.TID 0000.0001) %MON dynstat_vvel_min             =  -1.9393425212476E+00
(PID.TID 0000.0001) %MON dynstat_vvel_mean            =  -4.8215157564510E-04
(PID.TID 0000.0001) %MON dynstat_vvel_sd              =   9.9661451340558E-03
(PID.TID 0000.0001) %MON dynstat_vvel_del2            =   6.0241199064824E-05
(PID.TID 0000.0001) %MON dynstat_wvel_max             =   1.3845246695621E-02
(PID.TID 0000.0001) %MON dynstat_wvel_min             =  -4.8654876671778E-02
(PID.TID 0000.0001) %MON dynstat_wvel_mean            =  -1.0994257829141E-20
(PID.TID 0000.0001) %MON dynstat_wvel_sd              =   2.3597122343233E-04
(PID.TID 0000.0001) %MON dynstat_wvel_del2            =   2.4489166874533E-06
(PID.TID 0000.0001) %MON dynstat_theta_max            =  -1.9417475949629E-01
(PID.TID 0000.0001) %MON dynstat_theta_min            =  -9.7087381093410E+00
(PID.TID 0000.0001) %MON dynstat_theta_mean           =  -4.1283676614047E+00
(PID.TID 0000.0001) %MON dynstat_theta_sd             =   2.6833376545360E+00
(PID.TID 0000.0001) %MON dynstat_theta_del2           =   3.9450804698339E-04
(PID.TID 0000.0001) %MON dynstat_salt_max             =   2.0000000000000E+00
(PID.TID 0000.0001) %MON dynstat_salt_min             =   1.0000000000000E+00
(PID.TID 0000.0001) %MON dynstat_salt_mean            =   1.0000457493461E+00
(PID.TID 0000.0001) %MON dynstat_salt_sd              =   5.8875170108735E-03
(PID.TID 0000.0001) %MON dynstat_salt_del2            =   4.7635392910901E-05
(PID.TID 0000.0001) %MON advcfl_uvel_max              =   9.3536714206024E-03
(PID.TID 0000.0001) %MON advcfl_vvel_max              =   5.8180275462155E-02
(PID.TID 0000.0001) %MON advcfl_wvel_max              =   2.0272865279907E-01
(PID.TID 0000.0001) %MON advcfl_W_hf_max              =   2.0272865279907E-01
(PID.TID 0000.0001) %MON pe_b_mean                    =   8.4150712972406E-06
(PID.TID 0000.0001) %MON ke_max                       =   1.3645894620067E+00
(PID.TID 0000.0001) %MON ke_mean                      =   6.0476443744269E-05
(PID.TID 0000.0001) %MON ke_vol                       =   2.7059236822588E+15
(PID.TID 0000.0001) %MON vort_r_min                   =  -1.9393425212476E-04
(PID.TID 0000.0001) %MON vort_r_max                   =   1.2803556567977E-04
(PID.TID 0000.0001) %MON vort_a_mean                  =   9.9999999998560E-05
(PID.TID 0000.0001) %MON vort_a_sd                    =   1.0153564110638E-06
(PID.TID 0000.0001) %MON vort_p_mean                  =   1.1277618388060E-04
(PID.TID 0000.0001) %MON vort_p_sd                    =   7.1079294368570E-05
(PID.TID 0000.0001) %MON surfExpan_theta_mean         =  -2.2910375479108E-09
(PID.TID 0000.0001) %MON surfExpan_salt_mean          =   1.6404783460628E-12
(PID.TID 0000.0001) // =======================================================
(PID.TID 0000.0001) // End MONITOR dynamic field statistics
(PID.TID 0000.0001) // =======================================================
 Computing Diagnostic #  95  VISCA4D      Counter:      10   Parms: SM      MR      
(PID.TID 0000.0001) %CHECKPOINT        20 ckptA
(PID.TID 0000.0001)   Seconds in section "ALL                    [THE_MODEL_MAIN]":
(PID.TID 0000.0001)           User time:  46.933866
(PID.TID 0000.0001)         System time:  8.1487622
(PID.TID 0000.0001)     Wall clock time:  84.758127
(PID.TID 0000.0001)          No. starts: 1
(PID.TID 0000.0001)           No. stops: 1
(PID.TID 0000.0001)   Seconds in section "INITIALISE_FIXED       [THE_MODEL_MAIN]":
(PID.TID 0000.0001)           User time:  0.686896016
(PID.TID 0000.0001)         System time:  0.450932
(PID.TID 0000.0001)     Wall clock time:  2.87529492
(PID.TID 0000.0001)          No. starts: 1
(PID.TID 0000.0001)           No. stops: 1
(PID.TID 0000.0001)   Seconds in section "THE_MAIN_LOOP          [THE_MODEL_MAIN]":
(PID.TID 0000.0001)           User time:  44.9291714
(PID.TID 0000.0001)         System time:  6.04108095
(PID.TID 0000.0001)     Wall clock time:  73.5656359
(PID.TID 0000.0001)          No. starts: 1
(PID.TID 0000.0001)           No. stops: 1
(PID.TID 0000.0001)   Seconds in section "INITIALISE_VARIA    [THE_MAIN_LOOP]":
(PID.TID 0000.0001)           User time:  0.327949941
(PID.TID 0000.0001)         System time:  0.306953013
(PID.TID 0000.0001)     Wall clock time:  0.958703995
(PID.TID 0000.0001)          No. starts: 1
(PID.TID 0000.0001)           No. stops: 1
(PID.TID 0000.0001)   Seconds in section "MONITOR             [THE_MAIN_LOOP]":
(PID.TID 0000.0001)           User time:  0.105984092
(PID.TID 0000.0001)         System time:  0.00400000811
(PID.TID 0000.0001)     Wall clock time:  0.122018814
(PID.TID 0000.0001)          No. starts: 1
(PID.TID 0000.0001)           No. stops: 1
(PID.TID 0000.0001)   Seconds in section "DO_THE_MODEL_IO     [THE_MAIN_LOOP]":
(PID.TID 0000.0001)           User time:  0.425934911
(PID.TID 0000.0001)         System time:  0.513921022
(PID.TID 0000.0001)     Wall clock time:  3.91277909
(PID.TID 0000.0001)          No. starts: 1
(PID.TID 0000.0001)           No. stops: 1
(PID.TID 0000.0001)   Seconds in section "MAIN LOOP           [THE_MAIN_LOOP]":
(PID.TID 0000.0001)           User time:  44.0683024
(PID.TID 0000.0001)         System time:  5.21620691
(PID.TID 0000.0001)     Wall clock time:  68.571919
(PID.TID 0000.0001)          No. starts: 1
(PID.TID 0000.0001)           No. stops: 1
(PID.TID 0000.0001)   Seconds in section "FORWARD_STEP        [THE_MAIN_LOOP]":
(PID.TID 0000.0001)           User time:  44.0673029
(PID.TID 0000.0001)         System time:  5.21520793
(PID.TID 0000.0001)     Wall clock time:  68.5710752
(PID.TID 0000.0001)          No. starts: 20
(PID.TID 0000.0001)           No. stops: 20
(PID.TID 0000.0001)   Seconds in section "DO_STATEVARS_DIAGS  [FORWARD_STEP]":
(PID.TID 0000.0001)           User time:  0.000999450684
(PID.TID 0000.0001)         System time:  0.
(PID.TID 0000.0001)     Wall clock time:  0.00185060501
(PID.TID 0000.0001)          No. starts: 40
(PID.TID 0000.0001)           No. stops: 40
(PID.TID 0000.0001)   Seconds in section "EXTERNAL_FIELDS_LOAD[FORWARD_STEP]":
(PID.TID 0000.0001)           User time:  0.
(PID.TID 0000.0001)         System time:  0.
(PID.TID 0000.0001)     Wall clock time:  0.000817298889
(PID.TID 0000.0001)          No. starts: 20
(PID.TID 0000.0001)           No. stops: 20
(PID.TID 0000.0001)   Seconds in section "DO_ATMOSPHERIC_PHYS [FORWARD_STEP]":
(PID.TID 0000.0001)           User time:  0.
(PID.TID 0000.0001)         System time:  0.
(PID.TID 0000.0001)     Wall clock time:  0.00079703331
(PID.TID 0000.0001)          No. starts: 20
(PID.TID 0000.0001)           No. stops: 20
(PID.TID 0000.0001)   Seconds in section "DO_OCEANIC_PHYS     [FORWARD_STEP]":
(PID.TID 0000.0001)           User time:  0.587908506
(PID.TID 0000.0001)         System time:  0.0889884233
(PID.TID 0000.0001)     Wall clock time:  0.842425346
(PID.TID 0000.0001)          No. starts: 20
(PID.TID 0000.0001)           No. stops: 20
(PID.TID 0000.0001)   Seconds in section "DYNAMICS            [FORWARD_STEP]":
(PID.TID 0000.0001)           User time:  26.5299709
(PID.TID 0000.0001)         System time:  2.69558966
(PID.TID 0000.0001)     Wall clock time:  38.0172923
(PID.TID 0000.0001)          No. starts: 20
(PID.TID 0000.0001)           No. stops: 20
(PID.TID 0000.0001)   Seconds in section "SOLVE_FOR_PRESSURE  [FORWARD_STEP]":
(PID.TID 0000.0001)           User time:  4.03438473
(PID.TID 0000.0001)         System time:  0.409937501
(PID.TID 0000.0001)     Wall clock time:  5.8800993
(PID.TID 0000.0001)          No. starts: 20
(PID.TID 0000.0001)           No. stops: 20
(PID.TID 0000.0001)   Seconds in section "UV_CORRECTION_STEP  [FORWARD_STEP]":
(PID.TID 0000.0001)           User time:  0.485930204
(PID.TID 0000.0001)         System time:  0.0229970217
(PID.TID 0000.0001)     Wall clock time:  0.622433186
(PID.TID 0000.0001)          No. starts: 20
(PID.TID 0000.0001)           No. stops: 20
(PID.TID 0000.0001)   Seconds in section "BLOCKING_EXCHANGES  [FORWARD_STEP]":
(PID.TID 0000.0001)           User time:  0.911866665
(PID.TID 0000.0001)         System time:  0.0899841785
(PID.TID 0000.0001)     Wall clock time:  1.32259345
(PID.TID 0000.0001)          No. starts: 40
(PID.TID 0000.0001)           No. stops: 40
(PID.TID 0000.0001)   Seconds in section "THERMODYNAMICS      [FORWARD_STEP]":
(PID.TID 0000.0001)           User time:  8.5626936
(PID.TID 0000.0001)         System time:  0.792881966
(PID.TID 0000.0001)     Wall clock time:  11.799679
(PID.TID 0000.0001)          No. starts: 20
(PID.TID 0000.0001)           No. stops: 20
(PID.TID 0000.0001)   Seconds in section "TS_CORRECTION_STEP  [FORWARD_STEP]":
(PID.TID 0000.0001)           User time:  0.184971333
(PID.TID 0000.0001)         System time:  0.0139979124
(PID.TID 0000.0001)     Wall clock time:  0.222112894
(PID.TID 0000.0001)          No. starts: 20
(PID.TID 0000.0001)           No. stops: 20
(PID.TID 0000.0001)   Seconds in section "DO_STATEVARS_TAVE   [FORWARD_STEP]":
(PID.TID 0000.0001)           User time:  0.000999450684
(PID.TID 0000.0001)         System time:  0.
(PID.TID 0000.0001)     Wall clock time:  0.00081038475
(PID.TID 0000.0001)          No. starts: 20
(PID.TID 0000.0001)           No. stops: 20
(PID.TID 0000.0001)   Seconds in section "MONITOR             [FORWARD_STEP]":
(PID.TID 0000.0001)           User time:  2.05968761
(PID.TID 0000.0001)         System time:  0.237964153
(PID.TID 0000.0001)     Wall clock time:  2.92327404
(PID.TID 0000.0001)          No. starts: 20
(PID.TID 0000.0001)           No. stops: 20
(PID.TID 0000.0001)   Seconds in section "DO_THE_MODEL_IO     [FORWARD_STEP]":
(PID.TID 0000.0001)           User time:  0.691898346
(PID.TID 0000.0001)         System time:  0.857870102
(PID.TID 0000.0001)     Wall clock time:  6.92033219
(PID.TID 0000.0001)          No. starts: 20
(PID.TID 0000.0001)           No. stops: 20
(PID.TID 0000.0001)   Seconds in section "WRITE_CHECKPOINT    [FORWARD_STEP]":
(PID.TID 0000.0001)           User time:  0.00299835205
(PID.TID 0000.0001)         System time:  0.000998973846
(PID.TID 0000.0001)     Wall clock time:  0.00088262558
(PID.TID 0000.0001)          No. starts: 20
(PID.TID 0000.0001)           No. stops: 20
(PID.TID 0000.0001)   Seconds in section "WRITE_CHECKPOINT       [THE_MODEL_MAIN]":
(PID.TID 0000.0001)           User time:  1.31779861
(PID.TID 0000.0001)         System time:  1.65674925
(PID.TID 0000.0001)     Wall clock time:  8.31701708
(PID.TID 0000.0001)          No. starts: 1
(PID.TID 0000.0001)           No. stops: 1
(PID.TID 0000.0001) // ======================================================
(PID.TID 0000.0001) // Tile <-> Tile communication statistics
(PID.TID 0000.0001) // ======================================================
(PID.TID 0000.0001) // o Tile number: 000001
(PID.TID 0000.0001) //         No. X exchanges =              0
(PID.TID 0000.0001) //            Max. X spins =              0
(PID.TID 0000.0001) //            Min. X spins =     1000000000
(PID.TID 0000.0001) //          Total. X spins =              0
(PID.TID 0000.0001) //            Avg. X spins =       0.00E+00
(PID.TID 0000.0001) //         No. Y exchanges =              0
(PID.TID 0000.0001) //            Max. Y spins =              0
(PID.TID 0000.0001) //            Min. Y spins =     1000000000
(PID.TID 0000.0001) //          Total. Y spins =              0
(PID.TID 0000.0001) //            Avg. Y spins =       0.00E+00
(PID.TID 0000.0001) // o Tile number: 000002
(PID.TID 0000.0001) //         No. X exchanges =              0
(PID.TID 0000.0001) //            Max. X spins =              0
(PID.TID 0000.0001) //            Min. X spins =     1000000000
(PID.TID 0000.0001) //          Total. X spins =              0
(PID.TID 0000.0001) //            Avg. X spins =       0.00E+00
(PID.TID 0000.0001) //         No. Y exchanges =              0
(PID.TID 0000.0001) //            Max. Y spins =              0
(PID.TID 0000.0001) //            Min. Y spins =     1000000000
(PID.TID 0000.0001) //          Total. Y spins =              0
(PID.TID 0000.0001) //            Avg. Y spins =       0.00E+00
(PID.TID 0000.0001) // o Tile number: 000003
(PID.TID 0000.0001) //         No. X exchanges =              0
(PID.TID 0000.0001) //            Max. X spins =              0
(PID.TID 0000.0001) //            Min. X spins =     1000000000
(PID.TID 0000.0001) //          Total. X spins =              0
(PID.TID 0000.0001) //            Avg. X spins =       0.00E+00
(PID.TID 0000.0001) //         No. Y exchanges =              0
(PID.TID 0000.0001) //            Max. Y spins =              0
(PID.TID 0000.0001) //            Min. Y spins =     1000000000
(PID.TID 0000.0001) //          Total. Y spins =              0
(PID.TID 0000.0001) //            Avg. Y spins =       0.00E+00
(PID.TID 0000.0001) // o Tile number: 000004
(PID.TID 0000.0001) //         No. X exchanges =              0
(PID.TID 0000.0001) //            Max. X spins =              0
(PID.TID 0000.0001) //            Min. X spins =     1000000000
(PID.TID 0000.0001) //          Total. X spins =              0
(PID.TID 0000.0001) //            Avg. X spins =       0.00E+00
(PID.TID 0000.0001) //         No. Y exchanges =              0
(PID.TID 0000.0001) //            Max. Y spins =              0
(PID.TID 0000.0001) //            Min. Y spins =     1000000000
(PID.TID 0000.0001) //          Total. Y spins =              0
(PID.TID 0000.0001) //            Avg. Y spins =       0.00E+00
(PID.TID 0000.0001) // o Tile number: 000005
(PID.TID 0000.0001) //         No. X exchanges =              0
(PID.TID 0000.0001) //            Max. X spins =              0
(PID.TID 0000.0001) //            Min. X spins =     1000000000
(PID.TID 0000.0001) //          Total. X spins =              0
(PID.TID 0000.0001) //            Avg. X spins =       0.00E+00
(PID.TID 0000.0001) //         No. Y exchanges =              0
(PID.TID 0000.0001) //            Max. Y spins =              0
(PID.TID 0000.0001) //            Min. Y spins =     1000000000
(PID.TID 0000.0001) //          Total. Y spins =              0
(PID.TID 0000.0001) //            Avg. Y spins =       0.00E+00
(PID.TID 0000.0001) // o Tile number: 000006
(PID.TID 0000.0001) //         No. X exchanges =              0
(PID.TID 0000.0001) //            Max. X spins =              0
(PID.TID 0000.0001) //            Min. X spins =     1000000000
(PID.TID 0000.0001) //          Total. X spins =              0
(PID.TID 0000.0001) //            Avg. X spins =       0.00E+00
(PID.TID 0000.0001) //         No. Y exchanges =              0
(PID.TID 0000.0001) //            Max. Y spins =              0
(PID.TID 0000.0001) //            Min. Y spins =     1000000000
(PID.TID 0000.0001) //          Total. Y spins =              0
(PID.TID 0000.0001) //            Avg. Y spins =       0.00E+00
(PID.TID 0000.0001) // o Tile number: 000007
(PID.TID 0000.0001) //         No. X exchanges =              0
(PID.TID 0000.0001) //            Max. X spins =              0
(PID.TID 0000.0001) //            Min. X spins =     1000000000
(PID.TID 0000.0001) //          Total. X spins =              0
(PID.TID 0000.0001) //            Avg. X spins =       0.00E+00
(PID.TID 0000.0001) //         No. Y exchanges =              0
(PID.TID 0000.0001) //            Max. Y spins =              0
(PID.TID 0000.0001) //            Min. Y spins =     1000000000
(PID.TID 0000.0001) //          Total. Y spins =              0
(PID.TID 0000.0001) //            Avg. Y spins =       0.00E+00
(PID.TID 0000.0001) // o Tile number: 000008
(PID.TID 0000.0001) //         No. X exchanges =              0
(PID.TID 0000.0001) //            Max. X spins =              0
(PID.TID 0000.0001) //            Min. X spins =     1000000000
(PID.TID 0000.0001) //          Total. X spins =              0
(PID.TID 0000.0001) //            Avg. X spins =       0.00E+00
(PID.TID 0000.0001) //         No. Y exchanges =              0
(PID.TID 0000.0001) //            Max. Y spins =              0
(PID.TID 0000.0001) //            Min. Y spins =     1000000000
(PID.TID 0000.0001) //          Total. Y spins =              0
(PID.TID 0000.0001) //            Avg. Y spins =       0.00E+00
(PID.TID 0000.0001) // o Tile number: 000009
(PID.TID 0000.0001) //         No. X exchanges =              0
(PID.TID 0000.0001) //            Max. X spins =              0
(PID.TID 0000.0001) //            Min. X spins =     1000000000
(PID.TID 0000.0001) //          Total. X spins =              0
(PID.TID 0000.0001) //            Avg. X spins =       0.00E+00
(PID.TID 0000.0001) //         No. Y exchanges =              0
(PID.TID 0000.0001) //            Max. Y spins =              0
(PID.TID 0000.0001) //            Min. Y spins =     1000000000
(PID.TID 0000.0001) //          Total. Y spins =              0
(PID.TID 0000.0001) //            Avg. Y spins =       0.00E+00
(PID.TID 0000.0001) // o Tile number: 000010
(PID.TID 0000.0001) //         No. X exchanges =              0
(PID.TID 0000.0001) //            Max. X spins =              0
(PID.TID 0000.0001) //            Min. X spins =     1000000000
(PID.TID 0000.0001) //          Total. X spins =              0
(PID.TID 0000.0001) //            Avg. X spins =       0.00E+00
(PID.TID 0000.0001) //         No. Y exchanges =              0
(PID.TID 0000.0001) //            Max. Y spins =              0
(PID.TID 0000.0001) //            Min. Y spins =     1000000000
(PID.TID 0000.0001) //          Total. Y spins =              0
(PID.TID 0000.0001) //            Avg. Y spins =       0.00E+00
(PID.TID 0000.0001) // o Tile number: 000011
(PID.TID 0000.0001) //         No. X exchanges =              0
(PID.TID 0000.0001) //            Max. X spins =              0
(PID.TID 0000.0001) //            Min. X spins =     1000000000
(PID.TID 0000.0001) //          Total. X spins =              0
(PID.TID 0000.0001) //            Avg. X spins =       0.00E+00
(PID.TID 0000.0001) //         No. Y exchanges =              0
(PID.TID 0000.0001) //            Max. Y spins =              0
(PID.TID 0000.0001) //            Min. Y spins =     1000000000
(PID.TID 0000.0001) //          Total. Y spins =              0
(PID.TID 0000.0001) //            Avg. Y spins =       0.00E+00
(PID.TID 0000.0001) // o Tile number: 000012
(PID.TID 0000.0001) //         No. X exchanges =              0
(PID.TID 0000.0001) //            Max. X spins =              0
(PID.TID 0000.0001) //            Min. X spins =     1000000000
(PID.TID 0000.0001) //          Total. X spins =              0
(PID.TID 0000.0001) //            Avg. X spins =       0.00E+00
(PID.TID 0000.0001) //         No. Y exchanges =              0
(PID.TID 0000.0001) //            Max. Y spins =              0
(PID.TID 0000.0001) //            Min. Y spins =     1000000000
(PID.TID 0000.0001) //          Total. Y spins =              0
(PID.TID 0000.0001) //            Avg. Y spins =       0.00E+00
(PID.TID 0000.0001) // o Tile number: 000013
(PID.TID 0000.0001) //         No. X exchanges =              0
(PID.TID 0000.0001) //            Max. X spins =              0
(PID.TID 0000.0001) //            Min. X spins =     1000000000
(PID.TID 0000.0001) //          Total. X spins =              0
(PID.TID 0000.0001) //            Avg. X spins =       0.00E+00
(PID.TID 0000.0001) //         No. Y exchanges =              0
(PID.TID 0000.0001) //            Max. Y spins =              0
(PID.TID 0000.0001) //            Min. Y spins =     1000000000
(PID.TID 0000.0001) //          Total. Y spins =              0
(PID.TID 0000.0001) //            Avg. Y spins =       0.00E+00
(PID.TID 0000.0001) // o Tile number: 000014
(PID.TID 0000.0001) //         No. X exchanges =              0
(PID.TID 0000.0001) //            Max. X spins =              0
(PID.TID 0000.0001) //            Min. X spins =     1000000000
(PID.TID 0000.0001) //          Total. X spins =              0
(PID.TID 0000.0001) //            Avg. X spins =       0.00E+00
(PID.TID 0000.0001) //         No. Y exchanges =              0
(PID.TID 0000.0001) //            Max. Y spins =              0
(PID.TID 0000.0001) //            Min. Y spins =     1000000000
(PID.TID 0000.0001) //          Total. Y spins =              0
(PID.TID 0000.0001) //            Avg. Y spins =       0.00E+00
(PID.TID 0000.0001) // o Tile number: 000015
(PID.TID 0000.0001) //         No. X exchanges =              0
(PID.TID 0000.0001) //            Max. X spins =              0
(PID.TID 0000.0001) //            Min. X spins =     1000000000
(PID.TID 0000.0001) //          Total. X spins =              0
(PID.TID 0000.0001) //            Avg. X spins =       0.00E+00
(PID.TID 0000.0001) //         No. Y exchanges =              0
(PID.TID 0000.0001) //            Max. Y spins =              0
(PID.TID 0000.0001) //            Min. Y spins =     1000000000
(PID.TID 0000.0001) //          Total. Y spins =              0
(PID.TID 0000.0001) //            Avg. Y spins =       0.00E+00
(PID.TID 0000.0001) // o Tile number: 000016
(PID.TID 0000.0001) //         No. X exchanges =              0
(PID.TID 0000.0001) //            Max. X spins =              0
(PID.TID 0000.0001) //            Min. X spins =     1000000000
(PID.TID 0000.0001) //          Total. X spins =              0
(PID.TID 0000.0001) //            Avg. X spins =       0.00E+00
(PID.TID 0000.0001) //         No. Y exchanges =              0
(PID.TID 0000.0001) //            Max. Y spins =              0
(PID.TID 0000.0001) //            Min. Y spins =     1000000000
(PID.TID 0000.0001) //          Total. Y spins =              0
(PID.TID 0000.0001) //            Avg. Y spins =       0.00E+00
(PID.TID 0000.0001) // o Tile number: 000017
(PID.TID 0000.0001) //         No. X exchanges =              0
(PID.TID 0000.0001) //            Max. X spins =              0
(PID.TID 0000.0001) //            Min. X spins =     1000000000
(PID.TID 0000.0001) //          Total. X spins =              0
(PID.TID 0000.0001) //            Avg. X spins =       0.00E+00
(PID.TID 0000.0001) //         No. Y exchanges =              0
(PID.TID 0000.0001) //            Max. Y spins =              0
(PID.TID 0000.0001) //            Min. Y spins =     1000000000
(PID.TID 0000.0001) //          Total. Y spins =              0
(PID.TID 0000.0001) //            Avg. Y spins =       0.00E+00
(PID.TID 0000.0001) // o Tile number: 000018
(PID.TID 0000.0001) //         No. X exchanges =              0
(PID.TID 0000.0001) //            Max. X spins =              0
(PID.TID 0000.0001) //            Min. X spins =     1000000000
(PID.TID 0000.0001) //          Total. X spins =              0
(PID.TID 0000.0001) //            Avg. X spins =       0.00E+00
(PID.TID 0000.0001) //         No. Y exchanges =              0
(PID.TID 0000.0001) //            Max. Y spins =              0
(PID.TID 0000.0001) //            Min. Y spins =     1000000000
(PID.TID 0000.0001) //          Total. Y spins =              0
(PID.TID 0000.0001) //            Avg. Y spins =       0.00E+00
(PID.TID 0000.0001) // o Tile number: 000019
(PID.TID 0000.0001) //         No. X exchanges =              0
(PID.TID 0000.0001) //            Max. X spins =              0
(PID.TID 0000.0001) //            Min. X spins =     1000000000
(PID.TID 0000.0001) //          Total. X spins =              0
(PID.TID 0000.0001) //            Avg. X spins =       0.00E+00
(PID.TID 0000.0001) //         No. Y exchanges =              0
(PID.TID 0000.0001) //            Max. Y spins =              0
(PID.TID 0000.0001) //            Min. Y spins =     1000000000
(PID.TID 0000.0001) //          Total. Y spins =              0
(PID.TID 0000.0001) //            Avg. Y spins =       0.00E+00
(PID.TID 0000.0001) // o Tile number: 000020
(PID.TID 0000.0001) //         No. X exchanges =              0
(PID.TID 0000.0001) //            Max. X spins =              0
(PID.TID 0000.0001) //            Min. X spins =     1000000000
(PID.TID 0000.0001) //          Total. X spins =              0
(PID.TID 0000.0001) //            Avg. X spins =       0.00E+00
(PID.TID 0000.0001) //         No. Y exchanges =              0
(PID.TID 0000.0001) //            Max. Y spins =              0
(PID.TID 0000.0001) //            Min. Y spins =     1000000000
(PID.TID 0000.0001) //          Total. Y spins =              0
(PID.TID 0000.0001) //            Avg. Y spins =       0.00E+00
(PID.TID 0000.0001) // o Tile number: 000021
(PID.TID 0000.0001) //         No. X exchanges =              0
(PID.TID 0000.0001) //            Max. X spins =              0
(PID.TID 0000.0001) //            Min. X spins =     1000000000
(PID.TID 0000.0001) //          Total. X spins =              0
(PID.TID 0000.0001) //            Avg. X spins =       0.00E+00
(PID.TID 0000.0001) //         No. Y exchanges =              0
(PID.TID 0000.0001) //            Max. Y spins =              0
(PID.TID 0000.0001) //            Min. Y spins =     1000000000
(PID.TID 0000.0001) //          Total. Y spins =              0
(PID.TID 0000.0001) //            Avg. Y spins =       0.00E+00
(PID.TID 0000.0001) // o Tile number: 000022
(PID.TID 0000.0001) //         No. X exchanges =              0
(PID.TID 0000.0001) //            Max. X spins =              0
(PID.TID 0000.0001) //            Min. X spins =     1000000000
(PID.TID 0000.0001) //          Total. X spins =              0
(PID.TID 0000.0001) //            Avg. X spins =       0.00E+00
(PID.TID 0000.0001) //         No. Y exchanges =              0
(PID.TID 0000.0001) //            Max. Y spins =              0
(PID.TID 0000.0001) //            Min. Y spins =     1000000000
(PID.TID 0000.0001) //          Total. Y spins =              0
(PID.TID 0000.0001) //            Avg. Y spins =       0.00E+00
(PID.TID 0000.0001) // o Tile number: 000023
(PID.TID 0000.0001) //         No. X exchanges =              0
(PID.TID 0000.0001) //            Max. X spins =              0
(PID.TID 0000.0001) //            Min. X spins =     1000000000
(PID.TID 0000.0001) //          Total. X spins =              0
(PID.TID 0000.0001) //            Avg. X spins =       0.00E+00
(PID.TID 0000.0001) //         No. Y exchanges =              0
(PID.TID 0000.0001) //            Max. Y spins =              0
(PID.TID 0000.0001) //            Min. Y spins =     1000000000
(PID.TID 0000.0001) //          Total. Y spins =              0
(PID.TID 0000.0001) //            Avg. Y spins =       0.00E+00
(PID.TID 0000.0001) // o Tile number: 000024
(PID.TID 0000.0001) //         No. X exchanges =              0
(PID.TID 0000.0001) //            Max. X spins =              0
(PID.TID 0000.0001) //            Min. X spins =     1000000000
(PID.TID 0000.0001) //          Total. X spins =              0
(PID.TID 0000.0001) //            Avg. X spins =       0.00E+00
(PID.TID 0000.0001) //         No. Y exchanges =              0
(PID.TID 0000.0001) //            Max. Y spins =              0
(PID.TID 0000.0001) //            Min. Y spins =     1000000000
(PID.TID 0000.0001) //          Total. Y spins =              0
(PID.TID 0000.0001) //            Avg. Y spins =       0.00E+00
(PID.TID 0000.0001) // o Tile number: 000025
(PID.TID 0000.0001) //         No. X exchanges =              0
(PID.TID 0000.0001) //            Max. X spins =              0
(PID.TID 0000.0001) //            Min. X spins =     1000000000
(PID.TID 0000.0001) //          Total. X spins =              0
(PID.TID 0000.0001) //            Avg. X spins =       0.00E+00
(PID.TID 0000.0001) //         No. Y exchanges =              0
(PID.TID 0000.0001) //            Max. Y spins =              0
(PID.TID 0000.0001) //            Min. Y spins =     1000000000
(PID.TID 0000.0001) //          Total. Y spins =              0
(PID.TID 0000.0001) //            Avg. Y spins =       0.00E+00
(PID.TID 0000.0001) // o Tile number: 000026
(PID.TID 0000.0001) //         No. X exchanges =              0
(PID.TID 0000.0001) //            Max. X spins =              0
(PID.TID 0000.0001) //            Min. X spins =     1000000000
(PID.TID 0000.0001) //          Total. X spins =              0
(PID.TID 0000.0001) //            Avg. X spins =       0.00E+00
(PID.TID 0000.0001) //         No. Y exchanges =              0
(PID.TID 0000.0001) //            Max. Y spins =              0
(PID.TID 0000.0001) //            Min. Y spins =     1000000000
(PID.TID 0000.0001) //          Total. Y spins =              0
(PID.TID 0000.0001) //            Avg. Y spins =       0.00E+00
(PID.TID 0000.0001) // o Tile number: 000027
(PID.TID 0000.0001) //         No. X exchanges =              0
(PID.TID 0000.0001) //            Max. X spins =              0
(PID.TID 0000.0001) //            Min. X spins =     1000000000
(PID.TID 0000.0001) //          Total. X spins =              0
(PID.TID 0000.0001) //            Avg. X spins =       0.00E+00
(PID.TID 0000.0001) //         No. Y exchanges =              0
(PID.TID 0000.0001) //            Max. Y spins =              0
(PID.TID 0000.0001) //            Min. Y spins =     1000000000
(PID.TID 0000.0001) //          Total. Y spins =              0
(PID.TID 0000.0001) //            Avg. Y spins =       0.00E+00
(PID.TID 0000.0001) // o Tile number: 000028
(PID.TID 0000.0001) //         No. X exchanges =              0
(PID.TID 0000.0001) //            Max. X spins =              0
(PID.TID 0000.0001) //            Min. X spins =     1000000000
(PID.TID 0000.0001) //          Total. X spins =              0
(PID.TID 0000.0001) //            Avg. X spins =       0.00E+00
(PID.TID 0000.0001) //         No. Y exchanges =              0
(PID.TID 0000.0001) //            Max. Y spins =              0
(PID.TID 0000.0001) //            Min. Y spins =     1000000000
(PID.TID 0000.0001) //          Total. Y spins =              0
(PID.TID 0000.0001) //            Avg. Y spins =       0.00E+00
(PID.TID 0000.0001) // o Tile number: 000029
(PID.TID 0000.0001) //         No. X exchanges =              0
(PID.TID 0000.0001) //            Max. X spins =              0
(PID.TID 0000.0001) //            Min. X spins =     1000000000
(PID.TID 0000.0001) //          Total. X spins =              0
(PID.TID 0000.0001) //            Avg. X spins =       0.00E+00
(PID.TID 0000.0001) //         No. Y exchanges =              0
(PID.TID 0000.0001) //            Max. Y spins =              0
(PID.TID 0000.0001) //            Min. Y spins =     1000000000
(PID.TID 0000.0001) //          Total. Y spins =              0
(PID.TID 0000.0001) //            Avg. Y spins =       0.00E+00
(PID.TID 0000.0001) // o Tile number: 000030
(PID.TID 0000.0001) //         No. X exchanges =              0
(PID.TID 0000.0001) //            Max. X spins =              0
(PID.TID 0000.0001) //            Min. X spins =     1000000000
(PID.TID 0000.0001) //          Total. X spins =              0
(PID.TID 0000.0001) //            Avg. X spins =       0.00E+00
(PID.TID 0000.0001) //         No. Y exchanges =              0
(PID.TID 0000.0001) //            Max. Y spins =              0
(PID.TID 0000.0001) //            Min. Y spins =     1000000000
(PID.TID 0000.0001) //          Total. Y spins =              0
(PID.TID 0000.0001) //            Avg. Y spins =       0.00E+00
(PID.TID 0000.0001) // o Thread number: 000001
(PID.TID 0000.0001) //            No. barriers =          28018
(PID.TID 0000.0001) //      Max. barrier spins =              1
(PID.TID 0000.0001) //      Min. barrier spins =              1
(PID.TID 0000.0001) //     Total barrier spins =          28018
(PID.TID 0000.0001) //      Avg. barrier spins =       1.00E+00
