(PID.TID 0000.0001) 
(PID.TID 0000.0001) // ======================================================
(PID.TID 0000.0001) //                      MITgcm UV
(PID.TID 0000.0001) //                      =========
(PID.TID 0000.0001) // ======================================================
(PID.TID 0000.0001) // execution environment starting up...
(PID.TID 0000.0001) 
(PID.TID 0000.0001) // MITgcmUV version:  checkpoint62s
(PID.TID 0000.0001) // Build user:        jmc
(PID.TID 0000.0001) // Build host:        baudelaire
(PID.TID 0000.0001) // Build date:        Mon Feb 28 13:17:03 EST 2011
(PID.TID 0000.0001) 
(PID.TID 0000.0001) // =======================================================
(PID.TID 0000.0001) // Execution Environment parameter file "eedata"
(PID.TID 0000.0001) // =======================================================
(PID.TID 0000.0001) ># Example "eedata" file
(PID.TID 0000.0001) ># Lines beginning "#" are comments
(PID.TID 0000.0001) ># nTx - No. threads per process in X
(PID.TID 0000.0001) ># nTy - No. threads per process in Y
(PID.TID 0000.0001) > &EEPARMS
(PID.TID 0000.0001) > /
(PID.TID 0000.0001) ># Note: Some systems use & as the
(PID.TID 0000.0001) ># namelist terminator. Other systems
(PID.TID 0000.0001) ># use a / character (as shown here).
(PID.TID 0000.0001) 
(PID.TID 0000.0001) // =======================================================
(PID.TID 0000.0001) // Computational Grid Specification ( see files "SIZE.h" )
(PID.TID 0000.0001) //                                  ( and "eedata"       )
(PID.TID 0000.0001) // =======================================================
(PID.TID 0000.0001)      nPx =    1 ; /* No. processes in X */
(PID.TID 0000.0001)      nPy =    1 ; /* No. processes in Y */
(PID.TID 0000.0001)      nSx =    8 ; /* No. tiles in X per process */
(PID.TID 0000.0001)      nSy =    3 ; /* No. tiles in Y per process */
(PID.TID 0000.0001)      sNx =   25 ; /* Tile size in X */
(PID.TID 0000.0001)      sNy =   15 ; /* Tile size in Y */
(PID.TID 0000.0001)      OLx =    3 ; /* Tile overlap distance in X */
(PID.TID 0000.0001)      OLy =    3 ; /* Tile overlap distance in Y */
(PID.TID 0000.0001)      nTx =    1 ; /* No. threads in X per process */
(PID.TID 0000.0001)      nTy =    1 ; /* No. threads in Y per process */
(PID.TID 0000.0001)       Nr =   25 ; /* No. levels in the vertical   */
(PID.TID 0000.0001)       Nx =  200 ; /* Total domain size in X ( = nPx*nSx*sNx ) */
(PID.TID 0000.0001)       Ny =   45 ; /* Total domain size in Y ( = nPy*nSy*sNy ) */
(PID.TID 0000.0001)   nTiles =   24 ; /* Total no. tiles per process ( = nSx*nSy ) */
(PID.TID 0000.0001)   nProcs =    1 ; /* Total no. processes ( = nPx*nPy ) */
(PID.TID 0000.0001) nThreads =    1 ; /* Total no. threads per process ( = nTx*nTy ) */
(PID.TID 0000.0001) usingMPI =    F ; /* Flag used to control whether MPI is in use */
(PID.TID 0000.0001)                   /*  note: To execute a program with MPI calls */
(PID.TID 0000.0001)                   /*  it must be launched appropriately e.g     */
(PID.TID 0000.0001)                   /*  "mpirun -np 64 ......"                    */
(PID.TID 0000.0001) useCoupler=    F ;/* Flag used to control communications with   */
(PID.TID 0000.0001)                   /*  other model components, through a coupler */
(PID.TID 0000.0001) printMapIncludesZeros=    F ; /* print zeros in Std.Output maps */
(PID.TID 0000.0001) maxLengthPrt1D=   65 /* maxLength of 1D array printed to StdOut */
(PID.TID 0000.0001) 
(PID.TID 0000.0001) // ======================================================
(PID.TID 0000.0001) // Mapping of tiles to threads
(PID.TID 0000.0001) // ======================================================
(PID.TID 0000.0001) // -o- Thread   1, tiles (   1:   8,   1:   3)
(PID.TID 0000.0001) 
(PID.TID 0000.0001) // ======================================================
(PID.TID 0000.0001) // Tile <-> Tile connectvity table
(PID.TID 0000.0001) // ======================================================
(PID.TID 0000.0001) // Tile number: 000001 (process no. = 000001)
(PID.TID 0000.0001) //        WEST: Tile = 000008, Process = 000001, Comm = put
(PID.TID 0000.0001) //                bi = 000008, bj = 000001
(PID.TID 0000.0001) //        EAST: Tile = 000002, Process = 000001, Comm = put
(PID.TID 0000.0001) //                bi = 000002, bj = 000001
(PID.TID 0000.0001) //       SOUTH: Tile = 000017, Process = 000001, Comm = put
(PID.TID 0000.0001) //                bi = 000001, bj = 000003
(PID.TID 0000.0001) //       NORTH: Tile = 000009, Process = 000001, Comm = put
(PID.TID 0000.0001) //                bi = 000001, bj = 000002
(PID.TID 0000.0001) // Tile number: 000002 (process no. = 000001)
(PID.TID 0000.0001) //        WEST: Tile = 000001, Process = 000001, Comm = put
(PID.TID 0000.0001) //                bi = 000001, bj = 000001
(PID.TID 0000.0001) //        EAST: Tile = 000003, Process = 000001, Comm = put
(PID.TID 0000.0001) //                bi = 000003, bj = 000001
(PID.TID 0000.0001) //       SOUTH: Tile = 000018, Process = 000001, Comm = put
(PID.TID 0000.0001) //                bi = 000002, bj = 000003
(PID.TID 0000.0001) //       NORTH: Tile = 000010, Process = 000001, Comm = put
(PID.TID 0000.0001) //                bi = 000002, bj = 000002
(PID.TID 0000.0001) // Tile number: 000003 (process no. = 000001)
(PID.TID 0000.0001) //        WEST: Tile = 000002, Process = 000001, Comm = put
(PID.TID 0000.0001) //                bi = 000002, bj = 000001
(PID.TID 0000.0001) //        EAST: Tile = 000004, Process = 000001, Comm = put
(PID.TID 0000.0001) //                bi = 000004, bj = 000001
(PID.TID 0000.0001) //       SOUTH: Tile = 000019, Process = 000001, Comm = put
(PID.TID 0000.0001) //                bi = 000003, bj = 000003
(PID.TID 0000.0001) //       NORTH: Tile = 000011, Process = 000001, Comm = put
(PID.TID 0000.0001) //                bi = 000003, bj = 000002
(PID.TID 0000.0001) // Tile number: 000004 (process no. = 000001)
(PID.TID 0000.0001) //        WEST: Tile = 000003, Process = 000001, Comm = put
(PID.TID 0000.0001) //                bi = 000003, bj = 000001
(PID.TID 0000.0001) //        EAST: Tile = 000005, Process = 000001, Comm = put
(PID.TID 0000.0001) //                bi = 000005, bj = 000001
(PID.TID 0000.0001) //       SOUTH: Tile = 000020, Process = 000001, Comm = put
(PID.TID 0000.0001) //                bi = 000004, bj = 000003
(PID.TID 0000.0001) //       NORTH: Tile = 000012, Process = 000001, Comm = put
(PID.TID 0000.0001) //                bi = 000004, bj = 000002
(PID.TID 0000.0001) // Tile number: 000005 (process no. = 000001)
(PID.TID 0000.0001) //        WEST: Tile = 000004, Process = 000001, Comm = put
(PID.TID 0000.0001) //                bi = 000004, bj = 000001
(PID.TID 0000.0001) //        EAST: Tile = 000006, Process = 000001, Comm = put
(PID.TID 0000.0001) //                bi = 000006, bj = 000001
(PID.TID 0000.0001) //       SOUTH: Tile = 000021, Process = 000001, Comm = put
(PID.TID 0000.0001) //                bi = 000005, bj = 000003
(PID.TID 0000.0001) //       NORTH: Tile = 000013, Process = 000001, Comm = put
(PID.TID 0000.0001) //                bi = 000005, bj = 000002
(PID.TID 0000.0001) // Tile number: 000006 (process no. = 000001)
(PID.TID 0000.0001) //        WEST: Tile = 000005, Process = 000001, Comm = put
(PID.TID 0000.0001) //                bi = 000005, bj = 000001
(PID.TID 0000.0001) //        EAST: Tile = 000007, Process = 000001, Comm = put
(PID.TID 0000.0001) //                bi = 000007, bj = 000001
(PID.TID 0000.0001) //       SOUTH: Tile = 000022, Process = 000001, Comm = put
(PID.TID 0000.0001) //                bi = 000006, bj = 000003
(PID.TID 0000.0001) //       NORTH: Tile = 000014, Process = 000001, Comm = put
(PID.TID 0000.0001) //                bi = 000006, bj = 000002
(PID.TID 0000.0001) // Tile number: 000007 (process no. = 000001)
(PID.TID 0000.0001) //        WEST: Tile = 000006, Process = 000001, Comm = put
(PID.TID 0000.0001) //                bi = 000006, bj = 000001
(PID.TID 0000.0001) //        EAST: Tile = 000008, Process = 000001, Comm = put
(PID.TID 0000.0001) //                bi = 000008, bj = 000001
(PID.TID 0000.0001) //       SOUTH: Tile = 000023, Process = 000001, Comm = put
(PID.TID 0000.0001) //                bi = 000007, bj = 000003
(PID.TID 0000.0001) //       NORTH: Tile = 000015, Process = 000001, Comm = put
(PID.TID 0000.0001) //                bi = 000007, bj = 000002
(PID.TID 0000.0001) // Tile number: 000008 (process no. = 000001)
(PID.TID 0000.0001) //        WEST: Tile = 000007, Process = 000001, Comm = put
(PID.TID 0000.0001) //                bi = 000007, bj = 000001
(PID.TID 0000.0001) //        EAST: Tile = 000001, Process = 000001, Comm = put
(PID.TID 0000.0001) //                bi = 000001, bj = 000001
(PID.TID 0000.0001) //       SOUTH: Tile = 000024, Process = 000001, Comm = put
(PID.TID 0000.0001) //                bi = 000008, bj = 000003
(PID.TID 0000.0001) //       NORTH: Tile = 000016, Process = 000001, Comm = put
(PID.TID 0000.0001) //                bi = 000008, bj = 000002
(PID.TID 0000.0001) // Tile number: 000009 (process no. = 000001)
(PID.TID 0000.0001) //        WEST: Tile = 000016, Process = 000001, Comm = put
(PID.TID 0000.0001) //                bi = 000008, bj = 000002
(PID.TID 0000.0001) //        EAST: Tile = 000010, Process = 000001, Comm = put
(PID.TID 0000.0001) //                bi = 000002, bj = 000002
(PID.TID 0000.0001) //       SOUTH: Tile = 000001, Process = 000001, Comm = put
(PID.TID 0000.0001) //                bi = 000001, bj = 000001
(PID.TID 0000.0001) //       NORTH: Tile = 000017, Process = 000001, Comm = put
(PID.TID 0000.0001) //                bi = 000001, bj = 000003
(PID.TID 0000.0001) // Tile number: 000010 (process no. = 000001)
(PID.TID 0000.0001) //        WEST: Tile = 000009, Process = 000001, Comm = put
(PID.TID 0000.0001) //                bi = 000001, bj = 000002
(PID.TID 0000.0001) //        EAST: Tile = 000011, Process = 000001, Comm = put
(PID.TID 0000.0001) //                bi = 000003, bj = 000002
(PID.TID 0000.0001) //       SOUTH: Tile = 000002, Process = 000001, Comm = put
(PID.TID 0000.0001) //                bi = 000002, bj = 000001
(PID.TID 0000.0001) //       NORTH: Tile = 000018, Process = 000001, Comm = put
(PID.TID 0000.0001) //                bi = 000002, bj = 000003
(PID.TID 0000.0001) // Tile number: 000011 (process no. = 000001)
(PID.TID 0000.0001) //        WEST: Tile = 000010, Process = 000001, Comm = put
(PID.TID 0000.0001) //                bi = 000002, bj = 000002
(PID.TID 0000.0001) //        EAST: Tile = 000012, Process = 000001, Comm = put
(PID.TID 0000.0001) //                bi = 000004, bj = 000002
(PID.TID 0000.0001) //       SOUTH: Tile = 000003, Process = 000001, Comm = put
(PID.TID 0000.0001) //                bi = 000003, bj = 000001
(PID.TID 0000.0001) //       NORTH: Tile = 000019, Process = 000001, Comm = put
(PID.TID 0000.0001) //                bi = 000003, bj = 000003
(PID.TID 0000.0001) // Tile number: 000012 (process no. = 000001)
(PID.TID 0000.0001) //        WEST: Tile = 000011, Process = 000001, Comm = put
(PID.TID 0000.0001) //                bi = 000003, bj = 000002
(PID.TID 0000.0001) //        EAST: Tile = 000013, Process = 000001, Comm = put
(PID.TID 0000.0001) //                bi = 000005, bj = 000002
(PID.TID 0000.0001) //       SOUTH: Tile = 000004, Process = 000001, Comm = put
(PID.TID 0000.0001) //                bi = 000004, bj = 000001
(PID.TID 0000.0001) //       NORTH: Tile = 000020, Process = 000001, Comm = put
(PID.TID 0000.0001) //                bi = 000004, bj = 000003
(PID.TID 0000.0001) // Tile number: 000013 (process no. = 000001)
(PID.TID 0000.0001) //        WEST: Tile = 000012, Process = 000001, Comm = put
(PID.TID 0000.0001) //                bi = 000004, bj = 000002
(PID.TID 0000.0001) //        EAST: Tile = 000014, Process = 000001, Comm = put
(PID.TID 0000.0001) //                bi = 000006, bj = 000002
(PID.TID 0000.0001) //       SOUTH: Tile = 000005, Process = 000001, Comm = put
(PID.TID 0000.0001) //                bi = 000005, bj = 000001
(PID.TID 0000.0001) //       NORTH: Tile = 000021, Process = 000001, Comm = put
(PID.TID 0000.0001) //                bi = 000005, bj = 000003
(PID.TID 0000.0001) // Tile number: 000014 (process no. = 000001)
(PID.TID 0000.0001) //        WEST: Tile = 000013, Process = 000001, Comm = put
(PID.TID 0000.0001) //                bi = 000005, bj = 000002
(PID.TID 0000.0001) //        EAST: Tile = 000015, Process = 000001, Comm = put
(PID.TID 0000.0001) //                bi = 000007, bj = 000002
(PID.TID 0000.0001) //       SOUTH: Tile = 000006, Process = 000001, Comm = put
(PID.TID 0000.0001) //                bi = 000006, bj = 000001
(PID.TID 0000.0001) //       NORTH: Tile = 000022, Process = 000001, Comm = put
(PID.TID 0000.0001) //                bi = 000006, bj = 000003
(PID.TID 0000.0001) // Tile number: 000015 (process no. = 000001)
(PID.TID 0000.0001) //        WEST: Tile = 000014, Process = 000001, Comm = put
(PID.TID 0000.0001) //                bi = 000006, bj = 000002
(PID.TID 0000.0001) //        EAST: Tile = 000016, Process = 000001, Comm = put
(PID.TID 0000.0001) //                bi = 000008, bj = 000002
(PID.TID 0000.0001) //       SOUTH: Tile = 000007, Process = 000001, Comm = put
(PID.TID 0000.0001) //                bi = 000007, bj = 000001
(PID.TID 0000.0001) //       NORTH: Tile = 000023, Process = 000001, Comm = put
(PID.TID 0000.0001) //                bi = 000007, bj = 000003
(PID.TID 0000.0001) // Tile number: 000016 (process no. = 000001)
(PID.TID 0000.0001) //        WEST: Tile = 000015, Process = 000001, Comm = put
(PID.TID 0000.0001) //                bi = 000007, bj = 000002
(PID.TID 0000.0001) //        EAST: Tile = 000009, Process = 000001, Comm = put
(PID.TID 0000.0001) //                bi = 000001, bj = 000002
(PID.TID 0000.0001) //       SOUTH: Tile = 000008, Process = 000001, Comm = put
(PID.TID 0000.0001) //                bi = 000008, bj = 000001
(PID.TID 0000.0001) //       NORTH: Tile = 000024, Process = 000001, Comm = put
(PID.TID 0000.0001) //                bi = 000008, bj = 000003
(PID.TID 0000.0001) // Tile number: 000017 (process no. = 000001)
(PID.TID 0000.0001) //        WEST: Tile = 000024, Process = 000001, Comm = put
(PID.TID 0000.0001) //                bi = 000008, bj = 000003
(PID.TID 0000.0001) //        EAST: Tile = 000018, Process = 000001, Comm = put
(PID.TID 0000.0001) //                bi = 000002, bj = 000003
(PID.TID 0000.0001) //       SOUTH: Tile = 000009, Process = 000001, Comm = put
(PID.TID 0000.0001) //                bi = 000001, bj = 000002
(PID.TID 0000.0001) //       NORTH: Tile = 000001, Process = 000001, Comm = put
(PID.TID 0000.0001) //                bi = 000001, bj = 000001
(PID.TID 0000.0001) // Tile number: 000018 (process no. = 000001)
(PID.TID 0000.0001) //        WEST: Tile = 000017, Process = 000001, Comm = put
(PID.TID 0000.0001) //                bi = 000001, bj = 000003
(PID.TID 0000.0001) //        EAST: Tile = 000019, Process = 000001, Comm = put
(PID.TID 0000.0001) //                bi = 000003, bj = 000003
(PID.TID 0000.0001) //       SOUTH: Tile = 000010, Process = 000001, Comm = put
(PID.TID 0000.0001) //                bi = 000002, bj = 000002
(PID.TID 0000.0001) //       NORTH: Tile = 000002, Process = 000001, Comm = put
(PID.TID 0000.0001) //                bi = 000002, bj = 000001
(PID.TID 0000.0001) // Tile number: 000019 (process no. = 000001)
(PID.TID 0000.0001) //        WEST: Tile = 000018, Process = 000001, Comm = put
(PID.TID 0000.0001) //                bi = 000002, bj = 000003
(PID.TID 0000.0001) //        EAST: Tile = 000020, Process = 000001, Comm = put
(PID.TID 0000.0001) //                bi = 000004, bj = 000003
(PID.TID 0000.0001) //       SOUTH: Tile = 000011, Process = 000001, Comm = put
(PID.TID 0000.0001) //                bi = 000003, bj = 000002
(PID.TID 0000.0001) //       NORTH: Tile = 000003, Process = 000001, Comm = put
(PID.TID 0000.0001) //                bi = 000003, bj = 000001
(PID.TID 0000.0001) // Tile number: 000020 (process no. = 000001)
(PID.TID 0000.0001) //        WEST: Tile = 000019, Process = 000001, Comm = put
(PID.TID 0000.0001) //                bi = 000003, bj = 000003
(PID.TID 0000.0001) //        EAST: Tile = 000021, Process = 000001, Comm = put
(PID.TID 0000.0001) //                bi = 000005, bj = 000003
(PID.TID 0000.0001) //       SOUTH: Tile = 000012, Process = 000001, Comm = put
(PID.TID 0000.0001) //                bi = 000004, bj = 000002
(PID.TID 0000.0001) //       NORTH: Tile = 000004, Process = 000001, Comm = put
(PID.TID 0000.0001) //                bi = 000004, bj = 000001
(PID.TID 0000.0001) // Tile number: 000021 (process no. = 000001)
(PID.TID 0000.0001) //        WEST: Tile = 000020, Process = 000001, Comm = put
(PID.TID 0000.0001) //                bi = 000004, bj = 000003
(PID.TID 0000.0001) //        EAST: Tile = 000022, Process = 000001, Comm = put
(PID.TID 0000.0001) //                bi = 000006, bj = 000003
(PID.TID 0000.0001) //       SOUTH: Tile = 000013, Process = 000001, Comm = put
(PID.TID 0000.0001) //                bi = 000005, bj = 000002
(PID.TID 0000.0001) //       NORTH: Tile = 000005, Process = 000001, Comm = put
(PID.TID 0000.0001) //                bi = 000005, bj = 000001
(PID.TID 0000.0001) // Tile number: 000022 (process no. = 000001)
(PID.TID 0000.0001) //        WEST: Tile = 000021, Process = 000001, Comm = put
(PID.TID 0000.0001) //                bi = 000005, bj = 000003
(PID.TID 0000.0001) //        EAST: Tile = 000023, Process = 000001, Comm = put
(PID.TID 0000.0001) //                bi = 000007, bj = 000003
(PID.TID 0000.0001) //       SOUTH: Tile = 000014, Process = 000001, Comm = put
(PID.TID 0000.0001) //                bi = 000006, bj = 000002
(PID.TID 0000.0001) //       NORTH: Tile = 000006, Process = 000001, Comm = put
(PID.TID 0000.0001) //                bi = 000006, bj = 000001
(PID.TID 0000.0001) // Tile number: 000023 (process no. = 000001)
(PID.TID 0000.0001) //        WEST: Tile = 000022, Process = 000001, Comm = put
(PID.TID 0000.0001) //                bi = 000006, bj = 000003
(PID.TID 0000.0001) //        EAST: Tile = 000024, Process = 000001, Comm = put
(PID.TID 0000.0001) //                bi = 000008, bj = 000003
(PID.TID 0000.0001) //       SOUTH: Tile = 000015, Process = 000001, Comm = put
(PID.TID 0000.0001) //                bi = 000007, bj = 000002
(PID.TID 0000.0001) //       NORTH: Tile = 000007, Process = 000001, Comm = put
(PID.TID 0000.0001) //                bi = 000007, bj = 000001
(PID.TID 0000.0001) // Tile number: 000024 (process no. = 000001)
(PID.TID 0000.0001) //        WEST: Tile = 000023, Process = 000001, Comm = put
(PID.TID 0000.0001) //                bi = 000007, bj = 000003
(PID.TID 0000.0001) //        EAST: Tile = 000017, Process = 000001, Comm = put
(PID.TID 0000.0001) //                bi = 000001, bj = 000003
(PID.TID 0000.0001) //       SOUTH: Tile = 000016, Process = 000001, Comm = put
(PID.TID 0000.0001) //                bi = 000008, bj = 000002
(PID.TID 0000.0001) //       NORTH: Tile = 000008, Process = 000001, Comm = put
(PID.TID 0000.0001) //                bi = 000008, bj = 000001
(PID.TID 0000.0001) 
(PID.TID 0000.0001) DEBUG_MSG: ENTERED S/R THE_MODEL_MAIN
(PID.TID 0000.0001) DEBUG_MSG: CALLING S/R INITIALISE_FIXED
(PID.TID 0000.0001)  INI_PARMS: opening model parameter file "data"
(PID.TID 0000.0001)  OPEN_COPY_DATA_FILE: opening file data
(PID.TID 0000.0001) // =======================================================
(PID.TID 0000.0001) // Parameter file "data"
(PID.TID 0000.0001) // =======================================================
(PID.TID 0000.0001) ># ====================
(PID.TID 0000.0001) ># | Model parameters |
(PID.TID 0000.0001) ># ====================
(PID.TID 0000.0001) >#
(PID.TID 0000.0001) ># Continuous equation parameters
(PID.TID 0000.0001) > &PARM01
(PID.TID 0000.0001) > Tref = -0.194175, -0.582524, -0.970874, -1.35922, -1.74757,
(PID.TID 0000.0001) >        -2.13592,  -2.52427,  -2.91262,  -3.30097, -3.68932,
(PID.TID 0000.0001) >        -4.07767,  -4.46602,  -4.85437,  -5.24272, -5.63107,
(PID.TID 0000.0001) >        -6.01942,  -6.40777,  -6.79612,  -7.18447, -7.57282,
(PID.TID 0000.0001) >        -7.96117,  -8.34951,  -8.73786,  -9.12621, -9.51456,
(PID.TID 0000.0001) > sRef= 25*1.,
(PID.TID 0000.0001) > viscAr=5.E-1,
(PID.TID 0000.0001) > viscAh=0.0E0,
(PID.TID 0000.0001) > no_slip_sides=.TRUE.,
(PID.TID 0000.0001) > no_slip_bottom=.TRUE.,
(PID.TID 0000.0001) >#- a trick to recover old version of side-drag:
(PID.TID 0000.0001) >#sideDragFactor=0.,
(PID.TID 0000.0001) > bottomDragQuadratic=2.E-3,
(PID.TID 0000.0001) > viscA4=0.E12,
(PID.TID 0000.0001) > viscC4Leith=1.458198138065,
(PID.TID 0000.0001) > useAreaViscLength=.TRUE.,
(PID.TID 0000.0001) > diffKhT=0.E0,
(PID.TID 0000.0001) > diffKrT=0.E-2,
(PID.TID 0000.0001) > diffKhS=0.E0,
(PID.TID 0000.0001) > diffKrS=0.E-2,
(PID.TID 0000.0001) > f0=1.0e-4,
(PID.TID 0000.0001) > beta=0.E-11,
(PID.TID 0000.0001) > tAlpha=2.E-4,
(PID.TID 0000.0001) > sBeta =0.E-4,
(PID.TID 0000.0001) > gravity=9.81,
(PID.TID 0000.0001) > rhonil=1030.0,
(PID.TID 0000.0001) > rigidLid=.FALSE.,
(PID.TID 0000.0001) > implicitFreeSurface=.TRUE.,
(PID.TID 0000.0001) > eosType='LINEAR',
(PID.TID 0000.0001) > hFacMin=0.2,
(PID.TID 0000.0001) >#nonHydrostatic=.TRUE.,
(PID.TID 0000.0001) > vectorInvariantMomentum=.TRUE.,
(PID.TID 0000.0001) > staggerTimeStep=.TRUE.,
(PID.TID 0000.0001) > tempAdvScheme=77,
(PID.TID 0000.0001) > saltAdvScheme=77,
(PID.TID 0000.0001) > readBinaryPrec=64,
(PID.TID 0000.0001) > writeBinaryPrec=64,
(PID.TID 0000.0001) > writeStatePrec=64,
(PID.TID 0000.0001) >#- not safe to use globalFiles in multi-processors runs
(PID.TID 0000.0001) >#globalFiles=.TRUE.,
(PID.TID 0000.0001) > /
(PID.TID 0000.0001) >
(PID.TID 0000.0001) ># Elliptic solver parameters
(PID.TID 0000.0001) > &PARM02
(PID.TID 0000.0001) > cg2dMaxIters=1000,
(PID.TID 0000.0001) > cg2dTargetResidual=1.E-11,
(PID.TID 0000.0001) > cg3dMaxIters=10,
(PID.TID 0000.0001) > cg3dTargetResidual=1.E-13,
(PID.TID 0000.0001) > /
(PID.TID 0000.0001) >
(PID.TID 0000.0001) ># Time stepping parameters
(PID.TID 0000.0001) > &PARM03
(PID.TID 0000.0001) > nIter0=0,
(PID.TID 0000.0001) >#nTimeSteps=12000,
(PID.TID 0000.0001) > nTimeSteps=20,
(PID.TID 0000.0001) > deltaT=300.,
(PID.TID 0000.0001) > abEps=0.1,
(PID.TID 0000.0001) > pChkptFreq=0.0,
(PID.TID 0000.0001) > chkptFreq=100000.0,
(PID.TID 0000.0001) > dumpFreq=30000.,
(PID.TID 0000.0001) >#cAdjFreq=30.,
(PID.TID 0000.0001) >#monitorFreq=6000.,
(PID.TID 0000.0001) > monitorFreq=300.,
(PID.TID 0000.0001) > monitorSelect=2,
(PID.TID 0000.0001) > /
(PID.TID 0000.0001) >
(PID.TID 0000.0001) ># Gridding parameters
(PID.TID 0000.0001) > &PARM04
(PID.TID 0000.0001) > usingCartesianGrid=.TRUE.,
(PID.TID 0000.0001) ># delXfile='delXvar',
(PID.TID 0000.0001) > delX=200*10000.0,
(PID.TID 0000.0001) > delYfile='delYvar',
(PID.TID 0000.0001) > delR = 25*144.0,
(PID.TID 0000.0001) > /
(PID.TID 0000.0001) >
(PID.TID 0000.0001) ># Input datasets
(PID.TID 0000.0001) > &PARM05
(PID.TID 0000.0001) > hydrogThetaFile='T.init',
(PID.TID 0000.0001) > bathyFile='topog.slope',
(PID.TID 0000.0001) > /
(PID.TID 0000.0001) 
(PID.TID 0000.0001)  INI_PARMS ; starts to read PARM01
(PID.TID 0000.0001)  INI_PARMS ; read PARM01 : OK
(PID.TID 0000.0001)  INI_PARMS ; starts to read PARM02
(PID.TID 0000.0001)  INI_PARMS ; read PARM02 : OK
(PID.TID 0000.0001)  INI_PARMS ; starts to read PARM03
(PID.TID 0000.0001)  INI_PARMS ; read PARM03 : OK
(PID.TID 0000.0001)  INI_PARMS ; starts to read PARM04
(PID.TID 0000.0001)  INI_PARMS ; read PARM04 : OK
(PID.TID 0000.0001)  INI_PARMS ; starts to read PARM05
(PID.TID 0000.0001)  INI_PARMS ; read PARM05 : OK
(PID.TID 0000.0001)  INI_PARMS: finished reading file "data"
(PID.TID 0000.0001)  PACKAGES_BOOT: opening data.pkg
(PID.TID 0000.0001)  OPEN_COPY_DATA_FILE: opening file data.pkg
(PID.TID 0000.0001) // =======================================================
(PID.TID 0000.0001) // Parameter file "data.pkg"
(PID.TID 0000.0001) // =======================================================
(PID.TID 0000.0001) ># Packages
(PID.TID 0000.0001) > &PACKAGES
(PID.TID 0000.0001) > useOBCS=.TRUE.,
(PID.TID 0000.0001) > useDiagnostics=.TRUE.,
(PID.TID 0000.0001) > /
(PID.TID 0000.0001) 
(PID.TID 0000.0001)  PACKAGES_BOOT: finished reading data.pkg
(PID.TID 0000.0001)  OBCS_READPARMS: opening data.obcs
(PID.TID 0000.0001)  OPEN_COPY_DATA_FILE: opening file data.obcs
(PID.TID 0000.0001) // =======================================================
(PID.TID 0000.0001) // Parameter file "data.obcs"
(PID.TID 0000.0001) // =======================================================
(PID.TID 0000.0001) ># Open-boundaries
(PID.TID 0000.0001) > &OBCS_PARM01
(PID.TID 0000.0001) ># OB_Ieast=30*-1,
(PID.TID 0000.0001) > OB_Iwest=45*1,
(PID.TID 0000.0001) > OB_Jnorth=200*-1,
(PID.TID 0000.0001) ># OB_Jsouth=100*1
(PID.TID 0000.0001) ># useOrlanskiEast=.TRUE.,
(PID.TID 0000.0001) > useOrlanskiWest=.TRUE.,
(PID.TID 0000.0001) > useOrlanskiNorth=.FALSE.,
(PID.TID 0000.0001) ># useOrlanskiSouth=.TRUE.,
(PID.TID 0000.0001) > useOBCSbalance=.TRUE.,
(PID.TID 0000.0001) > OBCS_balanceFacW= 1.,
(PID.TID 0000.0001) > OBCS_balanceFacN= 0.,
(PID.TID 0000.0001) > OBCS_monitorFreq=3000.,
(PID.TID 0000.0001) > /
(PID.TID 0000.0001) >
(PID.TID 0000.0001) > &OBCS_PARM02
(PID.TID 0000.0001) > CMAX=0.5,
(PID.TID 0000.0001) ># CMAX=2.0,
(PID.TID 0000.0001) > cvelTimeScale=10000.,
(PID.TID 0000.0001) ># CFIX=0.2,
(PID.TID 0000.0001) > useFixedCEast=.FALSE.,
(PID.TID 0000.0001) > useFixedCWest=.FALSE.,
(PID.TID 0000.0001) > /
(PID.TID 0000.0001) 
(PID.TID 0000.0001)  OBCS_READPARMS: finished reading data.obcs
(PID.TID 0000.0001)  Northern OB global indices : OB_Jnorth =
(PID.TID 0000.0001)   200 @       45                            /* I =  1:200 */
(PID.TID 0000.0001)  Southern OB global indices : OB_Jsouth =
(PID.TID 0000.0001)   200 @        0                            /* I =  1:200 */
(PID.TID 0000.0001)  Eastern  OB global indices : OB_Ieast =
(PID.TID 0000.0001)    45 @        0                            /* J =  1: 45 */
(PID.TID 0000.0001)  Western  OB global indices : OB_Iwest =
(PID.TID 0000.0001)    45 @        1                            /* J =  1: 45 */
(PID.TID 0000.0001) 
(PID.TID 0000.0001)  DIAGNOSTICS_READPARMS: opening data.diagnostics
(PID.TID 0000.0001)  OPEN_COPY_DATA_FILE: opening file data.diagnostics
(PID.TID 0000.0001) // =======================================================
(PID.TID 0000.0001) // Parameter file "data.diagnostics"
(PID.TID 0000.0001) // =======================================================
(PID.TID 0000.0001) ># Diagnostic Package Choices
(PID.TID 0000.0001) >#--------------------
(PID.TID 0000.0001) >#  dumpAtLast (logical): always write output at the end of simulation (default=F)
(PID.TID 0000.0001) >#  diag_mnc   (logical): write to NetCDF files (default=useMNC)
(PID.TID 0000.0001) >#--for each output-stream:
(PID.TID 0000.0001) >#  fileName(n) : prefix of the output file name (max 80c long) for outp.stream n
(PID.TID 0000.0001) >#  frequency(n):< 0 : write snap-shot output every |frequency| seconds
(PID.TID 0000.0001) >#               > 0 : write time-average output every frequency seconds
(PID.TID 0000.0001) >#  timePhase(n)     : write at time = timePhase + multiple of |frequency|
(PID.TID 0000.0001) >#    averagingFreq  : frequency (in s) for periodic averaging interval
(PID.TID 0000.0001) >#    averagingPhase : phase     (in s) for periodic averaging interval
(PID.TID 0000.0001) >#    repeatCycle    : number of averaging intervals in 1 cycle
(PID.TID 0000.0001) >#  levels(:,n) : list of levels to write to file (Notes: declared as REAL)
(PID.TID 0000.0001) >#                when this entry is missing, select all common levels of this list
(PID.TID 0000.0001) >#  fields(:,n) : list of selected diagnostics fields (8.c) in outp.stream n
(PID.TID 0000.0001) >#                (see "available_diagnostics.log" file for the full list of diags)
(PID.TID 0000.0001) >#  missing_value(n) : missing value for real-type fields in output file "n"
(PID.TID 0000.0001) >#  fileFlags(n)     : specific code (8c string) for output file "n"
(PID.TID 0000.0001) >#--------------------
(PID.TID 0000.0001) > &DIAGNOSTICS_LIST
(PID.TID 0000.0001) >  fields(1,1)  = 'VISCA4D ',
(PID.TID 0000.0001) ># Omit level() to diagnose ALL levels ; otherwise list individual levels here
(PID.TID 0000.0001) >#  levels(1,1) = 1.,3.,5.,
(PID.TID 0000.0001) >   fileName(1) = 'visc',
(PID.TID 0000.0001) >  frequency(1) = 3000.,
(PID.TID 0000.0001) > /
(PID.TID 0000.0001) >
(PID.TID 0000.0001) >#--------------------
(PID.TID 0000.0001) ># Parameter for Diagnostics of per level statistics:
(PID.TID 0000.0001) >#--------------------
(PID.TID 0000.0001) >#  diagSt_mnc (logical): write stat-diags to NetCDF files (default=diag_mnc)
(PID.TID 0000.0001) >#  diagSt_regMaskFile : file containing the region-mask to read-in
(PID.TID 0000.0001) >#  nSetRegMskFile   : number of region-mask sets within the region-mask file
(PID.TID 0000.0001) >#  set_regMask(i)   : region-mask set-index that identifies the region "i"
(PID.TID 0000.0001) >#  val_regMask(i)   : region "i" identifier value in the region mask
(PID.TID 0000.0001) >#--for each output-stream:
(PID.TID 0000.0001) >#  stat_fName(n) : prefix of the output file name (max 80c long) for outp.stream n
(PID.TID 0000.0001) >#  stat_freq(n):< 0 : write snap-shot output every |stat_freq| seconds
(PID.TID 0000.0001) >#               > 0 : write time-average output every stat_freq seconds
(PID.TID 0000.0001) >#  stat_phase(n)    : write at time = stat_phase + multiple of |stat_freq|
(PID.TID 0000.0001) >#  stat_region(:,n) : list of "regions" (default: 1 region only=global)
(PID.TID 0000.0001) >#  stat_fields(:,n) : list of selected diagnostics fields (8.c) in outp.stream n
(PID.TID 0000.0001) >#                (see "available_diagnostics.log" file for the full list of diags)
(PID.TID 0000.0001) >#--------------------
(PID.TID 0000.0001) > &DIAG_STATIS_PARMS
(PID.TID 0000.0001) >#- an example just to check the agreement with MONITOR output:
(PID.TID 0000.0001) >#stat_fields(1:5,1)  = 'ETAN    ','UVEL    ','VVEL    ','WVEL    ', 'THETA   ',
(PID.TID 0000.0001) ># stat_fName(1) = 'dynStDiag',
(PID.TID 0000.0001) >#  stat_freq(1) = -864000.,
(PID.TID 0000.0001) ># stat_phase(1) = 0.,
(PID.TID 0000.0001) > /
(PID.TID 0000.0001) >
(PID.TID 0000.0001) 
(PID.TID 0000.0001) S/R DIAGNOSTICS_READPARMS, read namelist "diagnostics_list": start
(PID.TID 0000.0001) S/R DIAGNOSTICS_READPARMS, read namelist "diagnostics_list": OK
(PID.TID 0000.0001) S/R DIAGNOSTICS_READPARMS, read namelist "DIAG_STATIS_PARMS": start
(PID.TID 0000.0001) S/R DIAGNOSTICS_READPARMS, read namelist "DIAG_STATIS_PARMS": OK
(PID.TID 0000.0001) -----------------------------------------------------
(PID.TID 0000.0001)  DIAGNOSTICS_READPARMS: active diagnostics summary:
(PID.TID 0000.0001) -----------------------------------------------------
(PID.TID 0000.0001) Creating Output Stream: visc
(PID.TID 0000.0001) Output Frequency:       3000.000000 ; Phase:           0.000000
(PID.TID 0000.0001)  Averaging Freq.:       3000.000000 , Phase:           0.000000 , Cycle:   1
(PID.TID 0000.0001)  missing value:  1.234567000000E+05 ; for integers:   123456789
(PID.TID 0000.0001)  Levels:    will be set later
(PID.TID 0000.0001)  Fields:    VISCA4D
(PID.TID 0000.0001) -----------------------------------------------------
(PID.TID 0000.0001)  DIAGNOSTICS_READPARMS: statistics diags. summary:
(PID.TID 0000.0001) -----------------------------------------------------
(PID.TID 0000.0001) 
(PID.TID 0000.0001) SET_PARMS: done
(PID.TID 0000.0001) S/R LOAD_GRID_SPACING: delY loaded from file: delYvar
(PID.TID 0000.0001) Enter INI_VERTICAL_GRID: setInterFDr=    T ; setCenterDr=    F
(PID.TID 0000.0001) %MON XC_max                       =   1.9950000000000E+06
(PID.TID 0000.0001) %MON XC_min                       =   5.0000000000000E+03
(PID.TID 0000.0001) %MON XC_mean                      =   1.0000000000000E+06
(PID.TID 0000.0001) %MON XC_sd                        =   5.7734305226615E+05
(PID.TID 0000.0001) %MON XG_max                       =   1.9900000000000E+06
(PID.TID 0000.0001) %MON XG_min                       =   0.0000000000000E+00
(PID.TID 0000.0001) %MON XG_mean                      =   9.9500000000000E+05
(PID.TID 0000.0001) %MON XG_sd                        =   5.7734305226615E+05
(PID.TID 0000.0001) %MON DXC_max                      =   1.0000000000000E+04
(PID.TID 0000.0001) %MON DXC_min                      =   1.0000000000000E+04
(PID.TID 0000.0001) %MON DXC_mean                     =   1.0000000000000E+04
(PID.TID 0000.0001) %MON DXC_sd                       =   0.0000000000000E+00
(PID.TID 0000.0001) %MON DXF_max                      =   1.0000000000000E+04
(PID.TID 0000.0001) %MON DXF_min                      =   1.0000000000000E+04
(PID.TID 0000.0001) %MON DXF_mean                     =   1.0000000000000E+04
(PID.TID 0000.0001) %MON DXF_sd                       =   0.0000000000000E+00
(PID.TID 0000.0001) %MON DXG_max                      =   1.0000000000000E+04
(PID.TID 0000.0001) %MON DXG_min                      =   1.0000000000000E+04
(PID.TID 0000.0001) %MON DXG_mean                     =   1.0000000000000E+04
(PID.TID 0000.0001) %MON DXG_sd                       =   0.0000000000000E+00
(PID.TID 0000.0001) %MON DXV_max                      =   1.0000000000000E+04
(PID.TID 0000.0001) %MON DXV_min                      =   1.0000000000000E+04
(PID.TID 0000.0001) %MON DXV_mean                     =   1.0000000000000E+04
(PID.TID 0000.0001) %MON DXV_sd                       =   0.0000000000000E+00
(PID.TID 0000.0001) %MON YC_max                       =   5.9499999998863E+05
(PID.TID 0000.0001) %MON YC_min                       =   2.1773852061364E+04
(PID.TID 0000.0001) %MON YC_mean                      =   3.6568248764828E+05
(PID.TID 0000.0001) %MON YC_sd                        =   1.4616293187418E+05
(PID.TID 0000.0001) %MON YG_max                       =   5.8999999997725E+05
(PID.TID 0000.0001) %MON YG_min                       =  -1.8189894035459E-12
(PID.TID 0000.0001) %MON YG_mean                      =   3.5901582098162E+05
(PID.TID 0000.0001) %MON YG_sd                        =   1.4918819495542E+05
(PID.TID 0000.0001) %MON DYC_max                      =   4.1655495879012E+04
(PID.TID 0000.0001) %MON DYC_min                      =   1.0000000030126E+04
(PID.TID 0000.0001) %MON DYC_mean                     =   1.3333333333333E+04
(PID.TID 0000.0001) %MON DYC_sd                       =   7.9859471312509E+03
(PID.TID 0000.0001) %MON DYF_max                      =   4.3547704122728E+04
(PID.TID 0000.0001) %MON DYF_min                      =   1.0000000022748E+04
(PID.TID 0000.0001) %MON DYF_mean                     =   1.3333333333333E+04
(PID.TID 0000.0001) %MON DYF_sd                       =   8.4257600310479E+03
(PID.TID 0000.0001) %MON DYG_max                      =   4.3547704122728E+04
(PID.TID 0000.0001) %MON DYG_min                      =   1.0000000022748E+04
(PID.TID 0000.0001) %MON DYG_mean                     =   1.3333333333333E+04
(PID.TID 0000.0001) %MON DYG_sd                       =   8.4257600310479E+03
(PID.TID 0000.0001) %MON DYU_max                      =   4.1655495879012E+04
(PID.TID 0000.0001) %MON DYU_min                      =   1.0000000030126E+04
(PID.TID 0000.0001) %MON DYU_mean                     =   1.3333333333333E+04
(PID.TID 0000.0001) %MON DYU_sd                       =   7.9859471312509E+03
(PID.TID 0000.0001) %MON RA_max                       =   4.3547704122728E+08
(PID.TID 0000.0001) %MON RA_min                       =   1.0000000022748E+08
(PID.TID 0000.0001) %MON RA_mean                      =   1.3333333333333E+08
(PID.TID 0000.0001) %MON RA_sd                        =   8.4257600310479E+07
(PID.TID 0000.0001) %MON RAW_max                      =   4.3547704122728E+08
(PID.TID 0000.0001) %MON RAW_min                      =   1.0000000022748E+08
(PID.TID 0000.0001) %MON RAW_mean                     =   1.3333333333333E+08
(PID.TID 0000.0001) %MON RAW_sd                       =   8.4257600310479E+07
(PID.TID 0000.0001) %MON RAS_max                      =   4.1655495879012E+08
(PID.TID 0000.0001) %MON RAS_min                      =   1.0000000030126E+08
(PID.TID 0000.0001) %MON RAS_mean                     =   1.3333333333333E+08
(PID.TID 0000.0001) %MON RAS_sd                       =   7.9859471312509E+07
(PID.TID 0000.0001) %MON RAZ_max                      =   4.1655495879012E+08
(PID.TID 0000.0001) %MON RAZ_min                      =   1.0000000030126E+08
(PID.TID 0000.0001) %MON RAZ_mean                     =   1.3333333333333E+08
(PID.TID 0000.0001) %MON RAZ_sd                       =   7.9859471312509E+07
(PID.TID 0000.0001) %MON AngleCS_max                  =   1.0000000000000E+00
(PID.TID 0000.0001) %MON AngleCS_min                  =   1.0000000000000E+00
(PID.TID 0000.0001) %MON AngleCS_mean                 =   1.0000000000000E+00
(PID.TID 0000.0001) %MON AngleCS_sd                   =   0.0000000000000E+00
(PID.TID 0000.0001) %MON AngleSN_max                  =   0.0000000000000E+00
(PID.TID 0000.0001) %MON AngleSN_min                  =   0.0000000000000E+00
(PID.TID 0000.0001) %MON AngleSN_mean                 =   0.0000000000000E+00
(PID.TID 0000.0001) %MON AngleSN_sd                   =   0.0000000000000E+00
(PID.TID 0000.0001)  MDS_READ_FIELD: opening global file: topog.slope
(PID.TID 0000.0001) // =======================================================
(PID.TID 0000.0001) // Field Model R_low (ini_masks_etc) at iteration          1
(PID.TID 0000.0001) // CMIN =         -3.600000000000000E+03
(PID.TID 0000.0001) // CMAX =         -6.048000000000000E+02
(PID.TID 0000.0001) // CINT =          1.109333333333333E+02
(PID.TID 0000.0001) // SYMBOLS (CMIN->CMAX): -abcdefghijklmnopqrstuvwxyz+
(PID.TID 0000.0001) //                  0.0: .
(PID.TID 0000.0001) // RANGE I (Lo:Hi:Step):(    -2:   203:     1)
(PID.TID 0000.0001) // RANGE J (Lo:Hi:Step):(    48:    -2:    -1)
(PID.TID 0000.0001) // RANGE K (Lo:Hi:Step):(   1:   1:   1)
(PID.TID 0000.0001) // =======================================================
(PID.TID 0000.0001) K =   1
(PID.TID 0000.0001) //                I=7       I=17      I=27      I=31      I=41      I=51      I=55      I=65      I=75      I=79      I=89      I=99      I=103     I=113     I=123     I=127     I=137     I=147     I=151     I=161     I=171     I=175     I=185     I=195
(PID.TID 0000.0001) // |--J--|210123456|890123456|890123456|834567890|234567890|234567890|238901234|678901234|678901234|678345678|012345678|012345678|012389012|456789012|456789012|456783456|890123456|890123456|890123890|234567890|234567890|234567834|678901234|678901234|67890123
(PID.TID 0000.0001) //     48 --.-------------------------------------------------------------------------------------------------------------------------------------------------------------------------------------------------------------------------------------------------.---
(PID.TID 0000.0001) //     47 --.-------------------------------------------------------------------------------------------------------------------------------------------------------------------------------------------------------------------------------------------------.---
(PID.TID 0000.0001) //     46 ........................................................................................................................................................................................................................................................
(PID.TID 0000.0001) //     45 ............................................................................................................................................................................................................++++++++++...+++............................
(PID.TID 0000.0001) //     44 ............................................................................................................................................................................................................++++++++++...+++............................
(PID.TID 0000.0001) //     43 ............................................................................................................................................................................................................++++++++++...+++............................
(PID.TID 0000.0001) //     42 ............................................................................................................................................................................................................++++++++++...+++............................
(PID.TID 0000.0001) //     41 ............................................................................................................................................................................................................++++++++++...+++............................
(PID.TID 0000.0001) //     40 ++.+++++++++++++++++++++++++++++++++++++++++++++++++++++++++++++++++++++++++++++++++++++++++++++++++++++++++++++++++++++++++++++++++++++++++++++++++++++++++++++++++++++++++++++++++++++++++++++++++++++++++++++++++++++++++++++++++++++++++++++++++.+++
(PID.TID 0000.0001) //     39 zz.zzzzzzzzzzzzzzzzzzzzzzzzzzzzzzzzzzzzzzzzzzzzzzzzzzzzzzzzzzzzzzzzzzzzzzzzzzzzzzzzzzzzzzzzzzzzzzzzzzzzzzzzzzzzzzzzzzzzzzzzzzzzzzzzzzzzzzzzzzzzzzzzzzzzzzzzzzzzzzzzzzzzzzzzzzzzzzzzzzzzzzzzzzzzzzzzzzzzzzzzzzzzzzzzzzzzzzzzzzzzzzzzzzzzzzzzzzzzzzzzz.zzz
(PID.TID 0000.0001) //     38 yy.yyyyyyyyyyyyyyyyyyyyyyyyyyyyyyyyyyyyyyyyyyyyyyyyyyyyyyyyyyyyyyyyyyyyyyyyyyyyyyyyyyyyyyyyyyyyyyyyyyyyyyyyyyyyyyyyyyyyyyyyyyyyyyyyyyyyyyyyyyyyyyyyyyyyyyyyyyyyyyyyyyyyyyyyyyyyyyyyyyyyyyyyyyyyyyyyyyyyyyyyyyyyyyyyyyyyyyyyyyyyyyyyyyyyyyyyyyyyyyyyy.yyy
(PID.TID 0000.0001) //     37 xx.xxxxxxxxxxxxxxxxxxxxxxxxxxxxxxxxxxxxxxxxxxxxxxxxxxxxxxxxxxxxxxxxxxxxxxxxxxxxxxxxxxxxxxxxxxxxxxxxxxxxxxxxxxxxxxxxxxxxxxxxxxxxxxxxxxxxxxxxxxxxxxxxxxxxxxxxxxxxxxxxxxxxxxxxxxxxxxxxxxxxxxxxxxxxxxxxxxxxxxxxxxxxxxxxxxxxxxxxxxxxxxxxxxxxxxxxxxxxxxxxx.xxx
(PID.TID 0000.0001) //     36 ww.wwwwwwwwwwwwwwwwwwwwwwwwwwwwwwwwwwwwwwwwwwwwwwwwwwwwwwwwwwwwwwwwwwwwwwwwwwwwwwwwwwwwwwwwwwwwwwwwwwwwwwwwwwwwwwwwwwwwwwwwwwwwwwwwwwwwwwwwwwwwwwwwwwwwwwwwwwwwwwwwwwwwwwwwwwwwwwwwwwwwwwwwwwwwwwwwwwwwwwwwwwwwwwwwwwwwwwwwwwwwwwwwwwwwwwwwwwwwwwwww.www
(PID.TID 0000.0001) //     35 ww.wwwwwwwwwwwwwwwwwwwwwwwwwwwwwwwwwwwwwwwwwwwwwwwwwwwwwwwwwwwwwwwwwwwwwwwwwwwwwwwwwwwwwwwwwwwwwwwwwwwwwwwwwwwwwwwwwwwwwwwwwwwwwwwwwwwwwwwwwwwwwwwwwwwwwwwwwwwwwwwwwwwwwwwwwwwwwwwwwwwwwwwwwwwwwwwwwwwwwwwwwwwwwwwwwwwwwwwwwwwwwwwwwwwwwwwwwwwwwwwww.www
(PID.TID 0000.0001) //     34 vv.vvvvvvvvvvvvvvvvvvvvvvvvvvvvvvvvvvvvvvvvvvvvvvvvvvvvvvvvvvvvvvvvvvvvvvvvvvvvvvvvvvvvvvvvvvvvvvvvvvvvvvvvvvvvvvvvvvvvvvvvvvvvvvvvvvvvvvvvvvvvvvvvvvvvvvvvvvvvvvvvvvvvvvvvvvvvvvvvvvvvvvvvvvvvvvvvvvvvvvvvvvvvvvvvvvvvvvvvvvvvvvvvvvvvvvvvvvvvvvvvv.vvv
(PID.TID 0000.0001) //     33 uu.uuuuuuuuuuuuuuuuuuuuuuuuuuuuuuuuuuuuuuuuuuuuuuuuuuuuuuuuuuuuuuuuuuuuuuuuuuuuuuuuuuuuuuuuuuuuuuuuuuuuuuuuuuuuuuuuuuuuuuuuuuuuuuuuuuuuuuuuuuuuuuuuuuuuuuuuuuuuuuuuuuuuuuuuuuuuuuuuuuuuuuuuuuuuuuuuuuuuuuuuuuuuuuuuuuuuuuuuuuuuuuuuuuuuuuuuuuuuuuuuu.uuu
(PID.TID 0000.0001) //     32 tt.ttttttttttttttttttttttttttttttttttttttttttttttttttttttttttttttttttttttttttttttttttttttttttttttttttttttttttttttttttttttttttttttttttttttttttttttttttttttttttttttttttttttttttttttttttttttttttttttttttttttttttttttttttttttttttttttttttttttttttttttttt.ttt
(PID.TID 0000.0001) //     31 ss.sssssssssssssssssssssssssssssssssssssssssssssssssssssssssssssssssssssssssssssssssssssssssssssssssssssssssssssssssssssssssssssssssssssssssssssssssssssssssssssssssssssssssssssssssssssssssssssssssssssssssssssssssssssssssssssssssssssssssssssssss.sss
(PID.TID 0000.0001) //     30 rr.rrrrrrrrrrrrrrrrrrrrrrrrrrrrrrrrrrrrrrrrrrrrrrrrrrrrrrrrrrrrrrrrrrrrrrrrrrrrrrrrrrrrrrrrrrrrrrrrrrrrrrrrrrrrrrrrrrrrrrrrrrrrrrrrrrrrrrrrrrrrrrrrrrrrrrrrrrrrrrrrrrrrrrrrrrrrrrrrrrrrrrrrrrrrrrrrrrrrrrrrrrrrrrrrrrrrrrrrrrrrrrrrrrrrrrrrrrrrrrrrr.rrr
(PID.TID 0000.0001) //     29 qq.qqqqqqqqqqqqqqqqqqqqqqqqqqqqqqqqqqqqqqqqqqqqqqqqqqqqqqqqqqqqqqqqqqqqqqqqqqqqqqqqqqqqqqqqqqqqqqqqqqqqqqqqqqqqqqqqqqqqqqqqqqqqqqqqqqqqqqqqqqqqqqqqqqqqqqqqqqqqqqqqqqqqqqqqqqqqqqqqqqqqqqqqqqqqqqqqqqqqqqqqqqqqqqqqqqqqqqqqqqqqqqqqqqqqqqqqqqqqqqqqq.qqq
(PID.TID 0000.0001) //     28 pp.ppppppppppppppppppppppppppppppppppppppppppppppppppppppppppppppppppppppppppppppppppppppppppppppppppppppppppppppppppppppppppppppppppppppppppppppppppppppppppppppppppppppppppppppppppppppppppppppppppppppppppppppppppppppppppppppppppppppppppppppppp.ppp
(PID.TID 0000.0001) //     33 uu.uuuuuuuuuuuuuuuuuuuuuuuuuuuuuuuuuuuuuuuuuuuuuuuuuuuuuuuuuuuuuuuuuuuuuuuuuuuuuuuuuuuuuuuuuuuuuuuuuuuuuuuuuuuuuuuuuuuuuuuuuuuuuuuuuuuuuuuuuuuuuuuuuuuuuuuuuuuuuuuuuuuuuuuuuuuuuuuuuuuuuuuuuuuuuuuuuuuuuuuuuuuuuuuuuuuuuuuuuuuuuuuuuuuuuuuuuuuuuuuuu.uuu
(PID.TID 0000.0001) //     32 tt.ttttttttttttttttttttttttttttttttttttttttttttttttttttttttttttttttttttttttttttttttttttttttttttttttttttttttttttttttttttttttttttttttttttttttttttttttttttttttttttttttttttttttttttttttttttttttttttttttttttttttttttttttttttttttttttttttttttttttttttttttt.ttt
(PID.TID 0000.0001) //     31 ss.sssssssssssssssssssssssssssssssssssssssssssssssssssssssssssssssssssssssssssssssssssssssssssssssssssssssssssssssssssssssssssssssssssssssssssssssssssssssssssssssssssssssssssssssssssssssssssssssssssssssssssssssssssssssssssssssssssssssssssssssss.sss
(PID.TID 0000.0001) //     30 rr.rrrrrrrrrrrrrrrrrrrrrrrrrrrrrrrrrrrrrrrrrrrrrrrrrrrrrrrrrrrrrrrrrrrrrrrrrrrrrrrrrrrrrrrrrrrrrrrrrrrrrrrrrrrrrrrrrrrrrrrrrrrrrrrrrrrrrrrrrrrrrrrrrrrrrrrrrrrrrrrrrrrrrrrrrrrrrrrrrrrrrrrrrrrrrrrrrrrrrrrrrrrrrrrrrrrrrrrrrrrrrrrrrrrrrrrrrrrrrrrrr.rrr
(PID.TID 0000.0001) //     29 qq.qqqqqqqqqqqqqqqqqqqqqqqqqqqqqqqqqqqqqqqqqqqqqqqqqqqqqqqqqqqqqqqqqqqqqqqqqqqqqqqqqqqqqqqqqqqqqqqqqqqqqqqqqqqqqqqqqqqqqqqqqqqqqqqqqqqqqqqqqqqqqqqqqqqqqqqqqqqqqqqqqqqqqqqqqqqqqqqqqqqqqqqqqqqqqqqqqqqqqqqqqqqqqqqqqqqqqqqqqqqqqqqqqqqqqqqqqqqqqqqqq.qqq
(PID.TID 0000.0001) //     28 pp.ppppppppppppppppppppppppppppppppppppppppppppppppppppppppppppppppppppppppppppppppppppppppppppppppppppppppppppppppppppppppppppppppppppppppppppppppppppppppppppppppppppppppppppppppppppppppppppppppppppppppppppppppppppppppppppppppppppppppppppppppp.ppp
(PID.TID 0000.0001) //     27 oo.ooooooooooooooooooooooooooooooooooooooooooooooooooooooooooooooooooooooooooooooooooooooooooooooooooooooooooooooooooooooooooooooooooooooooooooooooooooooooooooooooooooooooooooooooooooooooooooooooooooooooooooooooooooooooooooooooooooooooooooooooo.ooo
(PID.TID 0000.0001) //     26 nn.nnnnnnnnnnnnnnnnnnnnnnnnnnnnnnnnnnnnnnnnnnnnnnnnnnnnnnnnnnnnnnnnnnnnnnnnnnnnnnnnnnnnnnnnnnnnnnnnnnnnnnnnnnnnnnnnnnnnnnnnnnnnnnnnnnnnnnnnnnnnnnnnnnnnnnnnnnnnnnnnnnnnnnnnnnnnnnnnnnnnnnnnnnnnnnnnnnnnnnnnnnnnnnnnnnnnnnnnnnnnnnnnnnnnnnnnnnnnnnnnn.nnn
(PID.TID 0000.0001) //     25 nn.nnnnnnnnnnnnnnnnnnnnnnnnnnnnnnnnnnnnnnnnnnnnnnnnnnnnnnnnnnnnnnnnnnnnnnnnnnnnnnnnnnnnnnnnnnnnnnnnnnnnnnnnnnnnnnnnnnnnnnnnnnnnnnnnnnnnnnnnnnnnnnnnnnnnnnnnnnnnnnnnnnnnnnnnnnnnnnnnnnnnnnnnnnnnnnnnnnnnnnnnnnnnnnnnnnnnnnnnnnnnnnnnnnnnnnnnnnnnnnnnn.nnn
(PID.TID 0000.0001) //     24 mm.mmmmmmmmmmmmmmmmmmmmmmmmmmmmmmmmmmmmmmmmmmmmmmmmmmmmmmmmmmmmmmmmmmmmmmmmmmmmmmmmmmmmmmmmmmmmmmmmmmmmmmmmmmmmmmmmmmmmmmmmmmmmmmmmmmmmmmmmmmmmmmmmmmmmmmmmmmmmmmmmmmmmmmmmmmmmmmmmmmmmmmmmmmmmmmmmmmmmmmmmmmmmmmmmmmmmmmmmmmmmmmmmmmmmmmmmmmmmmmmmm.mmm
(PID.TID 0000.0001) //     23 ll.lllllllllllllllllllllllllllllllllllllllllllllllllllllllllllllllllllllllllllllllllllllllllllllllllllllllllllllllllllllllllllllllllllllllllllllllllllllllllllllllllllllllllllllllllllllllllllllllllllllllllllllllllllllllllllllllllllllllllllllllll.lll
(PID.TID 0000.0001) //     22 kk.kkkkkkkkkkkkkkkkkkkkkkkkkkkkkkkkkkkkkkkkkkkkkkkkkkkkkkkkkkkkkkkkkkkkkkkkkkkkkkkkkkkkkkkkkkkkkkkkkkkkkkkkkkkkkkkkkkkkkkkkkkkkkkkkkkkkkkkkkkkkkkkkkkkkkkkkkkkkkkkkkkkkkkkkkkkkkkkkkkkkkkkkkkkkkkkkkkkkkkkkkkkkkkkkkkkkkkkkkkkkkkkkkkkkkkkkkkkkkkkkk.kkk
(PID.TID 0000.0001) //     21 jj.jjjjjjjjjjjjjjjjjjjjjjjjjjjjjjjjjjjjjjjjjjjjjjjjjjjjjjjjjjjjjjjjjjjjjjjjjjjjjjjjjjjjjjjjjjjjjjjjjjjjjjjjjjjjjjjjjjjjjjjjjjjjjjjjjjjjjjjjjjjjjjjjjjjjjjjjjjjjjjjjjjjjjjjjjjjjjjjjjjjjjjjjjjjjjjjjjjjjjjjjjjjjjjjjjjjjjjjjjjjjjjjjjjjjjjjjjjjjjjjjj.jjj
(PID.TID 0000.0001) //     20 ii.iiiiiiiiiiiiiiiiiiiiiiiiiiiiiiiiiiiiiiiiiiiiiiiiiiiiiiiiiiiiiiiiiiiiiiiiiiiiiiiiiiiiiiiiiiiiiiiiiiiiiiiiiiiiiiiiiiiiiiiiiiiiiiiiiiiiiiiiiiiiiiiiiiiiiiiiiiiiiiiiiiiiiiiiiiiiiiiiiiiiiiiiiiiiiiiiiiiiiiiiiiiiiiiiiiiiiiiiiiiiiiiiiiiiiiiiiiiiiiiii.iii
(PID.TID 0000.0001) //     19 hh.hhhhhhhhhhhhhhhhhhhhhhhhhhhhhhhhhhhhhhhhhhhhhhhhhhhhhhhhhhhhhhhhhhhhhhhhhhhhhhhhhhhhhhhhhhhhhhhhhhhhhhhhhhhhhhhhhhhhhhhhhhhhhhhhhhhhhhhhhhhhhhhhhhhhhhhhhhhhhhhhhhhhhhhhhhhhhhhhhhhhhhhhhhhhhhhhhhhhhhhhhhhhhhhhhhhhhhhhhhhhhhhhhhhhhhhhhhhhhhhhh.hhh
(PID.TID 0000.0001) //     18 gg.ggggggggggggggggggggggggggggggggggggggggggggggggggggggggggggggggggggggggggggggggggggggggggggggggggggggggggggggggggggggggggggggggggggggggggggggggggggggggggggggggggggggggggggggggggggggggggggggggggggggggggggggggggggggggggggggggggggggggggggggggg.ggg
(PID.TID 0000.0001) //     17 ff.fffffffffffffffffffffffffffffffffffffffffffffffffffffffffffffffffffffffffffffffffffffffffffffffffffffffffffffffffffffffffffffffffffffffffffffffffffffffffffffffffffffffffffffffffffffffffffffffffffffffffffffffffffffffffffffffffffffffffffffffff.fff
(PID.TID 0000.0001) //     16 ee.eeeeeeeeeeeeeeeeeeeeeeeeeeeeeeeeeeeeeeeeeeeeeeeeeeeeeeeeeeeeeeeeeeeeeeeeeeeeeeeeeeeeeeeeeeeeeeeeeeeeeeeeeeeeeeeeeeeeeeeeeeeeeeeeeeeeeeeeeeeeeeeeeeeeeeeeeeeeeeeeeeeeeeeeeeeeeeeeeeeeeeeeeeeeeeeeeeeeeeeeeeeeeeeeeeeeeeeeeeeeeeeeeeeeeeeeeeeeeeeee.eee
(PID.TID 0000.0001) //     15 dd.ddddddddddddddddddddddddddddddddddddddddddddddddddddddddddddddddddddddddddddddddddddddddddddddddddddddddddddddddddddddddddddddddddddddddddddddddddddddddddddddddddddddddddddddddddddddddddddddddddddddddddddddddddddddddddddddddddddddddddddddddd.ddd
(PID.TID 0000.0001) //     14 dd.ddddddddddddddddddddddddddddddddddddddddddddddddddddddddddddddddddddddddddddddddddddddddddddddddddddddddddddddddddddddddddddddddddddddddddddddddddddddddddddddddddddddddddddddddddddddddddddddddddddddddddddddddddddddddddddddddddddddddddddddddd.ddd
(PID.TID 0000.0001) //     13 cc.ccccccccccccccccccccccccccccccccccccccccccccccccccccccccccccccccccccccccccccccccccccccccccccccccccccccccccccccccccccccccccccccccccccccccccccccccccccccccccccccccccccccccccccccccccccccccccccccccccccccccccccccccccccccccccccccccccccccccccccccccc.ccc
(PID.TID 0000.0001) //     18 gg.ggggggggggggggggggggggggggggggggggggggggggggggggggggggggggggggggggggggggggggggggggggggggggggggggggggggggggggggggggggggggggggggggggggggggggggggggggggggggggggggggggggggggggggggggggggggggggggggggggggggggggggggggggggggggggggggggggggggggggggggggg.ggg
(PID.TID 0000.0001) //     17 ff.fffffffffffffffffffffffffffffffffffffffffffffffffffffffffffffffffffffffffffffffffffffffffffffffffffffffffffffffffffffffffffffffffffffffffffffffffffffffffffffffffffffffffffffffffffffffffffffffffffffffffffffffffffffffffffffffffffffffffffffffff.fff
(PID.TID 0000.0001) //     16 ee.eeeeeeeeeeeeeeeeeeeeeeeeeeeeeeeeeeeeeeeeeeeeeeeeeeeeeeeeeeeeeeeeeeeeeeeeeeeeeeeeeeeeeeeeeeeeeeeeeeeeeeeeeeeeeeeeeeeeeeeeeeeeeeeeeeeeeeeeeeeeeeeeeeeeeeeeeeeeeeeeeeeeeeeeeeeeeeeeeeeeeeeeeeeeeeeeeeeeeeeeeeeeeeeeeeeeeeeeeeeeeeeeeeeeeeeeeeeeeeeee.eee
(PID.TID 0000.0001) //     15 dd.ddddddddddddddddddddddddddddddddddddddddddddddddddddddddddddddddddddddddddddddddddddddddddddddddddddddddddddddddddddddddddddddddddddddddddddddddddddddddddddddddddddddddddddddddddddddddddddddddddddddddddddddddddddddddddddddddddddddddddddddddd.ddd
(PID.TID 0000.0001) //     14 dd.ddddddddddddddddddddddddddddddddddddddddddddddddddddddddddddddddddddddddddddddddddddddddddddddddddddddddddddddddddddddddddddddddddddddddddddddddddddddddddddddddddddddddddddddddddddddddddddddddddddddddddddddddddddddddddddddddddddddddddddddddd.ddd
(PID.TID 0000.0001) //     13 cc.ccccccccccccccccccccccccccccccccccccccccccccccccccccccccccccccccccccccccccccccccccccccccccccccccccccccccccccccccccccccccccccccccccccccccccccccccccccccccccccccccccccccccccccccccccccccccccccccccccccccccccccccccccccccccccccccccccccccccccccccccc.ccc
(PID.TID 0000.0001) //     12 bb.bbbbbbbbbbbbbbbbbbbbbbbbbbbbbbbbbbbbbbbbbbbbbbbbbbbbbbbbbbbbbbbbbbbbbbbbbbbbbbbbbbbbbbbbbbbbbbbbbbbbbbbbbbbbbbbbbbbbbbbbbbbbbbbbbbbbbbbbbbbbbbbbbbbbbbbbbbbbbbbbbbbbbbbbbbbbbbbbbbbbbbbbbbbbbbbbbbbbbbbbbbbbbbbbbbbbbbbbbbbbbbbbbbbbbbbbbbbbbbbbb.bbb
(PID.TID 0000.0001) //     11 aa.aaaaaaaaaaaaaaaaaaaaaaaaaaaaaaaaaaaaaaaaaaaaaaaaaaaaaaaaaaaaaaaaaaaaaaaaaaaaaaaaaaaaaaaaaaaaaaaaaaaaaaaaaaaaaaaaaaaaaaaaaaaaaaaaaaaaaaaaaaaaaaaaaaaaaaaaaaaaaaaaaaaaaaaaaaaaaaaaaaaaaaaaaaaaaaaaaaaaaaaaaaaaaaaaaaaaaaaaaaaaaaaaaaaaaaaaaaaaaaaaa.aaa
(PID.TID 0000.0001) //     10 --.-------------------------------------------------------------------------------------------------------------------------------------------------------------------------------------------------------------------------------------------------.---
(PID.TID 0000.0001) //      9 --.-------------------------------------------------------------------------------------------------------------------------------------------------------------------------------------------------------------------------------------------------.---
(PID.TID 0000.0001) //      8 --.-------------------------------------------------------------------------------------------------------------------------------------------------------------------------------------------------------------------------------------------------.---
(PID.TID 0000.0001) //      7 --.-------------------------------------------------------------------------------------------------------------------------------------------------------------------------------------------------------------------------------------------------.---
(PID.TID 0000.0001) //      6 --.-------------------------------------------------------------------------------------------------------------------------------------------------------------------------------------------------------------------------------------------------.---
(PID.TID 0000.0001) //      5 --.-------------------------------------------------------------------------------------------------------------------------------------------------------------------------------------------------------------------------------------------------.---
(PID.TID 0000.0001) //      4 --.-------------------------------------------------------------------------------------------------------------------------------------------------------------------------------------------------------------------------------------------------.---
(PID.TID 0000.0001) //      3 --.-------------------------------------------------------------------------------------------------------------------------------------------------------------------------------------------------------------------------------------------------.---
(PID.TID 0000.0001) //      2 --.-------------------------------------------------------------------------------------------------------------------------------------------------------------------------------------------------------------------------------------------------.---
(PID.TID 0000.0001) //      1 ........................................................................................................................................................................................................................................................
(PID.TID 0000.0001) //      0 ............................................................................................................................................................................................................++++++++++...+++............................
(PID.TID 0000.0001) //     -1 ............................................................................................................................................................................................................++++++++++...+++............................
(PID.TID 0000.0001) //     -2 ............................................................................................................................................................................................................++++++++++...+++............................
(PID.TID 0000.0001) // =======================================================
(PID.TID 0000.0001) // END OF FIELD                                          =
(PID.TID 0000.0001) // =======================================================
(PID.TID 0000.0001) 
(PID.TID 0000.0001) // =======================================================
(PID.TID 0000.0001) // Field Model Ro_surf (ini_masks_etc) at iteration          1
(PID.TID 0000.0001) // CMIN =          1.000000000000000E+32
(PID.TID 0000.0001) // CMAX =         -1.000000000000000E+32
(PID.TID 0000.0001) // CINT =          0.000000000000000E+00
(PID.TID 0000.0001) // SYMBOLS (CMIN->CMAX): -abcdefghijklmnopqrstuvwxyz+
(PID.TID 0000.0001) //                  0.0: .
(PID.TID 0000.0001) // RANGE I (Lo:Hi:Step):(    -2:   203:     1)
(PID.TID 0000.0001) // RANGE J (Lo:Hi:Step):(    48:    -2:    -1)
(PID.TID 0000.0001) // RANGE K (Lo:Hi:Step):(   1:   1:   1)
(PID.TID 0000.0001) // =======================================================
(PID.TID 0000.0001) // =======================================================
(PID.TID 0000.0001) // END OF FIELD                                          =
(PID.TID 0000.0001) // =======================================================
(PID.TID 0000.0001) 
(PID.TID 0000.0001) // =======================================================
(PID.TID 0000.0001) // Field hFacC at iteration          1
(PID.TID 0000.0001) // CMIN =          1.000000000000000E+00
(PID.TID 0000.0001) // CMAX =          1.000000000000000E+00
(PID.TID 0000.0001) // CINT =          0.000000000000000E+00
(PID.TID 0000.0001) // SYMBOLS (CMIN->CMAX): -abcdefghijklmnopqrstuvwxyz+
(PID.TID 0000.0001) //                  0.0: .
(PID.TID 0000.0001) // RANGE I (Lo:Hi:Step):(    -2:   203:     1)
(PID.TID 0000.0001) // RANGE J (Lo:Hi:Step):(    48:    -2:    -1)
(PID.TID 0000.0001) // RANGE K (Lo:Hi:Step):(   1:   1:   1)
(PID.TID 0000.0001) // =======================================================
(PID.TID 0000.0001) // =======================================================
(PID.TID 0000.0001) // END OF FIELD                                          =
(PID.TID 0000.0001) // =======================================================
(PID.TID 0000.0001) 
(PID.TID 0000.0001) // =======================================================
(PID.TID 0000.0001) // Field hFacW at iteration          1
(PID.TID 0000.0001) // CMIN =          1.000000000000000E+00
(PID.TID 0000.0001) // CMAX =          1.000000000000000E+00
(PID.TID 0000.0001) // CINT =          0.000000000000000E+00
(PID.TID 0000.0001) // SYMBOLS (CMIN->CMAX): -abcdefghijklmnopqrstuvwxyz+
(PID.TID 0000.0001) //                  0.0: .
(PID.TID 0000.0001) // RANGE I (Lo:Hi:Step):(    -2:   203:     1)
(PID.TID 0000.0001) // RANGE J (Lo:Hi:Step):(    48:    -2:    -1)
(PID.TID 0000.0001) // RANGE K (Lo:Hi:Step):(   1:   1:   1)
(PID.TID 0000.0001) // =======================================================
(PID.TID 0000.0001) // =======================================================
(PID.TID 0000.0001) // END OF FIELD                                          =
(PID.TID 0000.0001) // =======================================================
(PID.TID 0000.0001) 
(PID.TID 0000.0001) // =======================================================
(PID.TID 0000.0001) // Field hFacS at iteration          1
(PID.TID 0000.0001) // CMIN =          1.000000000000000E+00
(PID.TID 0000.0001) // CMAX =          1.000000000000000E+00
(PID.TID 0000.0001) // CINT =          0.000000000000000E+00
(PID.TID 0000.0001) // SYMBOLS (CMIN->CMAX): -abcdefghijklmnopqrstuvwxyz+
(PID.TID 0000.0001) //                  0.0: .
(PID.TID 0000.0001) // RANGE I (Lo:Hi:Step):(    -2:   203:     1)
(PID.TID 0000.0001) // RANGE J (Lo:Hi:Step):(    48:    -2:    -1)
(PID.TID 0000.0001) // RANGE K (Lo:Hi:Step):(   1:   1:   1)
(PID.TID 0000.0001) // =======================================================
(PID.TID 0000.0001) // =======================================================
(PID.TID 0000.0001) // END OF FIELD                                          =
(PID.TID 0000.0001) // =======================================================
(PID.TID 0000.0001) 
(PID.TID 0000.0001) GAD_INIT_FIXED: GAD_OlMinSize=  2  0  1
(PID.TID 0000.0001) 
(PID.TID 0000.0001) // ===================================
(PID.TID 0000.0001) // GAD parameters :
(PID.TID 0000.0001) // ===================================
(PID.TID 0000.0001) tempAdvScheme =   /* Temp. Horiz.Advection scheme selector */
(PID.TID 0000.0001)                      77
(PID.TID 0000.0001)     ;
(PID.TID 0000.0001) tempVertAdvScheme =   /* Temp. Vert. Advection scheme selector */
(PID.TID 0000.0001)                      77
(PID.TID 0000.0001)     ;
(PID.TID 0000.0001) tempMultiDimAdvec =   /* use Muti-Dim Advec method for Temp */
(PID.TID 0000.0001)                   T
(PID.TID 0000.0001)     ;
(PID.TID 0000.0001) tempSOM_Advection = /* use 2nd Order Moment Advection for Temp */
(PID.TID 0000.0001)                   F
(PID.TID 0000.0001)     ;
(PID.TID 0000.0001) AdamsBashforthGt = /* apply Adams-Bashforth extrapolation on Gt */
(PID.TID 0000.0001)                   F
(PID.TID 0000.0001)     ;
(PID.TID 0000.0001) AdamsBashforth_T = /* apply Adams-Bashforth extrapolation on Temp */
(PID.TID 0000.0001)                   F
(PID.TID 0000.0001)     ;
(PID.TID 0000.0001) saltAdvScheme =   /* Salt. Horiz.advection scheme selector */
(PID.TID 0000.0001)                      77
(PID.TID 0000.0001)     ;
(PID.TID 0000.0001) saltVertAdvScheme =   /* Salt. Vert. Advection scheme selector */
(PID.TID 0000.0001)                      77
(PID.TID 0000.0001)     ;
(PID.TID 0000.0001) saltMultiDimAdvec =   /* use Muti-Dim Advec method for Salt */
(PID.TID 0000.0001)                   T
(PID.TID 0000.0001)     ;
(PID.TID 0000.0001) saltSOM_Advection = /* use 2nd Order Moment Advection for Salt */
(PID.TID 0000.0001)                   F
(PID.TID 0000.0001)     ;
(PID.TID 0000.0001) AdamsBashforthGs = /* apply Adams-Bashforth extrapolation on Gs */
(PID.TID 0000.0001)                   F
(PID.TID 0000.0001)     ;
(PID.TID 0000.0001) AdamsBashforth_S = /* apply Adams-Bashforth extrapolation on Salt */
(PID.TID 0000.0001)                   F
(PID.TID 0000.0001)     ;
(PID.TID 0000.0001) // ===================================
(PID.TID 0000.0001) ------------------------------------------------------------
(PID.TID 0000.0001) DIAGNOSTICS_SET_LEVELS: done
(PID.TID 0000.0001)  Total Nb of available Diagnostics: ndiagt=   176
(PID.TID 0000.0001)  write list of available Diagnostics to file: available_diagnostics.log
(PID.TID 0000.0001) SETDIAG: Allocate 25 x  1 Levels for Diagnostic #   114 VISCA4D
(PID.TID 0000.0001)   space allocated for all diagnostics:      25 levels
(PID.TID 0000.0001) DIAGNOSTICS_SET_POINTERS: Set levels for Outp.Stream: visc
(PID.TID 0000.0001)  Levels:       1.   2.   3.   4.   5.   6.   7.   8.   9.  10.  11.  12.  13.  14.  15.  16.  17.  18.  19.  20.
(PID.TID 0000.0001)  Levels:      21.  22.  23.  24.  25.
(PID.TID 0000.0001) DIAGNOSTICS_SET_POINTERS: done
(PID.TID 0000.0001) ------------------------------------------------------------
(PID.TID 0000.0001) DIAGSTATS_SET_REGIONS: define no region
(PID.TID 0000.0001) ------------------------------------------------------------
(PID.TID 0000.0001)   space allocated for all stats-diags:       0 levels
(PID.TID 0000.0001) DIAGSTATS_SET_POINTERS: done
(PID.TID 0000.0001) ------------------------------------------------------------
(PID.TID 0000.0001) %MON fCori_max                    =   1.0000000000000E-04
(PID.TID 0000.0001) %MON fCori_min                    =   1.0000000000000E-04
(PID.TID 0000.0001) %MON fCori_mean                   =   1.0000000000000E-04
(PID.TID 0000.0001) %MON fCori_sd                     =   1.6263032587283E-19
(PID.TID 0000.0001) %MON fCoriG_max                   =   1.0000000000000E-04
(PID.TID 0000.0001) %MON fCoriG_min                   =   1.0000000000000E-04
(PID.TID 0000.0001) %MON fCoriG_mean                  =   1.0000000000000E-04
(PID.TID 0000.0001) %MON fCoriG_sd                    =   1.6263032587283E-19
(PID.TID 0000.0001) %MON fCoriCos_max                 =   0.0000000000000E+00
(PID.TID 0000.0001) %MON fCoriCos_min                 =   0.0000000000000E+00
(PID.TID 0000.0001) %MON fCoriCos_mean                =   0.0000000000000E+00
(PID.TID 0000.0001) %MON fCoriCos_sd                  =   0.0000000000000E+00
(PID.TID 0000.0001) INI_CG2D: CG2D normalisation factor =  6.9857849865313112E-05
(PID.TID 0000.0001) 
(PID.TID 0000.0001) // =======================================================
(PID.TID 0000.0001) // Model configuration
(PID.TID 0000.0001) // =======================================================
(PID.TID 0000.0001) //
(PID.TID 0000.0001) // "Physical" paramters ( PARM01 in namelist )
(PID.TID 0000.0001) //
(PID.TID 0000.0001) buoyancyRelation = /* Type of relation to get Buoyancy */
(PID.TID 0000.0001)               'OCEANIC'
(PID.TID 0000.0001)     ;
(PID.TID 0000.0001) fluidIsAir   =  /* fluid major constituent is Air */
(PID.TID 0000.0001)                   F
(PID.TID 0000.0001)     ;
(PID.TID 0000.0001) fluidIsWater =  /* fluid major constituent is Water */
(PID.TID 0000.0001)                   T
(PID.TID 0000.0001)     ;
(PID.TID 0000.0001) usingPCoords =  /* use p (or p*) vertical coordinate */
(PID.TID 0000.0001)                   F
(PID.TID 0000.0001)     ;
(PID.TID 0000.0001) usingZCoords =  /* use z (or z*) vertical coordinate */
(PID.TID 0000.0001)                   T
(PID.TID 0000.0001)     ;
(PID.TID 0000.0001) tRef =   /* Reference temperature profile ( oC or K ) */
(PID.TID 0000.0001)                -1.941750000000000E-01,      /* K =  1 */
(PID.TID 0000.0001)                -5.825240000000000E-01,      /* K =  2 */
(PID.TID 0000.0001)                -9.708740000000000E-01,      /* K =  3 */
(PID.TID 0000.0001)                -1.359220000000000E+00,      /* K =  4 */
(PID.TID 0000.0001)                -1.747570000000000E+00,      /* K =  5 */
(PID.TID 0000.0001)                -2.135920000000000E+00,      /* K =  6 */
(PID.TID 0000.0001)                -2.524270000000000E+00,      /* K =  7 */
(PID.TID 0000.0001)                -2.912620000000000E+00,      /* K =  8 */
(PID.TID 0000.0001)                -3.300970000000000E+00,      /* K =  9 */
(PID.TID 0000.0001)                -3.689320000000000E+00,      /* K = 10 */
(PID.TID 0000.0001)                -4.077670000000000E+00,      /* K = 11 */
(PID.TID 0000.0001)                -4.466020000000000E+00,      /* K = 12 */
(PID.TID 0000.0001)                -4.854370000000000E+00,      /* K = 13 */
(PID.TID 0000.0001)                -5.242720000000000E+00,      /* K = 14 */
(PID.TID 0000.0001)                -5.631070000000000E+00,      /* K = 15 */
(PID.TID 0000.0001)                -6.019420000000000E+00,      /* K = 16 */
(PID.TID 0000.0001)                -6.407770000000000E+00,      /* K = 17 */
(PID.TID 0000.0001)                -6.796120000000000E+00,      /* K = 18 */
(PID.TID 0000.0001)                -7.184470000000000E+00,      /* K = 19 */
(PID.TID 0000.0001)                -7.572820000000000E+00,      /* K = 20 */
(PID.TID 0000.0001)                -7.961170000000000E+00,      /* K = 21 */
(PID.TID 0000.0001)                -8.349510000000000E+00,      /* K = 22 */
(PID.TID 0000.0001)                -8.737860000000000E+00,      /* K = 23 */
(PID.TID 0000.0001)                -9.126210000000000E+00,      /* K = 24 */
(PID.TID 0000.0001)                -9.514559999999999E+00       /* K = 25 */
(PID.TID 0000.0001)     ;
(PID.TID 0000.0001) sRef =   /* Reference salinity profile ( psu ) */
(PID.TID 0000.0001)    25 @  1.000000000000000E+00              /* K =  1: 25 */
(PID.TID 0000.0001)     ;
(PID.TID 0000.0001) viscAh  =   /* Lateral eddy viscosity ( m^2/s ) */
(PID.TID 0000.0001)                 0.000000000000000E+00
(PID.TID 0000.0001)     ;
(PID.TID 0000.0001) viscAhMax = /* Maximum lateral eddy viscosity ( m^2/s ) */
(PID.TID 0000.0001)                 1.000000000000000E+21
(PID.TID 0000.0001)     ;
(PID.TID 0000.0001) viscAhGrid = /* Grid dependent lateral eddy viscosity ( non-dim. ) */
(PID.TID 0000.0001)                 0.000000000000000E+00
(PID.TID 0000.0001)     ;
(PID.TID 0000.0001) useFullLeith = /* Use Full Form of Leith Viscosity on/off flag*/
(PID.TID 0000.0001)                   F
(PID.TID 0000.0001)     ;
(PID.TID 0000.0001) useStrainTensionVisc= /* Use StrainTension Form of Viscous Operator flag*/
(PID.TID 0000.0001)                   F
(PID.TID 0000.0001)     ;
(PID.TID 0000.0001) useAreaViscLength = /* Use area for visc length instead of geom. mean*/
(PID.TID 0000.0001)                   T
(PID.TID 0000.0001)     ;
(PID.TID 0000.0001) viscC2leith = /* Leith harmonic visc. factor (on grad(vort),non-dim.) */
(PID.TID 0000.0001)                 0.000000000000000E+00
(PID.TID 0000.0001)     ;
(PID.TID 0000.0001) viscC2leithD = /* Leith harmonic viscosity factor (on grad(div),non-dim.)*/
(PID.TID 0000.0001)                 0.000000000000000E+00
(PID.TID 0000.0001)     ;
(PID.TID 0000.0001) viscC2smag = /* Smagorinsky harmonic viscosity factor (non-dim.) */
(PID.TID 0000.0001)                 0.000000000000000E+00
(PID.TID 0000.0001)     ;
(PID.TID 0000.0001) viscA4  =   /* Lateral biharmonic viscosity ( m^4/s ) */
(PID.TID 0000.0001)                 0.000000000000000E+00
(PID.TID 0000.0001)     ;
(PID.TID 0000.0001) viscA4Max = /* Maximum biharmonic viscosity ( m^2/s ) */
(PID.TID 0000.0001)                 1.000000000000000E+21
(PID.TID 0000.0001)     ;
(PID.TID 0000.0001) viscA4Grid = /* Grid dependent biharmonic viscosity ( non-dim. ) */
(PID.TID 0000.0001)                 0.000000000000000E+00
(PID.TID 0000.0001)     ;
(PID.TID 0000.0001) viscC4leith = /* Leith biharm viscosity factor (on grad(vort), non-dim.)*/
(PID.TID 0000.0001)                 1.458198138065000E+00
(PID.TID 0000.0001)     ;
(PID.TID 0000.0001) viscC4leithD = /* Leith biharm viscosity factor (on grad(div), non-dim.) */
(PID.TID 0000.0001)                 0.000000000000000E+00
(PID.TID 0000.0001)     ;
(PID.TID 0000.0001) viscC4Smag = /* Smagorinsky biharm viscosity factor (non-dim) */
(PID.TID 0000.0001)                 0.000000000000000E+00
(PID.TID 0000.0001)     ;
(PID.TID 0000.0001) no_slip_sides =  /* Viscous BCs: No-slip sides */
(PID.TID 0000.0001)                   T
(PID.TID 0000.0001)     ;
(PID.TID 0000.0001) sideDragFactor = /* side-drag scaling factor (non-dim) */
(PID.TID 0000.0001)                 2.000000000000000E+00
(PID.TID 0000.0001)     ;
(PID.TID 0000.0001) viscArNr = /* vertical profile of vertical viscosity ( m^2/s )*/
(PID.TID 0000.0001)    25 @  5.000000000000000E-01              /* K =  1: 25 */
(PID.TID 0000.0001)     ;
(PID.TID 0000.0001) no_slip_bottom =  /* Viscous BCs: No-slip bottom */
(PID.TID 0000.0001)                   T
(PID.TID 0000.0001)     ;
(PID.TID 0000.0001) bottomDragLinear = /* linear bottom-drag coefficient ( m/s ) */
(PID.TID 0000.0001)                 0.000000000000000E+00
(PID.TID 0000.0001)     ;
(PID.TID 0000.0001) bottomDragQuadratic = /* quadratic bottom-drag coefficient (-) */
(PID.TID 0000.0001)                 2.000000000000000E-03
(PID.TID 0000.0001)     ;
(PID.TID 0000.0001) diffKhT =   /* Laplacian diffusion of heat laterally ( m^2/s ) */
(PID.TID 0000.0001)                 0.000000000000000E+00
(PID.TID 0000.0001)     ;
(PID.TID 0000.0001) diffK4T =   /* Biharmonic diffusion of heat laterally ( m^4/s ) */
(PID.TID 0000.0001)                 0.000000000000000E+00
(PID.TID 0000.0001)     ;
(PID.TID 0000.0001) diffKhS =   /* Laplacian diffusion of salt laterally ( m^2/s ) */
(PID.TID 0000.0001)                 0.000000000000000E+00
(PID.TID 0000.0001)     ;
(PID.TID 0000.0001) diffK4S =   /* Biharmonic diffusion of salt laterally ( m^4/s ) */
(PID.TID 0000.0001)                 0.000000000000000E+00
(PID.TID 0000.0001)     ;
(PID.TID 0000.0001) diffKrNrT = /* vertical profile of vertical diffusion of Temp ( m^2/s )*/
(PID.TID 0000.0001)    25 @  0.000000000000000E+00              /* K =  1: 25 */
(PID.TID 0000.0001)     ;
(PID.TID 0000.0001) diffKrNrS = /* vertical profile of vertical diffusion of Salt ( m^2/s )*/
(PID.TID 0000.0001)    25 @  0.000000000000000E+00              /* K =  1: 25 */
(PID.TID 0000.0001)     ;
(PID.TID 0000.0001) diffKrBL79surf = /* Surface diffusion for Bryan and Lewis 79 ( m^2/s ) */
(PID.TID 0000.0001)                 0.000000000000000E+00
(PID.TID 0000.0001)     ;
(PID.TID 0000.0001) diffKrBL79deep = /* Deep diffusion for Bryan and Lewis 1979 ( m^2/s ) */
(PID.TID 0000.0001)                 0.000000000000000E+00
(PID.TID 0000.0001)     ;
(PID.TID 0000.0001) diffKrBL79scl = /* Depth scale for Bryan and Lewis 1979 ( m ) */
(PID.TID 0000.0001)                 2.000000000000000E+02
(PID.TID 0000.0001)     ;
(PID.TID 0000.0001) diffKrBL79Ho = /* Turning depth for Bryan and Lewis 1979 ( m ) */
(PID.TID 0000.0001)                -2.000000000000000E+03
(PID.TID 0000.0001)     ;
(PID.TID 0000.0001) ivdc_kappa = /* Implicit Vertical Diffusivity for Convection ( m^2/s) */
(PID.TID 0000.0001)                 0.000000000000000E+00
(PID.TID 0000.0001)     ;
(PID.TID 0000.0001) hMixCriteria=  /* Criteria for mixed-layer diagnostic */
(PID.TID 0000.0001)                -8.000000000000000E-01
(PID.TID 0000.0001)     ;
(PID.TID 0000.0001) dRhoSmall =  /* Parameter for mixed-layer diagnostic */
(PID.TID 0000.0001)                 1.000000000000000E-06
(PID.TID 0000.0001)     ;
(PID.TID 0000.0001) hMixSmooth=  /* Smoothing parameter for mixed-layer diagnostic */
(PID.TID 0000.0001)                 0.000000000000000E+00
(PID.TID 0000.0001)     ;
(PID.TID 0000.0001) eosType =  /* Type of Equation of State */
(PID.TID 0000.0001)               'LINEAR'
(PID.TID 0000.0001)     ;
(PID.TID 0000.0001) tAlpha =   /* Linear EOS thermal expansion coefficient ( 1/oC ) */
(PID.TID 0000.0001)                 2.000000000000000E-04
(PID.TID 0000.0001)     ;
(PID.TID 0000.0001) sBeta =   /* Linear EOS haline contraction coefficient ( 1/psu ) */
(PID.TID 0000.0001)                 0.000000000000000E+00
(PID.TID 0000.0001)     ;
(PID.TID 0000.0001) rhonil =   /* Reference density ( kg/m^3 ) */
(PID.TID 0000.0001)                 1.030000000000000E+03
(PID.TID 0000.0001)     ;
(PID.TID 0000.0001) rhoConst =   /* Reference density ( kg/m^3 ) */
(PID.TID 0000.0001)                 1.030000000000000E+03
(PID.TID 0000.0001)     ;
(PID.TID 0000.0001) rhoFacC = /* normalized Reference density @ cell-Center (-) */
(PID.TID 0000.0001)    25 @  1.000000000000000E+00              /* K =  1: 25 */
(PID.TID 0000.0001)     ;
(PID.TID 0000.0001) rhoFacF = /* normalized Reference density @ W-Interface (-) */
(PID.TID 0000.0001)    26 @  1.000000000000000E+00              /* K =  1: 26 */
(PID.TID 0000.0001)     ;
(PID.TID 0000.0001) rhoConstFresh =   /* Reference density ( kg/m^3 ) */
(PID.TID 0000.0001)                 1.030000000000000E+03
(PID.TID 0000.0001)     ;
(PID.TID 0000.0001) gravity =   /* Gravitational acceleration ( m/s^2 ) */
(PID.TID 0000.0001)                 9.810000000000000E+00
(PID.TID 0000.0001)     ;
(PID.TID 0000.0001) gBaro =   /* Barotropic gravity ( m/s^2 ) */
(PID.TID 0000.0001)                 9.810000000000000E+00
(PID.TID 0000.0001)     ;
(PID.TID 0000.0001) rotationPeriod =   /* Rotation Period ( s ) */
(PID.TID 0000.0001)                 8.616400000000000E+04
(PID.TID 0000.0001)     ;
(PID.TID 0000.0001) omega =   /* Angular velocity ( rad/s ) */
(PID.TID 0000.0001)                 7.292123516990375E-05
(PID.TID 0000.0001)     ;
(PID.TID 0000.0001) f0 =   /* Reference coriolis parameter ( 1/s ) */
(PID.TID 0000.0001)                 1.000000000000000E-04
(PID.TID 0000.0001)     ;
(PID.TID 0000.0001) beta =   /* Beta ( 1/(m.s) ) */
(PID.TID 0000.0001)                 0.000000000000000E+00
(PID.TID 0000.0001)     ;
(PID.TID 0000.0001) fPrime =   /* Second coriolis parameter ( 1/s ) */
(PID.TID 0000.0001)                 0.000000000000000E+00
(PID.TID 0000.0001)     ;
(PID.TID 0000.0001) rigidLid =   /* Rigid lid on/off flag */
(PID.TID 0000.0001)                   F
(PID.TID 0000.0001)     ;
(PID.TID 0000.0001) implicitFreeSurface =   /* Implicit free surface on/off flag */
(PID.TID 0000.0001)                   T
(PID.TID 0000.0001)     ;
(PID.TID 0000.0001) freeSurfFac =   /* Implicit free surface factor */
(PID.TID 0000.0001)                 1.000000000000000E+00
(PID.TID 0000.0001)     ;
(PID.TID 0000.0001) implicSurfPress =  /* Surface Pressure implicit factor (0-1)*/
(PID.TID 0000.0001)                 1.000000000000000E+00
(PID.TID 0000.0001)     ;
(PID.TID 0000.0001) implicDiv2Dflow =  /* Barot. Flow Div. implicit factor (0-1)*/
(PID.TID 0000.0001)                 1.000000000000000E+00
(PID.TID 0000.0001)     ;
(PID.TID 0000.0001) exactConserv =  /* Exact Volume Conservation on/off flag*/
(PID.TID 0000.0001)                   F
(PID.TID 0000.0001)     ;
(PID.TID 0000.0001) linFSConserveTr = /* Tracer correction for Lin Free Surface on/off flag*/
(PID.TID 0000.0001)                   F
(PID.TID 0000.0001)     ;
(PID.TID 0000.0001) uniformLin_PhiSurf = /* use uniform Bo_surf on/off flag*/
(PID.TID 0000.0001)                   T
(PID.TID 0000.0001)     ;
(PID.TID 0000.0001) hFacMin =   /* minimum partial cell factor (hFac) */
(PID.TID 0000.0001)                 2.000000000000000E-01
(PID.TID 0000.0001)     ;
(PID.TID 0000.0001) hFacMinDr = /* minimum partial cell thickness ( m) */
(PID.TID 0000.0001)                 2.000000000000000E-01
(PID.TID 0000.0001)     ;
(PID.TID 0000.0001) nonlinFreeSurf = /* Non-linear Free Surf. options (-1,0,1,2,3)*/
(PID.TID 0000.0001)                       0
(PID.TID 0000.0001)      -1,0= Off ; 1,2,3= On, 2=+rescale gU,gV, 3=+update cg2d solv.
(PID.TID 0000.0001)     ;
(PID.TID 0000.0001) hFacInf =   /* lower threshold for hFac (nonlinFreeSurf only)*/
(PID.TID 0000.0001)                 2.000000000000000E-01
(PID.TID 0000.0001)     ;
(PID.TID 0000.0001) hFacSup =   /* upper threshold for hFac (nonlinFreeSurf only)*/
(PID.TID 0000.0001)                 2.000000000000000E+00
(PID.TID 0000.0001)     ;
(PID.TID 0000.0001) select_rStar = /* r* Vertical coord. options (=0 r coord.; >0 uses r*)*/
(PID.TID 0000.0001)                       0
(PID.TID 0000.0001)     ;
(PID.TID 0000.0001) selectAddFluid = /* option for mass source/sink of fluid (=0: off) */
(PID.TID 0000.0001)                       0
(PID.TID 0000.0001)     ;
(PID.TID 0000.0001) useRealFreshWaterFlux = /* Real Fresh Water Flux on/off flag*/
(PID.TID 0000.0001)                   F
(PID.TID 0000.0001)     ;
(PID.TID 0000.0001) temp_EvPrRn = /* Temp. of Evap/Prec/R (UNSET=use local T)(oC)*/
(PID.TID 0000.0001)                 1.234567000000000E+05
(PID.TID 0000.0001)     ;
(PID.TID 0000.0001) salt_EvPrRn = /* Salin. of Evap/Prec/R (UNSET=use local S)(psu)*/
(PID.TID 0000.0001)                 0.000000000000000E+00
(PID.TID 0000.0001)     ;
(PID.TID 0000.0001) temp_addMass = /* Temp. of addMass array (UNSET=use local T)(oC)*/
(PID.TID 0000.0001)                 1.234567000000000E+05
(PID.TID 0000.0001)     ;
(PID.TID 0000.0001) salt_addMass = /* Salin. of addMass array (UNSET=use local S)(psu)*/
(PID.TID 0000.0001)                 0.000000000000000E+00
(PID.TID 0000.0001)     ;
(PID.TID 0000.0001) convertFW2Salt = /* convert F.W. Flux to Salt Flux (-1=use local S)(psu)*/
(PID.TID 0000.0001)                 3.500000000000000E+01
(PID.TID 0000.0001)     ;
(PID.TID 0000.0001) use3Dsolver = /* use 3-D pressure solver on/off flag */
(PID.TID 0000.0001)                   F
(PID.TID 0000.0001)     ;
(PID.TID 0000.0001) nonHydrostatic =  /* Non-Hydrostatic on/off flag */
(PID.TID 0000.0001)                   F
(PID.TID 0000.0001)     ;
(PID.TID 0000.0001) nh_Am2 = /* Non-Hydrostatic terms scaling factor */
(PID.TID 0000.0001)                 1.000000000000000E+00
(PID.TID 0000.0001)     ;
(PID.TID 0000.0001) implicitNHPress = /* Non-Hyd Pressure implicit factor (0-1)*/
(PID.TID 0000.0001)                 1.000000000000000E+00
(PID.TID 0000.0001)     ;
(PID.TID 0000.0001) selectNHfreeSurf = /* Non-Hyd (free-)Surface option */
(PID.TID 0000.0001)                       0
(PID.TID 0000.0001)     ;
(PID.TID 0000.0001) quasiHydrostatic = /* Quasi-Hydrostatic on/off flag */
(PID.TID 0000.0001)                   F
(PID.TID 0000.0001)     ;
(PID.TID 0000.0001) momStepping =  /* Momentum equation on/off flag */
(PID.TID 0000.0001)                   T
(PID.TID 0000.0001)     ;
(PID.TID 0000.0001) vectorInvariantMomentum= /* Vector-Invariant Momentum on/off */
(PID.TID 0000.0001)                   T
(PID.TID 0000.0001)     ;
(PID.TID 0000.0001) momAdvection =  /* Momentum advection on/off flag */
(PID.TID 0000.0001)                   T
(PID.TID 0000.0001)     ;
(PID.TID 0000.0001) momViscosity =  /* Momentum viscosity on/off flag */
(PID.TID 0000.0001)                   T
(PID.TID 0000.0001)     ;
(PID.TID 0000.0001) momImplVertAdv= /* Momentum implicit vert. advection on/off*/
(PID.TID 0000.0001)                   F
(PID.TID 0000.0001)     ;
(PID.TID 0000.0001) implicitViscosity = /* Implicit viscosity on/off flag */
(PID.TID 0000.0001)                   F
(PID.TID 0000.0001)     ;
(PID.TID 0000.0001) metricTerms =  /* metric-Terms on/off flag */
(PID.TID 0000.0001)                   F
(PID.TID 0000.0001)     ;
(PID.TID 0000.0001) useNHMTerms = /* Non-Hydrostatic Metric-Terms on/off */
(PID.TID 0000.0001)                   F
(PID.TID 0000.0001)     ;
(PID.TID 0000.0001) selectCoriMap = /* Coriolis Map options (0,1,2,3)*/
(PID.TID 0000.0001)                       1
(PID.TID 0000.0001)     0= f-Plane ; 1= Beta-Plane ; 2= Spherical ; 3= read from file
(PID.TID 0000.0001)     ;
(PID.TID 0000.0001) use3dCoriolis = /* 3-D Coriolis on/off flag */
(PID.TID 0000.0001)                   F
(PID.TID 0000.0001)     ;
(PID.TID 0000.0001) useCoriolis =  /* Coriolis on/off flag */
(PID.TID 0000.0001)                   T
(PID.TID 0000.0001)     ;
(PID.TID 0000.0001) useCDscheme =  /* CD scheme on/off flag */
(PID.TID 0000.0001)                   F
(PID.TID 0000.0001)     ;
(PID.TID 0000.0001) useJamartWetPoints= /* Coriolis WetPoints method flag */
(PID.TID 0000.0001)                   F
(PID.TID 0000.0001)     ;
(PID.TID 0000.0001) useJamartMomAdv= /* V.I. Non-linear terms Jamart flag */
(PID.TID 0000.0001)                   F
(PID.TID 0000.0001)     ;
(PID.TID 0000.0001) useAbsVorticity= /* Work with f+zeta in Coriolis */
(PID.TID 0000.0001)                   F
(PID.TID 0000.0001)     ;
(PID.TID 0000.0001) selectVortScheme= /* Scheme selector for Vorticity-Term */
(PID.TID 0000.0001)                       1
(PID.TID 0000.0001)    = 0 : enstrophy (Shallow-Water Eq.) conserving scheme by Sadourny, JAS 75
(PID.TID 0000.0001)    = 1 : same as 0 with modified hFac
(PID.TID 0000.0001)    = 2 : energy conserving scheme (used by Sadourny in JAS 75 paper)
(PID.TID 0000.0001)    = 3 : energy (general) and enstrophy (2D, nonDiv.) conserving scheme
(PID.TID 0000.0001)          from Sadourny (Burridge & Haseler, ECMWF Rep.4, 1977)
(PID.TID 0000.0001)     ;
(PID.TID 0000.0001) upwindVorticity= /* Upwind bias vorticity flag */
(PID.TID 0000.0001)                   F
(PID.TID 0000.0001)     ;
(PID.TID 0000.0001) highOrderVorticity= /* High order interp. of vort. flag */
(PID.TID 0000.0001)                   F
(PID.TID 0000.0001)     ;
(PID.TID 0000.0001) upwindShear= /* Upwind vertical Shear advection flag */
(PID.TID 0000.0001)                   F
(PID.TID 0000.0001)     ;
(PID.TID 0000.0001) selectKEscheme= /* Kinetic Energy scheme selector */
(PID.TID 0000.0001)                       0
(PID.TID 0000.0001)     ;
(PID.TID 0000.0001) momForcing =  /* Momentum forcing on/off flag */
(PID.TID 0000.0001)                   T
(PID.TID 0000.0001)     ;
(PID.TID 0000.0001) momPressureForcing =  /* Momentum pressure term on/off flag */
(PID.TID 0000.0001)                   T
(PID.TID 0000.0001)     ;
(PID.TID 0000.0001) implicitIntGravWave= /* Implicit Internal Gravity Wave flag */
(PID.TID 0000.0001)                   F
(PID.TID 0000.0001)     ;
(PID.TID 0000.0001) staggerTimeStep =   /* Stagger time stepping on/off flag */
(PID.TID 0000.0001)                   T
(PID.TID 0000.0001)     ;
(PID.TID 0000.0001) multiDimAdvection =   /* enable/disable Multi-Dim Advection */
(PID.TID 0000.0001)                   T
(PID.TID 0000.0001)     ;
(PID.TID 0000.0001) useMultiDimAdvec =   /* Multi-Dim Advection is/is-not used */
(PID.TID 0000.0001)                   T
(PID.TID 0000.0001)     ;
(PID.TID 0000.0001) implicitDiffusion = /* Implicit Diffusion on/off flag */
(PID.TID 0000.0001)                   F
(PID.TID 0000.0001)     ;
(PID.TID 0000.0001) tempStepping =  /* Temperature equation on/off flag */
(PID.TID 0000.0001)                   T
(PID.TID 0000.0001)     ;
(PID.TID 0000.0001) tempAdvection=  /* Temperature advection on/off flag */
(PID.TID 0000.0001)                   T
(PID.TID 0000.0001)     ;
(PID.TID 0000.0001) tempImplVertAdv = /* Temp. implicit vert. advection on/off */
(PID.TID 0000.0001)                   F
(PID.TID 0000.0001)     ;
(PID.TID 0000.0001) tempForcing  =  /* Temperature forcing on/off flag */
(PID.TID 0000.0001)                   T
(PID.TID 0000.0001)     ;
(PID.TID 0000.0001) tempIsActiveTr = /* Temp. is a dynamically Active Tracer */
(PID.TID 0000.0001)                   T
(PID.TID 0000.0001)     ;
(PID.TID 0000.0001) saltStepping =  /* Salinity equation on/off flag */
(PID.TID 0000.0001)                   T
(PID.TID 0000.0001)     ;
(PID.TID 0000.0001) saltAdvection=  /* Salinity advection on/off flag */
(PID.TID 0000.0001)                   T
(PID.TID 0000.0001)     ;
(PID.TID 0000.0001) saltImplVertAdv = /* Sali. implicit vert. advection on/off */
(PID.TID 0000.0001)                   F
(PID.TID 0000.0001)     ;
(PID.TID 0000.0001) saltForcing  =  /* Salinity forcing on/off flag */
(PID.TID 0000.0001)                   T
(PID.TID 0000.0001)     ;
(PID.TID 0000.0001) saltIsActiveTr = /* Salt  is a dynamically Active Tracer */
(PID.TID 0000.0001)                   F
(PID.TID 0000.0001)     ;
(PID.TID 0000.0001)  readBinaryPrec = /* Precision used for reading binary files */
(PID.TID 0000.0001)                      64
(PID.TID 0000.0001)     ;
(PID.TID 0000.0001) writeBinaryPrec = /* Precision used for writing binary files */
(PID.TID 0000.0001)                      64
(PID.TID 0000.0001)     ;
(PID.TID 0000.0001)  globalFiles = /* write "global" (=not per tile) files */
(PID.TID 0000.0001)                   F
(PID.TID 0000.0001)     ;
(PID.TID 0000.0001)  useSingleCpuIO = /* only master MPI process does I/O */
(PID.TID 0000.0001)                   F
(PID.TID 0000.0001)     ;
(PID.TID 0000.0001)  debugMode  =  /* Debug Mode on/off flag */
(PID.TID 0000.0001)                   F
(PID.TID 0000.0001)     ;
(PID.TID 0000.0001)    debLevA  =  /* 1rst level of debugging */
(PID.TID 0000.0001)                       1
(PID.TID 0000.0001)     ;
(PID.TID 0000.0001)    debLevB  =  /* 2nd  level of debugging */
(PID.TID 0000.0001)                       2
(PID.TID 0000.0001)     ;
(PID.TID 0000.0001)  debugLevel =  /* select debugging level */
(PID.TID 0000.0001)                       1
(PID.TID 0000.0001)     ;
(PID.TID 0000.0001) //
(PID.TID 0000.0001) // Elliptic solver(s) paramters ( PARM02 in namelist )
(PID.TID 0000.0001) //
(PID.TID 0000.0001) cg2dMaxIters =   /* Upper limit on 2d con. grad iterations  */
(PID.TID 0000.0001)                    1000
(PID.TID 0000.0001)     ;
(PID.TID 0000.0001) cg2dChkResFreq =   /* 2d con. grad convergence test frequency */
(PID.TID 0000.0001)                       1
(PID.TID 0000.0001)     ;
(PID.TID 0000.0001) cg2dTargetResidual =   /* 2d con. grad target residual  */
(PID.TID 0000.0001)                 9.999999999999999E-12
(PID.TID 0000.0001)     ;
(PID.TID 0000.0001) cg2dTargetResWunit =   /* CG2d target residual [W units] */
(PID.TID 0000.0001)                -1.000000000000000E+00
(PID.TID 0000.0001)     ;
(PID.TID 0000.0001) cg2dPreCondFreq =   /* Freq. for updating cg2d preconditioner */
(PID.TID 0000.0001)                       1
(PID.TID 0000.0001)     ;
(PID.TID 0000.0001) useSRCGSolver =  /* use single reduction CG solver(s) */
(PID.TID 0000.0001)                   F
(PID.TID 0000.0001)     ;
(PID.TID 0000.0001) //
(PID.TID 0000.0001) // Time stepping paramters ( PARM03 in namelist )
(PID.TID 0000.0001) //
(PID.TID 0000.0001) deltaTmom =   /* Momentum equation timestep ( s ) */
(PID.TID 0000.0001)                 3.000000000000000E+02
(PID.TID 0000.0001)     ;
(PID.TID 0000.0001) deltaTfreesurf = /* FreeSurface equation timestep ( s ) */
(PID.TID 0000.0001)                 3.000000000000000E+02
(PID.TID 0000.0001)     ;
(PID.TID 0000.0001) dTtracerLev =  /* Tracer equation timestep ( s ) */
(PID.TID 0000.0001)    25 @  3.000000000000000E+02              /* K =  1: 25 */
(PID.TID 0000.0001)     ;
(PID.TID 0000.0001) deltaTClock  =   /* Model clock timestep ( s ) */
(PID.TID 0000.0001)                 3.000000000000000E+02
(PID.TID 0000.0001)     ;
(PID.TID 0000.0001) cAdjFreq =   /* Convective adjustment interval ( s ) */
(PID.TID 0000.0001)                 0.000000000000000E+00
(PID.TID 0000.0001)     ;
(PID.TID 0000.0001) momForcingOutAB = /* =1: take Momentum Forcing out of Adams-Bash. stepping */
(PID.TID 0000.0001)                       0
(PID.TID 0000.0001)     ;
(PID.TID 0000.0001) tracForcingOutAB = /* =1: take T,S,pTr Forcing out of Adams-Bash. stepping */
(PID.TID 0000.0001)                       0
(PID.TID 0000.0001)     ;
(PID.TID 0000.0001) momDissip_In_AB = /* put Dissipation Tendency in Adams-Bash. stepping */
(PID.TID 0000.0001)                   T
(PID.TID 0000.0001)     ;
(PID.TID 0000.0001) doAB_onGtGs = /* apply AB on Tendencies (rather than on T,S)*/
(PID.TID 0000.0001)                   T
(PID.TID 0000.0001)     ;
(PID.TID 0000.0001) abEps =   /* Adams-Bashforth-2 stabilizing weight */
(PID.TID 0000.0001)                 1.000000000000000E-01
(PID.TID 0000.0001)     ;
(PID.TID 0000.0001) pickupStrictlyMatch= /* stop if pickup do not strictly match */
(PID.TID 0000.0001)                   T
(PID.TID 0000.0001)     ;
(PID.TID 0000.0001) nIter0   =   /* Run starting timestep number */
(PID.TID 0000.0001)                       0
(PID.TID 0000.0001)     ;
(PID.TID 0000.0001) nTimeSteps = /* Number of timesteps */
(PID.TID 0000.0001)                      20
(PID.TID 0000.0001)     ;
(PID.TID 0000.0001) nEndIter =   /* Run ending timestep number */
(PID.TID 0000.0001)                      20
(PID.TID 0000.0001)     ;
(PID.TID 0000.0001) baseTime =   /* Model base time ( s ) */
(PID.TID 0000.0001)                 0.000000000000000E+00
(PID.TID 0000.0001)     ;
(PID.TID 0000.0001) startTime =  /* Run start time ( s ) */
(PID.TID 0000.0001)                 0.000000000000000E+00
(PID.TID 0000.0001)     ;
(PID.TID 0000.0001) endTime  =   /* Integration ending time ( s ) */
(PID.TID 0000.0001)                 6.000000000000000E+03
(PID.TID 0000.0001)     ;
(PID.TID 0000.0001) pChkPtFreq = /* Permanent restart/pickup file interval ( s ) */
(PID.TID 0000.0001)                 0.000000000000000E+00
(PID.TID 0000.0001)     ;
(PID.TID 0000.0001) chkPtFreq  = /* Rolling restart/pickup file interval ( s ) */
(PID.TID 0000.0001)                 1.000000000000000E+05
(PID.TID 0000.0001)     ;
(PID.TID 0000.0001) pickup_write_mdsio =   /* Model IO flag. */
(PID.TID 0000.0001)                   T
(PID.TID 0000.0001)     ;
(PID.TID 0000.0001) pickup_read_mdsio =   /* Model IO flag. */
(PID.TID 0000.0001)                   T
(PID.TID 0000.0001)     ;
(PID.TID 0000.0001) pickup_write_immed =   /* Model IO flag. */
(PID.TID 0000.0001)                   F
(PID.TID 0000.0001)     ;
(PID.TID 0000.0001) writePickupAtEnd =   /* Model IO flag. */
(PID.TID 0000.0001)                   T
(PID.TID 0000.0001)     ;
(PID.TID 0000.0001) dumpFreq =   /* Model state write out interval ( s ). */
(PID.TID 0000.0001)                 3.000000000000000E+04
(PID.TID 0000.0001)     ;
(PID.TID 0000.0001) dumpInitAndLast= /* write out Initial & Last iter. model state */
(PID.TID 0000.0001)                   T
(PID.TID 0000.0001)     ;
(PID.TID 0000.0001) snapshot_mdsio =   /* Model IO flag. */
(PID.TID 0000.0001)                   T
(PID.TID 0000.0001)     ;
(PID.TID 0000.0001) monitorFreq =   /* Monitor output interval ( s ). */
(PID.TID 0000.0001)                 3.000000000000000E+02
(PID.TID 0000.0001)     ;
(PID.TID 0000.0001) monitorSelect = /* select group of variables to monitor */
(PID.TID 0000.0001)                       2
(PID.TID 0000.0001)     ;
(PID.TID 0000.0001) monitor_stdio =   /* Model IO flag. */
(PID.TID 0000.0001)                   T
(PID.TID 0000.0001)     ;
(PID.TID 0000.0001) externForcingPeriod =   /* forcing period (s) */
(PID.TID 0000.0001)                 0.000000000000000E+00
(PID.TID 0000.0001)     ;
(PID.TID 0000.0001) externForcingCycle =   /* period of the cyle (s). */
(PID.TID 0000.0001)                 0.000000000000000E+00
(PID.TID 0000.0001)     ;
(PID.TID 0000.0001) tauThetaClimRelax =   /* relaxation time scale (s) */
(PID.TID 0000.0001)                 0.000000000000000E+00
(PID.TID 0000.0001)     ;
(PID.TID 0000.0001) tauSaltClimRelax =   /* relaxation time scale (s) */
(PID.TID 0000.0001)                 0.000000000000000E+00
(PID.TID 0000.0001)     ;
(PID.TID 0000.0001) latBandClimRelax =   /* max. Lat. where relaxation */
(PID.TID 0000.0001)                 1.800000000000000E+06
(PID.TID 0000.0001)     ;
(PID.TID 0000.0001) //
(PID.TID 0000.0001) // Gridding paramters ( PARM04 in namelist )
(PID.TID 0000.0001) //
(PID.TID 0000.0001) usingCartesianGrid = /* Cartesian coordinates flag ( True/False ) */
(PID.TID 0000.0001)                   T
(PID.TID 0000.0001)     ;
(PID.TID 0000.0001) usingCylindricalGrid = /* Cylindrical coordinates flag ( True/False ) */
(PID.TID 0000.0001)                   F
(PID.TID 0000.0001)     ;
(PID.TID 0000.0001) usingSphericalPolarGrid = /* Spherical coordinates flag ( True/False ) */
(PID.TID 0000.0001)                   F
(PID.TID 0000.0001)     ;
(PID.TID 0000.0001) usingCurvilinearGrid = /* Curvilinear coordinates flag ( True/False ) */
(PID.TID 0000.0001)                   F
(PID.TID 0000.0001)     ;
(PID.TID 0000.0001) selectSigmaCoord = /* Hybrid-Sigma Vert. Coordinate option */
(PID.TID 0000.0001)                       0
(PID.TID 0000.0001)     ;
(PID.TID 0000.0001) Ro_SeaLevel = /* r(1) ( units of r ==  m ) */
(PID.TID 0000.0001)                 0.000000000000000E+00
(PID.TID 0000.0001)     ;
(PID.TID 0000.0001) rSigmaBnd = /* r/sigma transition ( units of r ==  m ) */
(PID.TID 0000.0001)                 1.234567000000000E+05
(PID.TID 0000.0001)     ;
(PID.TID 0000.0001) rkSign =   /* index orientation relative to vertical coordinate */
(PID.TID 0000.0001)                -1.000000000000000E+00
(PID.TID 0000.0001)     ;
(PID.TID 0000.0001) gravitySign = /* gravity orientation relative to vertical coordinate */
(PID.TID 0000.0001)                -1.000000000000000E+00
(PID.TID 0000.0001)     ;
(PID.TID 0000.0001) mass2rUnit = /* convert mass per unit area [kg/m2] to r-units [m] */
(PID.TID 0000.0001)                 9.708737864077669E-04
(PID.TID 0000.0001)     ;
(PID.TID 0000.0001) rUnit2mass = /* convert r-units [m] to mass per unit area [kg/m2] */
(PID.TID 0000.0001)                 1.030000000000000E+03
(PID.TID 0000.0001)     ;
(PID.TID 0000.0001) drC =   /* C spacing ( units of r ) */
(PID.TID 0000.0001)                 7.200000000000000E+01,      /* K =  1 */
(PID.TID 0000.0001)    24 @  1.440000000000000E+02              /* K =  2: 25 */
(PID.TID 0000.0001)     ;
(PID.TID 0000.0001) drF =   /* W spacing ( units of r ) */
(PID.TID 0000.0001)    25 @  1.440000000000000E+02              /* K =  1: 25 */
(PID.TID 0000.0001)     ;
(PID.TID 0000.0001) delX = /* U spacing ( m - cartesian, degrees - spherical ) */
(PID.TID 0000.0001)   200 @  1.000000000000000E+04              /* I =  1:200 */
(PID.TID 0000.0001)     ;
(PID.TID 0000.0001) delY = /* V spacing ( m - cartesian, degrees - spherical ) */
(PID.TID 0000.0001)                 4.354770412272808E+04,      /* J =  1 */
(PID.TID 0000.0001)                 3.976328763529614E+04,      /* J =  2 */
(PID.TID 0000.0001)                 3.845253979986927E+04,      /* J =  3 */
(PID.TID 0000.0001)                 3.330179774422351E+04,      /* J =  4 */
(PID.TID 0000.0001)                 2.498218561664100E+04,      /* J =  5 */
(PID.TID 0000.0001)                 1.850347835747289E+04,      /* J =  6 */
(PID.TID 0000.0001)                 1.476940894853175E+04,      /* J =  7 */
(PID.TID 0000.0001)                 1.272781949244290E+04,      /* J =  8 */
(PID.TID 0000.0001)                 1.159189758968330E+04,      /* J =  9 */
(PID.TID 0000.0001)                 1.094219501627191E+04,      /* J = 10 */
(PID.TID 0000.0001)                 1.056279034603045E+04,      /* J = 11 */
(PID.TID 0000.0001)                 1.033823866459392E+04,      /* J = 12 */
(PID.TID 0000.0001)                 1.020398171822501E+04,      /* J = 13 */
(PID.TID 0000.0001)                 1.012328472029299E+04,      /* J = 14 */
(PID.TID 0000.0001)                 1.007461407944328E+04,      /* J = 15 */
(PID.TID 0000.0001)                 1.004519587625975E+04,      /* J = 16 */
(PID.TID 0000.0001)                 1.002739060034890E+04,      /* J = 17 */
(PID.TID 0000.0001)                 1.001660509967246E+04,      /* J = 18 */
(PID.TID 0000.0001)                 1.001006850448283E+04,      /* J = 19 */
(PID.TID 0000.0001)                 1.000610575317793E+04,      /* J = 20 */
(PID.TID 0000.0001)                 1.000370292038679E+04,      /* J = 21 */
(PID.TID 0000.0001)                 1.000224578530626E+04,      /* J = 22 */
(PID.TID 0000.0001)                 1.000136208265968E+04,      /* J = 23 */
(PID.TID 0000.0001)                 1.000082612466494E+04,      /* J = 24 */
(PID.TID 0000.0001)                 1.000050106249572E+04,      /* J = 25 */
(PID.TID 0000.0001)                 1.000030390702810E+04,      /* J = 26 */
(PID.TID 0000.0001)                 1.000018432792299E+04,      /* J = 27 */
(PID.TID 0000.0001)                 1.000011180016617E+04,      /* J = 28 */
(PID.TID 0000.0001)                 1.000006781009222E+04,      /* J = 29 */
(PID.TID 0000.0001)                 1.000004112884983E+04,      /* J = 30 */
(PID.TID 0000.0001)                 1.000002494588998E+04,      /* J = 31 */
(PID.TID 0000.0001)                 1.000001513044032E+04,      /* J = 32 */
(PID.TID 0000.0001)                 1.000000917707345E+04,      /* J = 33 */
(PID.TID 0000.0001)                 1.000000556617549E+04,      /* J = 34 */
(PID.TID 0000.0001)                 1.000000337605576E+04,      /* J = 35 */
(PID.TID 0000.0001)                 1.000000204768121E+04,      /* J = 36 */
(PID.TID 0000.0001)                 1.000000124198138E+04,      /* J = 37 */
(PID.TID 0000.0001)                 1.000000075329977E+04,      /* J = 38 */
(PID.TID 0000.0001)                 1.000000045689940E+04,      /* J = 39 */
(PID.TID 0000.0001)                 1.000000027712349E+04,      /* J = 40 */
(PID.TID 0000.0001)                 1.000000016808389E+04,      /* J = 41 */
(PID.TID 0000.0001)                 1.000000010194804E+04,      /* J = 42 */
(PID.TID 0000.0001)                 1.000000006183461E+04,      /* J = 43 */
(PID.TID 0000.0001)                 1.000000003750459E+04,      /* J = 44 */
(PID.TID 0000.0001)                 1.000000002274768E+04       /* J = 45 */
(PID.TID 0000.0001)     ;
(PID.TID 0000.0001) xgOrigin = /* X-axis origin of West  edge (cartesian: m, lat-lon: deg.) */
(PID.TID 0000.0001)                 0.000000000000000E+00
(PID.TID 0000.0001)     ;
(PID.TID 0000.0001) ygOrigin = /* Y-axis origin of South edge (cartesian: m, lat-lon: deg.) */
(PID.TID 0000.0001)                 0.000000000000000E+00
(PID.TID 0000.0001)     ;
(PID.TID 0000.0001) rSphere =  /* Radius ( ignored - cartesian, m - spherical ) */
(PID.TID 0000.0001)                 6.370000000000000E+06
(PID.TID 0000.0001)     ;
(PID.TID 0000.0001) deepAtmosphere = /* Deep/Shallow Atmosphere flag (True/False) */
(PID.TID 0000.0001)                   F
(PID.TID 0000.0001)     ;
(PID.TID 0000.0001) xC =  /* xC(:,1,:,1) : P-point X coord ( deg. or m if cartesian) */
(PID.TID 0000.0001)                 5.000000000000000E+03,      /* I =  1 */
(PID.TID 0000.0001)                 1.500000000000000E+04,      /* I =  2 */
(PID.TID 0000.0001)                 2.500000000000000E+04,      /* I =  3 */
(PID.TID 0000.0001)      . . .
(PID.TID 0000.0001)                 4.750000000000000E+05,      /* I = 48 */
(PID.TID 0000.0001)                 4.850000000000000E+05,      /* I = 49 */
(PID.TID 0000.0001)                 4.950000000000000E+05,      /* I = 50 */
(PID.TID 0000.0001)                 5.050000000000000E+05,      /* I = 51 */
(PID.TID 0000.0001)                 5.150000000000000E+05,      /* I = 52 */
(PID.TID 0000.0001)                 5.250000000000000E+05,      /* I = 53 */
(PID.TID 0000.0001)      . . .
(PID.TID 0000.0001)                 9.750000000000000E+05,      /* I = 98 */
(PID.TID 0000.0001)                 9.850000000000000E+05,      /* I = 99 */
(PID.TID 0000.0001)                 9.950000000000000E+05,      /* I =100 */
(PID.TID 0000.0001)                 1.005000000000000E+06,      /* I =101 */
(PID.TID 0000.0001)                 1.015000000000000E+06,      /* I =102 */
(PID.TID 0000.0001)                 1.025000000000000E+06,      /* I =103 */
(PID.TID 0000.0001)      . . .
(PID.TID 0000.0001)                 1.475000000000000E+06,      /* I =148 */
(PID.TID 0000.0001)                 1.485000000000000E+06,      /* I =149 */
(PID.TID 0000.0001)                 1.495000000000000E+06,      /* I =150 */
(PID.TID 0000.0001)                 1.505000000000000E+06,      /* I =151 */
(PID.TID 0000.0001)                 1.515000000000000E+06,      /* I =152 */
(PID.TID 0000.0001)                 1.525000000000000E+06,      /* I =153 */
(PID.TID 0000.0001)      . . .
(PID.TID 0000.0001)                 1.975000000000000E+06,      /* I =198 */
(PID.TID 0000.0001)                 1.985000000000000E+06,      /* I =199 */
(PID.TID 0000.0001)                 1.995000000000000E+06       /* I =200 */
(PID.TID 0000.0001)     ;
(PID.TID 0000.0001) yC =  /* yC(1,:,1,:) : P-point Y coord ( deg. or m if cartesian) */
(PID.TID 0000.0001)                 2.177385206136404E+04,      /* J =  1 */
(PID.TID 0000.0001)                 6.342934794037614E+04,      /* J =  2 */
(PID.TID 0000.0001)                 1.025372616579589E+05,      /* J =  3 */
(PID.TID 0000.0001)                 1.384144304300052E+05,      /* J =  4 */
(PID.TID 0000.0001)                 1.675564221104375E+05,      /* J =  5 */
(PID.TID 0000.0001)                 1.892992540974944E+05,      /* J =  6 */
(PID.TID 0000.0001)                 2.059356977504968E+05,      /* J =  7 */
(PID.TID 0000.0001)                 2.196843119709841E+05,      /* J =  8 */
(PID.TID 0000.0001)                 2.318441705120472E+05,      /* J =  9 */
(PID.TID 0000.0001)                 2.431112168150248E+05,      /* J = 10 */
(PID.TID 0000.0001)                 2.538637094961760E+05,      /* J = 11 */
(PID.TID 0000.0001)                 2.643142240014882E+05,      /* J = 12 */
(PID.TID 0000.0001)                 2.745853341928977E+05,      /* J = 13 */
(PID.TID 0000.0001)                 2.847489674121566E+05,      /* J = 14 */
(PID.TID 0000.0001)                 2.948479168120248E+05,      /* J = 15 */
(PID.TID 0000.0001)                 3.049078217898763E+05,      /* J = 16 */
(PID.TID 0000.0001)                 3.149441150281806E+05,      /* J = 17 */
(PID.TID 0000.0001)                 3.249661128781913E+05,      /* J = 18 */
(PID.TID 0000.0001)                 3.349794496802689E+05,      /* J = 19 */
(PID.TID 0000.0001)                 3.449875368090993E+05,      /* J = 20 */
(PID.TID 0000.0001)                 3.549924411458817E+05,      /* J = 21 */
(PID.TID 0000.0001)                 3.649954154987283E+05,      /* J = 22 */
(PID.TID 0000.0001)                 3.749972194327112E+05,      /* J = 23 */
(PID.TID 0000.0001)                 3.849983135363735E+05,      /* J = 24 */
(PID.TID 0000.0001)                 3.949989771299539E+05,      /* J = 25 */
(PID.TID 0000.0001)                 4.049993796147157E+05,      /* J = 26 */
(PID.TID 0000.0001)                 4.149996237321913E+05,      /* J = 27 */
(PID.TID 0000.0001)                 4.249997717962359E+05,      /* J = 28 */
(PID.TID 0000.0001)                 4.349998616013651E+05,      /* J = 29 */
(PID.TID 0000.0001)                 4.449999160708361E+05,      /* J = 30 */
(PID.TID 0000.0001)                 4.549999491082060E+05,      /* J = 31 */
(PID.TID 0000.0001)                 4.649999691463711E+05,      /* J = 32 */
(PID.TID 0000.0001)                 4.749999813001280E+05,      /* J = 33 */
(PID.TID 0000.0001)                 4.849999886717524E+05,      /* J = 34 */
(PID.TID 0000.0001)                 4.949999931428681E+05,      /* J = 35 */
(PID.TID 0000.0001)                 5.049999958547366E+05,      /* J = 36 */
(PID.TID 0000.0001)                 5.149999974995678E+05,      /* J = 37 */
(PID.TID 0000.0001)                 5.249999984972085E+05,      /* J = 38 */
(PID.TID 0000.0001)                 5.349999991023081E+05,      /* J = 39 */
(PID.TID 0000.0001)                 5.449999994693196E+05,      /* J = 40 */
(PID.TID 0000.0001)                 5.549999996919233E+05,      /* J = 41 */
(PID.TID 0000.0001)                 5.649999998269393E+05,      /* J = 42 */
(PID.TID 0000.0001)                 5.749999999088305E+05,      /* J = 43 */
(PID.TID 0000.0001)                 5.849999999585001E+05,      /* J = 44 */
(PID.TID 0000.0001)                 5.949999999886262E+05       /* J = 45 */
(PID.TID 0000.0001)     ;
(PID.TID 0000.0001) rcoord = /* P-point R coordinate (  units of r ) */
(PID.TID 0000.0001)                -7.200000000000000E+01,      /* K =  1 */
(PID.TID 0000.0001)                -2.160000000000000E+02,      /* K =  2 */
(PID.TID 0000.0001)                -3.600000000000000E+02,      /* K =  3 */
(PID.TID 0000.0001)                -5.040000000000000E+02,      /* K =  4 */
(PID.TID 0000.0001)                -6.480000000000000E+02,      /* K =  5 */
(PID.TID 0000.0001)                -7.920000000000000E+02,      /* K =  6 */
(PID.TID 0000.0001)                -9.360000000000000E+02,      /* K =  7 */
(PID.TID 0000.0001)                -1.080000000000000E+03,      /* K =  8 */
(PID.TID 0000.0001)                -1.224000000000000E+03,      /* K =  9 */
(PID.TID 0000.0001)                -1.368000000000000E+03,      /* K = 10 */
(PID.TID 0000.0001)                -1.512000000000000E+03,      /* K = 11 */
(PID.TID 0000.0001)                -1.656000000000000E+03,      /* K = 12 */
(PID.TID 0000.0001)                -1.800000000000000E+03,      /* K = 13 */
(PID.TID 0000.0001)                -1.944000000000000E+03,      /* K = 14 */
(PID.TID 0000.0001)                -2.088000000000000E+03,      /* K = 15 */
(PID.TID 0000.0001)                -2.232000000000000E+03,      /* K = 16 */
(PID.TID 0000.0001)                -2.376000000000000E+03,      /* K = 17 */
(PID.TID 0000.0001)                -2.520000000000000E+03,      /* K = 18 */
(PID.TID 0000.0001)                -2.664000000000000E+03,      /* K = 19 */
(PID.TID 0000.0001)                -2.808000000000000E+03,      /* K = 20 */
(PID.TID 0000.0001)                -2.952000000000000E+03,      /* K = 21 */
(PID.TID 0000.0001)                -3.096000000000000E+03,      /* K = 22 */
(PID.TID 0000.0001)                -3.240000000000000E+03,      /* K = 23 */
(PID.TID 0000.0001)                -3.384000000000000E+03,      /* K = 24 */
(PID.TID 0000.0001)                -3.528000000000000E+03       /* K = 25 */
(PID.TID 0000.0001)     ;
(PID.TID 0000.0001) rF =   /* W-Interf. R coordinate (  units of r ) */
(PID.TID 0000.0001)                 0.000000000000000E+00,      /* K =  1 */
(PID.TID 0000.0001)                -1.440000000000000E+02,      /* K =  2 */
(PID.TID 0000.0001)                -2.880000000000000E+02,      /* K =  3 */
(PID.TID 0000.0001)                -4.320000000000000E+02,      /* K =  4 */
(PID.TID 0000.0001)                -5.760000000000000E+02,      /* K =  5 */
(PID.TID 0000.0001)                -7.200000000000000E+02,      /* K =  6 */
(PID.TID 0000.0001)                -8.640000000000000E+02,      /* K =  7 */
(PID.TID 0000.0001)                -1.008000000000000E+03,      /* K =  8 */
(PID.TID 0000.0001)                -1.152000000000000E+03,      /* K =  9 */
(PID.TID 0000.0001)                -1.296000000000000E+03,      /* K = 10 */
(PID.TID 0000.0001)                -1.440000000000000E+03,      /* K = 11 */
(PID.TID 0000.0001)                -1.584000000000000E+03,      /* K = 12 */
(PID.TID 0000.0001)                -1.728000000000000E+03,      /* K = 13 */
(PID.TID 0000.0001)                -1.872000000000000E+03,      /* K = 14 */
(PID.TID 0000.0001)                -2.016000000000000E+03,      /* K = 15 */
(PID.TID 0000.0001)                -2.160000000000000E+03,      /* K = 16 */
(PID.TID 0000.0001)                -2.304000000000000E+03,      /* K = 17 */
(PID.TID 0000.0001)                -2.448000000000000E+03,      /* K = 18 */
(PID.TID 0000.0001)                -2.592000000000000E+03,      /* K = 19 */
(PID.TID 0000.0001)                -2.736000000000000E+03,      /* K = 20 */
(PID.TID 0000.0001)                -2.880000000000000E+03,      /* K = 21 */
(PID.TID 0000.0001)                -3.024000000000000E+03,      /* K = 22 */
(PID.TID 0000.0001)                -3.168000000000000E+03,      /* K = 23 */
(PID.TID 0000.0001)                -3.312000000000000E+03,      /* K = 24 */
(PID.TID 0000.0001)                -3.456000000000000E+03,      /* K = 25 */
(PID.TID 0000.0001)                -3.600000000000000E+03       /* K = 26 */
(PID.TID 0000.0001)     ;
(PID.TID 0000.0001) deepFacC = /* deep-model grid factor @ cell-Center (-) */
(PID.TID 0000.0001)    25 @  1.000000000000000E+00              /* K =  1: 25 */
(PID.TID 0000.0001)     ;
(PID.TID 0000.0001) deepFacF = /* deep-model grid factor @ W-Interface (-) */
(PID.TID 0000.0001)    26 @  1.000000000000000E+00              /* K =  1: 26 */
(PID.TID 0000.0001)     ;
(PID.TID 0000.0001) rVel2wUnit = /* convert units: rVel -> wSpeed (=1 if z-coord)*/
(PID.TID 0000.0001)    26 @  1.000000000000000E+00              /* K =  1: 26 */
(PID.TID 0000.0001)     ;
(PID.TID 0000.0001) wUnit2rVel = /* convert units: wSpeed -> rVel (=1 if z-coord)*/
(PID.TID 0000.0001)    26 @  1.000000000000000E+00              /* K =  1: 26 */
(PID.TID 0000.0001)     ;
(PID.TID 0000.0001) dBdrRef = /* Vertical gradient of reference boyancy [(m/s/r)^2)] */
(PID.TID 0000.0001)                 0.000000000000000E+00,      /* K =  1 */
(PID.TID 0000.0001)                 5.291255125000001E-06,      /* K =  2 */
(PID.TID 0000.0001)                 5.291268749999999E-06,      /* K =  3 */
(PID.TID 0000.0001)                 5.291214250000001E-06,      /* K =  4 */
(PID.TID 0000.0001)     6 @  5.291268749999999E-06,             /* K =  5: 10 */
(PID.TID 0000.0001)                 5.291268750000005E-06,      /* K = 11 */
(PID.TID 0000.0001)    10 @  5.291268749999999E-06,             /* K = 12: 21 */
(PID.TID 0000.0001)                 5.291132500000005E-06,      /* K = 22 */
(PID.TID 0000.0001)                 5.291268749999987E-06,      /* K = 23 */
(PID.TID 0000.0001)                 5.291268750000011E-06,      /* K = 24 */
(PID.TID 0000.0001)                 5.291268749999987E-06       /* K = 25 */
(PID.TID 0000.0001)     ;
(PID.TID 0000.0001) rotateGrid = /* use rotated grid ( True/False ) */
(PID.TID 0000.0001)                   F
(PID.TID 0000.0001)     ;
(PID.TID 0000.0001) phiEuler = /* Euler angle, rotation about original z-coordinate [rad] */
(PID.TID 0000.0001)                 0.000000000000000E+00
(PID.TID 0000.0001)     ;
(PID.TID 0000.0001) thetaEuler = /* Euler angle, rotation about new x-coordinate [rad] */
(PID.TID 0000.0001)                 0.000000000000000E+00
(PID.TID 0000.0001)     ;
(PID.TID 0000.0001) psiEuler = /* Euler angle, rotation about new z-coordinate [rad] */
(PID.TID 0000.0001)                 0.000000000000000E+00
(PID.TID 0000.0001)     ;
(PID.TID 0000.0001) dxF =  /* dxF(:,1,:,1) ( units: m ) */
(PID.TID 0000.0001)   200 @  1.000000000000000E+04              /* I =  1:200 */
(PID.TID 0000.0001)     ;
(PID.TID 0000.0001) dxF =  /* dxF(1,:,1,:) ( units: m ) */
(PID.TID 0000.0001)    45 @  1.000000000000000E+04              /* J =  1: 45 */
(PID.TID 0000.0001)     ;
(PID.TID 0000.0001) dyF =  /* dyF(:,1,:,1) ( units: m ) */
(PID.TID 0000.0001)   200 @  4.354770412272808E+04              /* I =  1:200 */
(PID.TID 0000.0001)     ;
(PID.TID 0000.0001) dyF =  /* dyF(1,:,1,:) ( units: m ) */
(PID.TID 0000.0001)                 4.354770412272808E+04,      /* J =  1 */
(PID.TID 0000.0001)                 3.976328763529614E+04,      /* J =  2 */
(PID.TID 0000.0001)                 3.845253979986927E+04,      /* J =  3 */
(PID.TID 0000.0001)                 3.330179774422351E+04,      /* J =  4 */
(PID.TID 0000.0001)                 2.498218561664100E+04,      /* J =  5 */
(PID.TID 0000.0001)                 1.850347835747289E+04,      /* J =  6 */
(PID.TID 0000.0001)                 1.476940894853175E+04,      /* J =  7 */
(PID.TID 0000.0001)                 1.272781949244290E+04,      /* J =  8 */
(PID.TID 0000.0001)                 1.159189758968330E+04,      /* J =  9 */
(PID.TID 0000.0001)                 1.094219501627191E+04,      /* J = 10 */
(PID.TID 0000.0001)                 1.056279034603045E+04,      /* J = 11 */
(PID.TID 0000.0001)                 1.033823866459392E+04,      /* J = 12 */
(PID.TID 0000.0001)                 1.020398171822501E+04,      /* J = 13 */
(PID.TID 0000.0001)                 1.012328472029299E+04,      /* J = 14 */
(PID.TID 0000.0001)                 1.007461407944328E+04,      /* J = 15 */
(PID.TID 0000.0001)                 1.004519587625975E+04,      /* J = 16 */
(PID.TID 0000.0001)                 1.002739060034890E+04,      /* J = 17 */
(PID.TID 0000.0001)                 1.001660509967246E+04,      /* J = 18 */
(PID.TID 0000.0001)                 1.001006850448283E+04,      /* J = 19 */
(PID.TID 0000.0001)                 1.000610575317793E+04,      /* J = 20 */
(PID.TID 0000.0001)                 1.000370292038679E+04,      /* J = 21 */
(PID.TID 0000.0001)                 1.000224578530626E+04,      /* J = 22 */
(PID.TID 0000.0001)                 1.000136208265968E+04,      /* J = 23 */
(PID.TID 0000.0001)                 1.000082612466494E+04,      /* J = 24 */
(PID.TID 0000.0001)                 1.000050106249572E+04,      /* J = 25 */
(PID.TID 0000.0001)                 1.000030390702810E+04,      /* J = 26 */
(PID.TID 0000.0001)                 1.000018432792299E+04,      /* J = 27 */
(PID.TID 0000.0001)                 1.000011180016617E+04,      /* J = 28 */
(PID.TID 0000.0001)                 1.000006781009222E+04,      /* J = 29 */
(PID.TID 0000.0001)                 1.000004112884983E+04,      /* J = 30 */
(PID.TID 0000.0001)                 1.000002494588998E+04,      /* J = 31 */
(PID.TID 0000.0001)                 1.000001513044032E+04,      /* J = 32 */
(PID.TID 0000.0001)                 1.000000917707345E+04,      /* J = 33 */
(PID.TID 0000.0001)                 1.000000556617549E+04,      /* J = 34 */
(PID.TID 0000.0001)                 1.000000337605576E+04,      /* J = 35 */
(PID.TID 0000.0001)                 1.000000204768121E+04,      /* J = 36 */
(PID.TID 0000.0001)                 1.000000124198138E+04,      /* J = 37 */
(PID.TID 0000.0001)                 1.000000075329977E+04,      /* J = 38 */
(PID.TID 0000.0001)                 1.000000045689940E+04,      /* J = 39 */
(PID.TID 0000.0001)                 1.000000027712349E+04,      /* J = 40 */
(PID.TID 0000.0001)                 1.000000016808389E+04,      /* J = 41 */
(PID.TID 0000.0001)                 1.000000010194804E+04,      /* J = 42 */
(PID.TID 0000.0001)                 1.000000006183461E+04,      /* J = 43 */
(PID.TID 0000.0001)                 1.000000003750459E+04,      /* J = 44 */
(PID.TID 0000.0001)                 1.000000002274768E+04       /* J = 45 */
(PID.TID 0000.0001)     ;
(PID.TID 0000.0001) dxG =  /* dxG(:,1,:,1) ( units: m ) */
(PID.TID 0000.0001)   200 @  1.000000000000000E+04              /* I =  1:200 */
(PID.TID 0000.0001)     ;
(PID.TID 0000.0001) dxG =  /* dxG(1,:,1,:) ( units: m ) */
(PID.TID 0000.0001)    45 @  1.000000000000000E+04              /* J =  1: 45 */
(PID.TID 0000.0001)     ;
(PID.TID 0000.0001) dyG =  /* dyG(:,1,:,1) ( units: m ) */
(PID.TID 0000.0001)   200 @  4.354770412272808E+04              /* I =  1:200 */
(PID.TID 0000.0001)     ;
(PID.TID 0000.0001) dyG =  /* dyG(1,:,1,:) ( units: m ) */
(PID.TID 0000.0001)                 4.354770412272808E+04,      /* J =  1 */
(PID.TID 0000.0001)                 3.976328763529614E+04,      /* J =  2 */
(PID.TID 0000.0001)                 3.845253979986927E+04,      /* J =  3 */
(PID.TID 0000.0001)                 3.330179774422351E+04,      /* J =  4 */
(PID.TID 0000.0001)                 2.498218561664100E+04,      /* J =  5 */
(PID.TID 0000.0001)                 1.850347835747289E+04,      /* J =  6 */
(PID.TID 0000.0001)                 1.476940894853175E+04,      /* J =  7 */
(PID.TID 0000.0001)                 1.272781949244290E+04,      /* J =  8 */
(PID.TID 0000.0001)                 1.159189758968330E+04,      /* J =  9 */
(PID.TID 0000.0001)                 1.094219501627191E+04,      /* J = 10 */
(PID.TID 0000.0001)                 1.056279034603045E+04,      /* J = 11 */
(PID.TID 0000.0001)                 1.033823866459392E+04,      /* J = 12 */
(PID.TID 0000.0001)                 1.020398171822501E+04,      /* J = 13 */
(PID.TID 0000.0001)                 1.012328472029299E+04,      /* J = 14 */
(PID.TID 0000.0001)                 1.007461407944328E+04,      /* J = 15 */
(PID.TID 0000.0001)                 1.004519587625975E+04,      /* J = 16 */
(PID.TID 0000.0001)                 1.002739060034890E+04,      /* J = 17 */
(PID.TID 0000.0001)                 1.001660509967246E+04,      /* J = 18 */
(PID.TID 0000.0001)                 1.001006850448283E+04,      /* J = 19 */
(PID.TID 0000.0001)                 1.000610575317793E+04,      /* J = 20 */
(PID.TID 0000.0001)                 1.000370292038679E+04,      /* J = 21 */
(PID.TID 0000.0001)                 1.000224578530626E+04,      /* J = 22 */
(PID.TID 0000.0001)                 1.000136208265968E+04,      /* J = 23 */
(PID.TID 0000.0001)                 1.000082612466494E+04,      /* J = 24 */
(PID.TID 0000.0001)                 1.000050106249572E+04,      /* J = 25 */
(PID.TID 0000.0001)                 1.000030390702810E+04,      /* J = 26 */
(PID.TID 0000.0001)                 1.000018432792299E+04,      /* J = 27 */
(PID.TID 0000.0001)                 1.000011180016617E+04,      /* J = 28 */
(PID.TID 0000.0001)                 1.000006781009222E+04,      /* J = 29 */
(PID.TID 0000.0001)                 1.000004112884983E+04,      /* J = 30 */
(PID.TID 0000.0001)                 1.000002494588998E+04,      /* J = 31 */
(PID.TID 0000.0001)                 1.000001513044032E+04,      /* J = 32 */
(PID.TID 0000.0001)                 1.000000917707345E+04,      /* J = 33 */
(PID.TID 0000.0001)                 1.000000556617549E+04,      /* J = 34 */
(PID.TID 0000.0001)                 1.000000337605576E+04,      /* J = 35 */
(PID.TID 0000.0001)                 1.000000204768121E+04,      /* J = 36 */
(PID.TID 0000.0001)                 1.000000124198138E+04,      /* J = 37 */
(PID.TID 0000.0001)                 1.000000075329977E+04,      /* J = 38 */
(PID.TID 0000.0001)                 1.000000045689940E+04,      /* J = 39 */
(PID.TID 0000.0001)                 1.000000027712349E+04,      /* J = 40 */
(PID.TID 0000.0001)                 1.000000016808389E+04,      /* J = 41 */
(PID.TID 0000.0001)                 1.000000010194804E+04,      /* J = 42 */
(PID.TID 0000.0001)                 1.000000006183461E+04,      /* J = 43 */
(PID.TID 0000.0001)                 1.000000003750459E+04,      /* J = 44 */
(PID.TID 0000.0001)                 1.000000002274768E+04       /* J = 45 */
(PID.TID 0000.0001)     ;
(PID.TID 0000.0001) dxC =  /* dxC(:,1,:,1) ( units: m ) */
(PID.TID 0000.0001)   200 @  1.000000000000000E+04              /* I =  1:200 */
(PID.TID 0000.0001)     ;
(PID.TID 0000.0001) dxC =  /* dxC(1,:,1,:) ( units: m ) */
(PID.TID 0000.0001)    45 @  1.000000000000000E+04              /* J =  1: 45 */
(PID.TID 0000.0001)     ;
(PID.TID 0000.0001) dyC =  /* dyC(:,1,:,1) ( units: m ) */
(PID.TID 0000.0001)   200 @  2.677385207273788E+04              /* I =  1:200 */
(PID.TID 0000.0001)     ;
(PID.TID 0000.0001) dyC =  /* dyC(1,:,1,:) ( units: m ) */
(PID.TID 0000.0001)                 2.677385207273788E+04,      /* J =  1 */
(PID.TID 0000.0001)                 4.165549587901211E+04,      /* J =  2 */
(PID.TID 0000.0001)                 3.910791371758271E+04,      /* J =  3 */
(PID.TID 0000.0001)                 3.587716877204639E+04,      /* J =  4 */
(PID.TID 0000.0001)                 2.914199168043226E+04,      /* J =  5 */
(PID.TID 0000.0001)                 2.174283198705695E+04,      /* J =  6 */
(PID.TID 0000.0001)                 1.663644365300232E+04,      /* J =  7 */
(PID.TID 0000.0001)                 1.374861422048732E+04,      /* J =  8 */
(PID.TID 0000.0001)                 1.215985854106310E+04,      /* J =  9 */
(PID.TID 0000.0001)                 1.126704630297760E+04,      /* J = 10 */
(PID.TID 0000.0001)                 1.075249268115118E+04,      /* J = 11 */
(PID.TID 0000.0001)                 1.045051450531219E+04,      /* J = 12 */
(PID.TID 0000.0001)                 1.027111019140946E+04,      /* J = 13 */
(PID.TID 0000.0001)                 1.016363321925900E+04,      /* J = 14 */
(PID.TID 0000.0001)                 1.009894939986813E+04,      /* J = 15 */
(PID.TID 0000.0001)                 1.005990497785152E+04,      /* J = 16 */
(PID.TID 0000.0001)                 1.003629323830432E+04,      /* J = 17 */
(PID.TID 0000.0001)                 1.002199785001068E+04,      /* J = 18 */
(PID.TID 0000.0001)                 1.001333680207765E+04,      /* J = 19 */
(PID.TID 0000.0001)                 1.000808712883038E+04,      /* J = 20 */
(PID.TID 0000.0001)                 1.000490433678236E+04,      /* J = 21 */
(PID.TID 0000.0001)                 1.000297435284652E+04,      /* J = 22 */
(PID.TID 0000.0001)                 1.000180393398297E+04,      /* J = 23 */
(PID.TID 0000.0001)                 1.000109410366231E+04,      /* J = 24 */
(PID.TID 0000.0001)                 1.000066359358033E+04,      /* J = 25 */
(PID.TID 0000.0001)                 1.000040248476191E+04,      /* J = 26 */
(PID.TID 0000.0001)                 1.000024411747555E+04,      /* J = 27 */
(PID.TID 0000.0001)                 1.000014806404458E+04,      /* J = 28 */
(PID.TID 0000.0001)                 1.000008980512919E+04,      /* J = 29 */
(PID.TID 0000.0001)                 1.000005446947102E+04,      /* J = 30 */
(PID.TID 0000.0001)                 1.000003303736990E+04,      /* J = 31 */
(PID.TID 0000.0001)                 1.000002003816515E+04,      /* J = 32 */
(PID.TID 0000.0001)                 1.000001215375688E+04,      /* J = 33 */
(PID.TID 0000.0001)                 1.000000737162447E+04,      /* J = 34 */
(PID.TID 0000.0001)                 1.000000447111562E+04,      /* J = 35 */
(PID.TID 0000.0001)                 1.000000271186848E+04,      /* J = 36 */
(PID.TID 0000.0001)                 1.000000164483129E+04,      /* J = 37 */
(PID.TID 0000.0001)                 1.000000099764058E+04,      /* J = 38 */
(PID.TID 0000.0001)                 1.000000060509959E+04,      /* J = 39 */
(PID.TID 0000.0001)                 1.000000036701145E+04,      /* J = 40 */
(PID.TID 0000.0001)                 1.000000022260369E+04,      /* J = 41 */
(PID.TID 0000.0001)                 1.000000013501597E+04,      /* J = 42 */
(PID.TID 0000.0001)                 1.000000008189132E+04,      /* J = 43 */
(PID.TID 0000.0001)                 1.000000004966960E+04,      /* J = 44 */
(PID.TID 0000.0001)                 1.000000003012614E+04       /* J = 45 */
(PID.TID 0000.0001)     ;
(PID.TID 0000.0001) dxV =  /* dxV(:,1,:,1) ( units: m ) */
(PID.TID 0000.0001)   200 @  1.000000000000000E+04              /* I =  1:200 */
(PID.TID 0000.0001)     ;
(PID.TID 0000.0001) dxV =  /* dxV(1,:,1,:) ( units: m ) */
(PID.TID 0000.0001)    45 @  1.000000000000000E+04              /* J =  1: 45 */
(PID.TID 0000.0001)     ;
(PID.TID 0000.0001) dyU =  /* dyU(:,1,:,1) ( units: m ) */
(PID.TID 0000.0001)   200 @  2.677385207273788E+04              /* I =  1:200 */
(PID.TID 0000.0001)     ;
(PID.TID 0000.0001) dyU =  /* dyU(1,:,1,:) ( units: m ) */
(PID.TID 0000.0001)                 2.677385207273788E+04,      /* J =  1 */
(PID.TID 0000.0001)                 4.165549587901211E+04,      /* J =  2 */
(PID.TID 0000.0001)                 3.910791371758271E+04,      /* J =  3 */
(PID.TID 0000.0001)                 3.587716877204639E+04,      /* J =  4 */
(PID.TID 0000.0001)                 2.914199168043226E+04,      /* J =  5 */
(PID.TID 0000.0001)                 2.174283198705695E+04,      /* J =  6 */
(PID.TID 0000.0001)                 1.663644365300232E+04,      /* J =  7 */
(PID.TID 0000.0001)                 1.374861422048732E+04,      /* J =  8 */
(PID.TID 0000.0001)                 1.215985854106310E+04,      /* J =  9 */
(PID.TID 0000.0001)                 1.126704630297760E+04,      /* J = 10 */
(PID.TID 0000.0001)                 1.075249268115118E+04,      /* J = 11 */
(PID.TID 0000.0001)                 1.045051450531219E+04,      /* J = 12 */
(PID.TID 0000.0001)                 1.027111019140946E+04,      /* J = 13 */
(PID.TID 0000.0001)                 1.016363321925900E+04,      /* J = 14 */
(PID.TID 0000.0001)                 1.009894939986813E+04,      /* J = 15 */
(PID.TID 0000.0001)                 1.005990497785152E+04,      /* J = 16 */
(PID.TID 0000.0001)                 1.003629323830432E+04,      /* J = 17 */
(PID.TID 0000.0001)                 1.002199785001068E+04,      /* J = 18 */
(PID.TID 0000.0001)                 1.001333680207765E+04,      /* J = 19 */
(PID.TID 0000.0001)                 1.000808712883038E+04,      /* J = 20 */
(PID.TID 0000.0001)                 1.000490433678236E+04,      /* J = 21 */
(PID.TID 0000.0001)                 1.000297435284652E+04,      /* J = 22 */
(PID.TID 0000.0001)                 1.000180393398297E+04,      /* J = 23 */
(PID.TID 0000.0001)                 1.000109410366231E+04,      /* J = 24 */
(PID.TID 0000.0001)                 1.000066359358033E+04,      /* J = 25 */
(PID.TID 0000.0001)                 1.000040248476191E+04,      /* J = 26 */
(PID.TID 0000.0001)                 1.000024411747555E+04,      /* J = 27 */
(PID.TID 0000.0001)                 1.000014806404458E+04,      /* J = 28 */
(PID.TID 0000.0001)                 1.000008980512919E+04,      /* J = 29 */
(PID.TID 0000.0001)                 1.000005446947102E+04,      /* J = 30 */
(PID.TID 0000.0001)                 1.000003303736990E+04,      /* J = 31 */
(PID.TID 0000.0001)                 1.000002003816515E+04,      /* J = 32 */
(PID.TID 0000.0001)                 1.000001215375688E+04,      /* J = 33 */
(PID.TID 0000.0001)                 1.000000737162447E+04,      /* J = 34 */
(PID.TID 0000.0001)                 1.000000447111562E+04,      /* J = 35 */
(PID.TID 0000.0001)                 1.000000271186848E+04,      /* J = 36 */
(PID.TID 0000.0001)                 1.000000164483129E+04,      /* J = 37 */
(PID.TID 0000.0001)                 1.000000099764058E+04,      /* J = 38 */
(PID.TID 0000.0001)                 1.000000060509959E+04,      /* J = 39 */
(PID.TID 0000.0001)                 1.000000036701145E+04,      /* J = 40 */
(PID.TID 0000.0001)                 1.000000022260369E+04,      /* J = 41 */
(PID.TID 0000.0001)                 1.000000013501597E+04,      /* J = 42 */
(PID.TID 0000.0001)                 1.000000008189132E+04,      /* J = 43 */
(PID.TID 0000.0001)                 1.000000004966960E+04,      /* J = 44 */
(PID.TID 0000.0001)                 1.000000003012614E+04       /* J = 45 */
(PID.TID 0000.0001)     ;
(PID.TID 0000.0001) rA  =  /* rA (:,1,:,1) ( units: m^2 ) */
(PID.TID 0000.0001)   200 @  4.354770412272808E+08              /* I =  1:200 */
(PID.TID 0000.0001)     ;
(PID.TID 0000.0001) rA  =  /* rA (1,:,1,:) ( units: m^2 ) */
(PID.TID 0000.0001)                 4.354770412272808E+08,      /* J =  1 */
(PID.TID 0000.0001)                 3.976328763529614E+08,      /* J =  2 */
(PID.TID 0000.0001)                 3.845253979986927E+08,      /* J =  3 */
(PID.TID 0000.0001)                 3.330179774422351E+08,      /* J =  4 */
(PID.TID 0000.0001)                 2.498218561664100E+08,      /* J =  5 */
(PID.TID 0000.0001)                 1.850347835747289E+08,      /* J =  6 */
(PID.TID 0000.0001)                 1.476940894853175E+08,      /* J =  7 */
(PID.TID 0000.0001)                 1.272781949244290E+08,      /* J =  8 */
(PID.TID 0000.0001)                 1.159189758968330E+08,      /* J =  9 */
(PID.TID 0000.0001)                 1.094219501627191E+08,      /* J = 10 */
(PID.TID 0000.0001)                 1.056279034603045E+08,      /* J = 11 */
(PID.TID 0000.0001)                 1.033823866459392E+08,      /* J = 12 */
(PID.TID 0000.0001)                 1.020398171822501E+08,      /* J = 13 */
(PID.TID 0000.0001)                 1.012328472029299E+08,      /* J = 14 */
(PID.TID 0000.0001)                 1.007461407944328E+08,      /* J = 15 */
(PID.TID 0000.0001)                 1.004519587625975E+08,      /* J = 16 */
(PID.TID 0000.0001)                 1.002739060034890E+08,      /* J = 17 */
(PID.TID 0000.0001)                 1.001660509967246E+08,      /* J = 18 */
(PID.TID 0000.0001)                 1.001006850448283E+08,      /* J = 19 */
(PID.TID 0000.0001)                 1.000610575317793E+08,      /* J = 20 */
(PID.TID 0000.0001)                 1.000370292038679E+08,      /* J = 21 */
(PID.TID 0000.0001)                 1.000224578530626E+08,      /* J = 22 */
(PID.TID 0000.0001)                 1.000136208265968E+08,      /* J = 23 */
(PID.TID 0000.0001)                 1.000082612466494E+08,      /* J = 24 */
(PID.TID 0000.0001)                 1.000050106249572E+08,      /* J = 25 */
(PID.TID 0000.0001)                 1.000030390702810E+08,      /* J = 26 */
(PID.TID 0000.0001)                 1.000018432792299E+08,      /* J = 27 */
(PID.TID 0000.0001)                 1.000011180016617E+08,      /* J = 28 */
(PID.TID 0000.0001)                 1.000006781009222E+08,      /* J = 29 */
(PID.TID 0000.0001)                 1.000004112884983E+08,      /* J = 30 */
(PID.TID 0000.0001)                 1.000002494588998E+08,      /* J = 31 */
(PID.TID 0000.0001)                 1.000001513044032E+08,      /* J = 32 */
(PID.TID 0000.0001)                 1.000000917707345E+08,      /* J = 33 */
(PID.TID 0000.0001)                 1.000000556617549E+08,      /* J = 34 */
(PID.TID 0000.0001)                 1.000000337605576E+08,      /* J = 35 */
(PID.TID 0000.0001)                 1.000000204768121E+08,      /* J = 36 */
(PID.TID 0000.0001)                 1.000000124198138E+08,      /* J = 37 */
(PID.TID 0000.0001)                 1.000000075329977E+08,      /* J = 38 */
(PID.TID 0000.0001)                 1.000000045689940E+08,      /* J = 39 */
(PID.TID 0000.0001)                 1.000000027712349E+08,      /* J = 40 */
(PID.TID 0000.0001)                 1.000000016808389E+08,      /* J = 41 */
(PID.TID 0000.0001)                 1.000000010194803E+08,      /* J = 42 */
(PID.TID 0000.0001)                 1.000000006183461E+08,      /* J = 43 */
(PID.TID 0000.0001)                 1.000000003750459E+08,      /* J = 44 */
(PID.TID 0000.0001)                 1.000000002274768E+08       /* J = 45 */
(PID.TID 0000.0001)     ;
(PID.TID 0000.0001) rAw =  /* rAw(:,1,:,1) ( units: m^2 ) */
(PID.TID 0000.0001)   200 @  4.354770412272808E+08              /* I =  1:200 */
(PID.TID 0000.0001)     ;
(PID.TID 0000.0001) rAw =  /* rAw(1,:,1,:) ( units: m^2 ) */
(PID.TID 0000.0001)                 4.354770412272808E+08,      /* J =  1 */
(PID.TID 0000.0001)                 3.976328763529614E+08,      /* J =  2 */
(PID.TID 0000.0001)                 3.845253979986927E+08,      /* J =  3 */
(PID.TID 0000.0001)                 3.330179774422351E+08,      /* J =  4 */
(PID.TID 0000.0001)                 2.498218561664100E+08,      /* J =  5 */
(PID.TID 0000.0001)                 1.850347835747289E+08,      /* J =  6 */
(PID.TID 0000.0001)                 1.476940894853175E+08,      /* J =  7 */
(PID.TID 0000.0001)                 1.272781949244290E+08,      /* J =  8 */
(PID.TID 0000.0001)                 1.159189758968330E+08,      /* J =  9 */
(PID.TID 0000.0001)                 1.094219501627191E+08,      /* J = 10 */
(PID.TID 0000.0001)                 1.056279034603045E+08,      /* J = 11 */
(PID.TID 0000.0001)                 1.033823866459392E+08,      /* J = 12 */
(PID.TID 0000.0001)                 1.020398171822501E+08,      /* J = 13 */
(PID.TID 0000.0001)                 1.012328472029299E+08,      /* J = 14 */
(PID.TID 0000.0001)                 1.007461407944328E+08,      /* J = 15 */
(PID.TID 0000.0001)                 1.004519587625975E+08,      /* J = 16 */
(PID.TID 0000.0001)                 1.002739060034890E+08,      /* J = 17 */
(PID.TID 0000.0001)                 1.001660509967246E+08,      /* J = 18 */
(PID.TID 0000.0001)                 1.001006850448283E+08,      /* J = 19 */
(PID.TID 0000.0001)                 1.000610575317793E+08,      /* J = 20 */
(PID.TID 0000.0001)                 1.000370292038679E+08,      /* J = 21 */
(PID.TID 0000.0001)                 1.000224578530626E+08,      /* J = 22 */
(PID.TID 0000.0001)                 1.000136208265968E+08,      /* J = 23 */
(PID.TID 0000.0001)                 1.000082612466494E+08,      /* J = 24 */
(PID.TID 0000.0001)                 1.000050106249572E+08,      /* J = 25 */
(PID.TID 0000.0001)                 1.000030390702810E+08,      /* J = 26 */
(PID.TID 0000.0001)                 1.000018432792299E+08,      /* J = 27 */
(PID.TID 0000.0001)                 1.000011180016617E+08,      /* J = 28 */
(PID.TID 0000.0001)                 1.000006781009222E+08,      /* J = 29 */
(PID.TID 0000.0001)                 1.000004112884983E+08,      /* J = 30 */
(PID.TID 0000.0001)                 1.000002494588998E+08,      /* J = 31 */
(PID.TID 0000.0001)                 1.000001513044032E+08,      /* J = 32 */
(PID.TID 0000.0001)                 1.000000917707345E+08,      /* J = 33 */
(PID.TID 0000.0001)                 1.000000556617549E+08,      /* J = 34 */
(PID.TID 0000.0001)                 1.000000337605576E+08,      /* J = 35 */
(PID.TID 0000.0001)                 1.000000204768121E+08,      /* J = 36 */
(PID.TID 0000.0001)                 1.000000124198138E+08,      /* J = 37 */
(PID.TID 0000.0001)                 1.000000075329977E+08,      /* J = 38 */
(PID.TID 0000.0001)                 1.000000045689940E+08,      /* J = 39 */
(PID.TID 0000.0001)                 1.000000027712349E+08,      /* J = 40 */
(PID.TID 0000.0001)                 1.000000016808389E+08,      /* J = 41 */
(PID.TID 0000.0001)                 1.000000010194803E+08,      /* J = 42 */
(PID.TID 0000.0001)                 1.000000006183461E+08,      /* J = 43 */
(PID.TID 0000.0001)                 1.000000003750459E+08,      /* J = 44 */
(PID.TID 0000.0001)                 1.000000002274768E+08       /* J = 45 */
(PID.TID 0000.0001)     ;
(PID.TID 0000.0001) rAs =  /* rAs(:,1,:,1) ( units: m^2 ) */
(PID.TID 0000.0001)   200 @  2.677385207273788E+08              /* I =  1:200 */
(PID.TID 0000.0001)     ;
(PID.TID 0000.0001) rAs =  /* rAs(1,:,1,:) ( units: m^2 ) */
(PID.TID 0000.0001)                 2.677385207273788E+08,      /* J =  1 */
(PID.TID 0000.0001)                 4.165549587901211E+08,      /* J =  2 */
(PID.TID 0000.0001)                 3.910791371758270E+08,      /* J =  3 */
(PID.TID 0000.0001)                 3.587716877204639E+08,      /* J =  4 */
(PID.TID 0000.0001)                 2.914199168043225E+08,      /* J =  5 */
(PID.TID 0000.0001)                 2.174283198705695E+08,      /* J =  6 */
(PID.TID 0000.0001)                 1.663644365300232E+08,      /* J =  7 */
(PID.TID 0000.0001)                 1.374861422048733E+08,      /* J =  8 */
(PID.TID 0000.0001)                 1.215985854106310E+08,      /* J =  9 */
(PID.TID 0000.0001)                 1.126704630297760E+08,      /* J = 10 */
(PID.TID 0000.0001)                 1.075249268115118E+08,      /* J = 11 */
(PID.TID 0000.0001)                 1.045051450531218E+08,      /* J = 12 */
(PID.TID 0000.0001)                 1.027111019140946E+08,      /* J = 13 */
(PID.TID 0000.0001)                 1.016363321925900E+08,      /* J = 14 */
(PID.TID 0000.0001)                 1.009894939986813E+08,      /* J = 15 */
(PID.TID 0000.0001)                 1.005990497785152E+08,      /* J = 16 */
(PID.TID 0000.0001)                 1.003629323830432E+08,      /* J = 17 */
(PID.TID 0000.0001)                 1.002199785001068E+08,      /* J = 18 */
(PID.TID 0000.0001)                 1.001333680207765E+08,      /* J = 19 */
(PID.TID 0000.0001)                 1.000808712883038E+08,      /* J = 20 */
(PID.TID 0000.0001)                 1.000490433678236E+08,      /* J = 21 */
(PID.TID 0000.0001)                 1.000297435284652E+08,      /* J = 22 */
(PID.TID 0000.0001)                 1.000180393398297E+08,      /* J = 23 */
(PID.TID 0000.0001)                 1.000109410366231E+08,      /* J = 24 */
(PID.TID 0000.0001)                 1.000066359358033E+08,      /* J = 25 */
(PID.TID 0000.0001)                 1.000040248476191E+08,      /* J = 26 */
(PID.TID 0000.0001)                 1.000024411747555E+08,      /* J = 27 */
(PID.TID 0000.0001)                 1.000014806404458E+08,      /* J = 28 */
(PID.TID 0000.0001)                 1.000008980512919E+08,      /* J = 29 */
(PID.TID 0000.0001)                 1.000005446947102E+08,      /* J = 30 */
(PID.TID 0000.0001)                 1.000003303736990E+08,      /* J = 31 */
(PID.TID 0000.0001)                 1.000002003816515E+08,      /* J = 32 */
(PID.TID 0000.0001)                 1.000001215375689E+08,      /* J = 33 */
(PID.TID 0000.0001)                 1.000000737162447E+08,      /* J = 34 */
(PID.TID 0000.0001)                 1.000000447111562E+08,      /* J = 35 */
(PID.TID 0000.0001)                 1.000000271186848E+08,      /* J = 36 */
(PID.TID 0000.0001)                 1.000000164483129E+08,      /* J = 37 */
(PID.TID 0000.0001)                 1.000000099764058E+08,      /* J = 38 */
(PID.TID 0000.0001)                 1.000000060509959E+08,      /* J = 39 */
(PID.TID 0000.0001)                 1.000000036701145E+08,      /* J = 40 */
(PID.TID 0000.0001)                 1.000000022260369E+08,      /* J = 41 */
(PID.TID 0000.0001)                 1.000000013501597E+08,      /* J = 42 */
(PID.TID 0000.0001)                 1.000000008189132E+08,      /* J = 43 */
(PID.TID 0000.0001)                 1.000000004966960E+08,      /* J = 44 */
(PID.TID 0000.0001)                 1.000000003012614E+08       /* J = 45 */
(PID.TID 0000.0001)     ;
(PID.TID 0000.0001) globalArea = /* Integrated horizontal Area (m^2) */
(PID.TID 0000.0001)                 1.006775545097542E+12
(PID.TID 0000.0001)     ;
(PID.TID 0000.0001) // =======================================================
(PID.TID 0000.0001) // End of Model config. summary
(PID.TID 0000.0001) // =======================================================
(PID.TID 0000.0001) 
(PID.TID 0000.0001) == Packages configuration : Check & print summary ==
(PID.TID 0000.0001) 
(PID.TID 0000.0001) OBCS_CHECK: #define ALLOW_OBCS
(PID.TID 0000.0001) OBCS_CHECK: start summary:
(PID.TID 0000.0001) useOBCSbalance = /* balance the flow through OB */
(PID.TID 0000.0001)                   T
(PID.TID 0000.0001)     ;
(PID.TID 0000.0001) OBCS_balanceFacN = /* Northern OB Factor for balancing OB flow [-] */
(PID.TID 0000.0001)                 0.000000000000000E+00
(PID.TID 0000.0001)     ;
(PID.TID 0000.0001) OBCS_balanceFacS = /* Southern OB Factor for balancing OB flow [-] */
(PID.TID 0000.0001)                 1.000000000000000E+00
(PID.TID 0000.0001)     ;
(PID.TID 0000.0001) OBCS_balanceFacE = /* Eastern  OB Factor for balancing OB flow [-] */
(PID.TID 0000.0001)                 1.000000000000000E+00
(PID.TID 0000.0001)     ;
(PID.TID 0000.0001) OBCS_balanceFacW = /* Western  OB Factor for balancing OB flow [-] */
(PID.TID 0000.0001)                 1.000000000000000E+00
(PID.TID 0000.0001)     ;
(PID.TID 0000.0001) OBCS_monitorFreq = /* monitor output frequency [s] */
(PID.TID 0000.0001)                 3.000000000000000E+03
(PID.TID 0000.0001)     ;
(PID.TID 0000.0001) OBCS_monSelect = /* select group of variables to monitor */
(PID.TID 0000.0001)                       0
(PID.TID 0000.0001)     ;
(PID.TID 0000.0001) ======== Tile bi=   1 , bj=   1 ========
(PID.TID 0000.0001)  OB_Jn = /* Northern OB local indices */
(PID.TID 0000.0001)    31 @        0                            /* I = -2: 28 */
(PID.TID 0000.0001)  OB_Js = /* Southern OB local indices */
(PID.TID 0000.0001)    31 @        0                            /* I = -2: 28 */
(PID.TID 0000.0001)  OB_Ie = /* Eastern OB local indices */
(PID.TID 0000.0001)    21 @        0                            /* J = -2: 18 */
(PID.TID 0000.0001)  OB_Iw = /* Western OB local indices */
(PID.TID 0000.0001)    21 @        1                            /* J = -2: 18 */
(PID.TID 0000.0001) ======== Tile bi=   2 , bj=   1 ========
(PID.TID 0000.0001)  OB_Jn = /* Northern OB local indices */
(PID.TID 0000.0001)    31 @        0                            /* I = -2: 28 */
(PID.TID 0000.0001)  OB_Js = /* Southern OB local indices */
(PID.TID 0000.0001)    31 @        0                            /* I = -2: 28 */
(PID.TID 0000.0001)  OB_Ie = /* Eastern OB local indices */
(PID.TID 0000.0001)    21 @        0                            /* J = -2: 18 */
(PID.TID 0000.0001)  OB_Iw = /* Western OB local indices */
(PID.TID 0000.0001)    21 @        0                            /* J = -2: 18 */
(PID.TID 0000.0001) ======== Tile bi=   3 , bj=   1 ========
(PID.TID 0000.0001)  OB_Jn = /* Northern OB local indices */
(PID.TID 0000.0001)    31 @        0                            /* I = -2: 28 */
(PID.TID 0000.0001)  OB_Js = /* Southern OB local indices */
(PID.TID 0000.0001)    31 @        0                            /* I = -2: 28 */
(PID.TID 0000.0001)  OB_Ie = /* Eastern OB local indices */
(PID.TID 0000.0001)    21 @        0                            /* J = -2: 18 */
(PID.TID 0000.0001)  OB_Iw = /* Western OB local indices */
(PID.TID 0000.0001)    21 @        0                            /* J = -2: 18 */
(PID.TID 0000.0001) ======== Tile bi=   4 , bj=   1 ========
(PID.TID 0000.0001)  OB_Jn = /* Northern OB local indices */
(PID.TID 0000.0001)    31 @        0                            /* I = -2: 28 */
(PID.TID 0000.0001)  OB_Js = /* Southern OB local indices */
(PID.TID 0000.0001)    31 @        0                            /* I = -2: 28 */
(PID.TID 0000.0001)  OB_Ie = /* Eastern OB local indices */
(PID.TID 0000.0001)    21 @        0                            /* J = -2: 18 */
(PID.TID 0000.0001)  OB_Iw = /* Western OB local indices */
(PID.TID 0000.0001)    21 @        0                            /* J = -2: 18 */
(PID.TID 0000.0001) ======== Tile bi=   5 , bj=   1 ========
(PID.TID 0000.0001)  OB_Jn = /* Northern OB local indices */
(PID.TID 0000.0001)    31 @        0                            /* I = -2: 28 */
(PID.TID 0000.0001)  OB_Js = /* Southern OB local indices */
(PID.TID 0000.0001)    31 @        0                            /* I = -2: 28 */
(PID.TID 0000.0001)  OB_Ie = /* Eastern OB local indices */
(PID.TID 0000.0001)    21 @        0                            /* J = -2: 18 */
(PID.TID 0000.0001)  OB_Iw = /* Western OB local indices */
(PID.TID 0000.0001)    21 @        0                            /* J = -2: 18 */
(PID.TID 0000.0001) ======== Tile bi=   6 , bj=   1 ========
(PID.TID 0000.0001)  OB_Jn = /* Northern OB local indices */
(PID.TID 0000.0001)    31 @        0                            /* I = -2: 28 */
(PID.TID 0000.0001)  OB_Js = /* Southern OB local indices */
(PID.TID 0000.0001)    31 @        0                            /* I = -2: 28 */
(PID.TID 0000.0001)  OB_Ie = /* Eastern OB local indices */
(PID.TID 0000.0001)    21 @        0                            /* J = -2: 18 */
(PID.TID 0000.0001)  OB_Iw = /* Western OB local indices */
(PID.TID 0000.0001)    21 @        0                            /* J = -2: 18 */
(PID.TID 0000.0001) ======== Tile bi=   7 , bj=   1 ========
(PID.TID 0000.0001)  OB_Jn = /* Northern OB local indices */
(PID.TID 0000.0001)    31 @        0                            /* I = -2: 28 */
(PID.TID 0000.0001)  OB_Js = /* Southern OB local indices */
(PID.TID 0000.0001)    31 @        0                            /* I = -2: 28 */
(PID.TID 0000.0001)  OB_Ie = /* Eastern OB local indices */
(PID.TID 0000.0001)    21 @        0                            /* J = -2: 18 */
(PID.TID 0000.0001)  OB_Iw = /* Western OB local indices */
(PID.TID 0000.0001)    21 @        0                            /* J = -2: 18 */
(PID.TID 0000.0001) ======== Tile bi=   8 , bj=   1 ========
(PID.TID 0000.0001)  OB_Jn = /* Northern OB local indices */
(PID.TID 0000.0001)    31 @        0                            /* I = -2: 28 */
(PID.TID 0000.0001)  OB_Js = /* Southern OB local indices */
(PID.TID 0000.0001)    31 @        0                            /* I = -2: 28 */
(PID.TID 0000.0001)  OB_Ie = /* Eastern OB local indices */
(PID.TID 0000.0001)    21 @        0                            /* J = -2: 18 */
(PID.TID 0000.0001)  OB_Iw = /* Western OB local indices */
(PID.TID 0000.0001)    21 @        0                            /* J = -2: 18 */
(PID.TID 0000.0001) ======== Tile bi=   1 , bj=   2 ========
(PID.TID 0000.0001)  OB_Jn = /* Northern OB local indices */
(PID.TID 0000.0001)    31 @        0                            /* I = -2: 28 */
(PID.TID 0000.0001)  OB_Js = /* Southern OB local indices */
(PID.TID 0000.0001)    31 @        0                            /* I = -2: 28 */
(PID.TID 0000.0001)  OB_Ie = /* Eastern OB local indices */
(PID.TID 0000.0001)    21 @        0                            /* J = -2: 18 */
(PID.TID 0000.0001)  OB_Iw = /* Western OB local indices */
(PID.TID 0000.0001)    21 @        1                            /* J = -2: 18 */
(PID.TID 0000.0001) ======== Tile bi=   2 , bj=   2 ========
(PID.TID 0000.0001)  OB_Jn = /* Northern OB local indices */
(PID.TID 0000.0001)    31 @        0                            /* I = -2: 28 */
(PID.TID 0000.0001)  OB_Js = /* Southern OB local indices */
(PID.TID 0000.0001)    31 @        0                            /* I = -2: 28 */
(PID.TID 0000.0001)  OB_Ie = /* Eastern OB local indices */
(PID.TID 0000.0001)    21 @        0                            /* J = -2: 18 */
(PID.TID 0000.0001)  OB_Iw = /* Western OB local indices */
(PID.TID 0000.0001)    21 @        0                            /* J = -2: 18 */
(PID.TID 0000.0001) ======== Tile bi=   3 , bj=   2 ========
(PID.TID 0000.0001)  OB_Jn = /* Northern OB local indices */
(PID.TID 0000.0001)    31 @        0                            /* I = -2: 28 */
(PID.TID 0000.0001)  OB_Js = /* Southern OB local indices */
(PID.TID 0000.0001)    31 @        0                            /* I = -2: 28 */
(PID.TID 0000.0001)  OB_Ie = /* Eastern OB local indices */
(PID.TID 0000.0001)    21 @        0                            /* J = -2: 18 */
(PID.TID 0000.0001)  OB_Iw = /* Western OB local indices */
(PID.TID 0000.0001)    21 @        0                            /* J = -2: 18 */
(PID.TID 0000.0001) ======== Tile bi=   4 , bj=   2 ========
(PID.TID 0000.0001)  OB_Jn = /* Northern OB local indices */
(PID.TID 0000.0001)    31 @        0                            /* I = -2: 28 */
(PID.TID 0000.0001)  OB_Js = /* Southern OB local indices */
(PID.TID 0000.0001)    31 @        0                            /* I = -2: 28 */
(PID.TID 0000.0001)  OB_Ie = /* Eastern OB local indices */
(PID.TID 0000.0001)    21 @        0                            /* J = -2: 18 */
(PID.TID 0000.0001)  OB_Iw = /* Western OB local indices */
(PID.TID 0000.0001)    21 @        0                            /* J = -2: 18 */
(PID.TID 0000.0001) ======== Tile bi=   5 , bj=   2 ========
(PID.TID 0000.0001)  OB_Jn = /* Northern OB local indices */
(PID.TID 0000.0001)    31 @        0                            /* I = -2: 28 */
(PID.TID 0000.0001)  OB_Js = /* Southern OB local indices */
(PID.TID 0000.0001)    31 @        0                            /* I = -2: 28 */
(PID.TID 0000.0001)  OB_Ie = /* Eastern OB local indices */
(PID.TID 0000.0001)    21 @        0                            /* J = -2: 18 */
(PID.TID 0000.0001)  OB_Iw = /* Western OB local indices */
(PID.TID 0000.0001)    21 @        0                            /* J = -2: 18 */
(PID.TID 0000.0001) ======== Tile bi=   6 , bj=   2 ========
(PID.TID 0000.0001)  OB_Jn = /* Northern OB local indices */
(PID.TID 0000.0001)    31 @        0                            /* I = -2: 28 */
(PID.TID 0000.0001)  OB_Js = /* Southern OB local indices */
(PID.TID 0000.0001)    31 @        0                            /* I = -2: 28 */
(PID.TID 0000.0001)  OB_Ie = /* Eastern OB local indices */
(PID.TID 0000.0001)    21 @        0                            /* J = -2: 18 */
(PID.TID 0000.0001)  OB_Iw = /* Western OB local indices */
(PID.TID 0000.0001)    21 @        0                            /* J = -2: 18 */
(PID.TID 0000.0001) ======== Tile bi=   7 , bj=   2 ========
(PID.TID 0000.0001)  OB_Jn = /* Northern OB local indices */
(PID.TID 0000.0001)    31 @        0                            /* I = -2: 28 */
(PID.TID 0000.0001)  OB_Js = /* Southern OB local indices */
(PID.TID 0000.0001)    31 @        0                            /* I = -2: 28 */
(PID.TID 0000.0001)  OB_Ie = /* Eastern OB local indices */
(PID.TID 0000.0001)    21 @        0                            /* J = -2: 18 */
(PID.TID 0000.0001)  OB_Iw = /* Western OB local indices */
(PID.TID 0000.0001)    21 @        0                            /* J = -2: 18 */
(PID.TID 0000.0001) ======== Tile bi=   8 , bj=   2 ========
(PID.TID 0000.0001)  OB_Jn = /* Northern OB local indices */
(PID.TID 0000.0001)    31 @        0                            /* I = -2: 28 */
(PID.TID 0000.0001)  OB_Js = /* Southern OB local indices */
(PID.TID 0000.0001)    31 @        0                            /* I = -2: 28 */
(PID.TID 0000.0001)  OB_Ie = /* Eastern OB local indices */
(PID.TID 0000.0001)    21 @        0                            /* J = -2: 18 */
(PID.TID 0000.0001)  OB_Iw = /* Western OB local indices */
(PID.TID 0000.0001)    21 @        0                            /* J = -2: 18 */
(PID.TID 0000.0001) ======== Tile bi=   1 , bj=   3 ========
(PID.TID 0000.0001)  OB_Jn = /* Northern OB local indices */
(PID.TID 0000.0001)    31 @       15                            /* I = -2: 28 */
(PID.TID 0000.0001)  OB_Js = /* Southern OB local indices */
(PID.TID 0000.0001)    31 @        0                            /* I = -2: 28 */
(PID.TID 0000.0001)  OB_Ie = /* Eastern OB local indices */
(PID.TID 0000.0001)    21 @        0                            /* J = -2: 18 */
(PID.TID 0000.0001)  OB_Iw = /* Western OB local indices */
(PID.TID 0000.0001)    21 @        1                            /* J = -2: 18 */
(PID.TID 0000.0001) ======== Tile bi=   2 , bj=   3 ========
(PID.TID 0000.0001)  OB_Jn = /* Northern OB local indices */
(PID.TID 0000.0001)    31 @       15                            /* I = -2: 28 */
(PID.TID 0000.0001)  OB_Js = /* Southern OB local indices */
(PID.TID 0000.0001)    31 @        0                            /* I = -2: 28 */
(PID.TID 0000.0001)  OB_Ie = /* Eastern OB local indices */
(PID.TID 0000.0001)    21 @        0                            /* J = -2: 18 */
(PID.TID 0000.0001)  OB_Iw = /* Western OB local indices */
(PID.TID 0000.0001)    21 @        0                            /* J = -2: 18 */
(PID.TID 0000.0001) ======== Tile bi=   3 , bj=   3 ========
(PID.TID 0000.0001)  OB_Jn = /* Northern OB local indices */
(PID.TID 0000.0001)    31 @       15                            /* I = -2: 28 */
(PID.TID 0000.0001)  OB_Js = /* Southern OB local indices */
(PID.TID 0000.0001)    31 @        0                            /* I = -2: 28 */
(PID.TID 0000.0001)  OB_Ie = /* Eastern OB local indices */
(PID.TID 0000.0001)    21 @        0                            /* J = -2: 18 */
(PID.TID 0000.0001)  OB_Iw = /* Western OB local indices */
(PID.TID 0000.0001)    21 @        0                            /* J = -2: 18 */
(PID.TID 0000.0001) ======== Tile bi=   4 , bj=   3 ========
(PID.TID 0000.0001)  OB_Jn = /* Northern OB local indices */
(PID.TID 0000.0001)    31 @       15                            /* I = -2: 28 */
(PID.TID 0000.0001)  OB_Js = /* Southern OB local indices */
(PID.TID 0000.0001)    31 @        0                            /* I = -2: 28 */
(PID.TID 0000.0001)  OB_Ie = /* Eastern OB local indices */
(PID.TID 0000.0001)    21 @        0                            /* J = -2: 18 */
(PID.TID 0000.0001)  OB_Iw = /* Western OB local indices */
(PID.TID 0000.0001)    21 @        0                            /* J = -2: 18 */
(PID.TID 0000.0001) ======== Tile bi=   5 , bj=   3 ========
(PID.TID 0000.0001)  OB_Jn = /* Northern OB local indices */
(PID.TID 0000.0001)    31 @       15                            /* I = -2: 28 */
(PID.TID 0000.0001)  OB_Js = /* Southern OB local indices */
(PID.TID 0000.0001)    31 @        0                            /* I = -2: 28 */
(PID.TID 0000.0001)  OB_Ie = /* Eastern OB local indices */
(PID.TID 0000.0001)    21 @        0                            /* J = -2: 18 */
(PID.TID 0000.0001)  OB_Iw = /* Western OB local indices */
(PID.TID 0000.0001)    21 @        0                            /* J = -2: 18 */
(PID.TID 0000.0001) ======== Tile bi=   6 , bj=   3 ========
(PID.TID 0000.0001)  OB_Jn = /* Northern OB local indices */
(PID.TID 0000.0001)    31 @       15                            /* I = -2: 28 */
(PID.TID 0000.0001)  OB_Js = /* Southern OB local indices */
(PID.TID 0000.0001)    31 @        0                            /* I = -2: 28 */
(PID.TID 0000.0001)  OB_Ie = /* Eastern OB local indices */
(PID.TID 0000.0001)    21 @        0                            /* J = -2: 18 */
(PID.TID 0000.0001)  OB_Iw = /* Western OB local indices */
(PID.TID 0000.0001)    21 @        0                            /* J = -2: 18 */
(PID.TID 0000.0001) ======== Tile bi=   7 , bj=   3 ========
(PID.TID 0000.0001)  OB_Jn = /* Northern OB local indices */
(PID.TID 0000.0001)    31 @       15                            /* I = -2: 28 */
(PID.TID 0000.0001)  OB_Js = /* Southern OB local indices */
(PID.TID 0000.0001)    31 @        0                            /* I = -2: 28 */
(PID.TID 0000.0001)  OB_Ie = /* Eastern OB local indices */
(PID.TID 0000.0001)    21 @        0                            /* J = -2: 18 */
(PID.TID 0000.0001)  OB_Iw = /* Western OB local indices */
(PID.TID 0000.0001)    21 @        0                            /* J = -2: 18 */
(PID.TID 0000.0001) ======== Tile bi=   8 , bj=   3 ========
(PID.TID 0000.0001)  OB_Jn = /* Northern OB local indices */
(PID.TID 0000.0001)    31 @       15                            /* I = -2: 28 */
(PID.TID 0000.0001)  OB_Js = /* Southern OB local indices */
(PID.TID 0000.0001)    31 @        0                            /* I = -2: 28 */
(PID.TID 0000.0001)  OB_Ie = /* Eastern OB local indices */
(PID.TID 0000.0001)    21 @        0                            /* J = -2: 18 */
(PID.TID 0000.0001)  OB_Iw = /* Western OB local indices */
(PID.TID 0000.0001)    21 @        0                            /* J = -2: 18 */
(PID.TID 0000.0001) OBCS_CHECK: end summary.
(PID.TID 0000.0001) OBCS_CHECK: #define ALLOW_ORLANSKI
(PID.TID 0000.0001) OBCS_CHECK: OK
(PID.TID 0000.0001) GAD_CHECK: #define ALLOW_GENERIC_ADVDIFF
(PID.TID 0000.0001) // =======================================================
(PID.TID 0000.0001) // CONFIG_CHECK : Normal End
(PID.TID 0000.0001) // =======================================================
(PID.TID 0000.0001) 
(PID.TID 0000.0001)  MDS_READ_FIELD: opening global file: T.init
(PID.TID 0000.0001) Start initial hydrostatic pressure computation
(PID.TID 0000.0001) Pressure is predetermined for buoyancyRelation OCEANIC
(PID.TID 0000.0001) 
(PID.TID 0000.0001)  write diagnostics summary to file ioUnit:      6
Iter.Nb:         0 ; Time(s):  0.0000000000000E+00
------------------------------------------------------------------------
2D/3D diagnostics: Number of lists:     1
------------------------------------------------------------------------
listId=    1 ; file name: visc
 nFlds, nActive,       freq     &     phase        , nLev               
    1  |    1  |      3000.000000         0.000000 |  25
 levels:   1   2   3   4   5   6   7   8   9  10  11  12  13  14  15  16  17  18  19  20  21  22  23  24  25
 diag# | name   |   ipt  |  iMate | kLev|   count |   mate.C|           
   114 |VISCA4D |      1 |      0 |  25 |       0 |
------------------------------------------------------------------------
Global & Regional Statistics diagnostics: Number of lists:     0
------------------------------------------------------------------------
(PID.TID 0000.0001) // =======================================================
(PID.TID 0000.0001) // Model current state
(PID.TID 0000.0001) // =======================================================
(PID.TID 0000.0001) 
(PID.TID 0000.0001) // =======================================================
(PID.TID 0000.0001) // Begin MONITOR dynamic field statistics
(PID.TID 0000.0001) // =======================================================
(PID.TID 0000.0001) %MON time_tsnumber                =                     0
(PID.TID 0000.0001) %MON time_secondsf                =   0.0000000000000E+00
(PID.TID 0000.0001) %MON dynstat_eta_max              =   0.0000000000000E+00
(PID.TID 0000.0001) %MON dynstat_eta_min              =   0.0000000000000E+00
(PID.TID 0000.0001) %MON dynstat_eta_mean             =   0.0000000000000E+00
(PID.TID 0000.0001) %MON dynstat_eta_sd               =   0.0000000000000E+00
(PID.TID 0000.0001) %MON dynstat_eta_del2             =   0.0000000000000E+00
(PID.TID 0000.0001) %MON dynstat_uvel_max             =   0.0000000000000E+00
(PID.TID 0000.0001) %MON dynstat_uvel_min             =   0.0000000000000E+00
(PID.TID 0000.0001) %MON dynstat_uvel_mean            =   0.0000000000000E+00
(PID.TID 0000.0001) %MON dynstat_uvel_sd              =   0.0000000000000E+00
(PID.TID 0000.0001) %MON dynstat_uvel_del2            =   1.2612882769450E-06
(PID.TID 0000.0001) %MON dynstat_vvel_max             =   0.0000000000000E+00
(PID.TID 0000.0001) %MON dynstat_vvel_min             =   0.0000000000000E+00
(PID.TID 0000.0001) %MON dynstat_vvel_mean            =   0.0000000000000E+00
(PID.TID 0000.0001) %MON dynstat_vvel_sd              =   0.0000000000000E+00
(PID.TID 0000.0001) %MON dynstat_vvel_del2            =   2.9029628315641E-05
(PID.TID 0000.0001) %MON dynstat_wvel_max             =   4.8654875667578E-02
(PID.TID 0000.0001) %MON dynstat_wvel_min             =  -2.3098842463919E-03
(PID.TID 0000.0001) %MON dynstat_wvel_mean            =  -3.3680397589145E-06
(PID.TID 0000.0001) %MON dynstat_wvel_sd              =   2.3990874705210E-04
(PID.TID 0000.0001) %MON dynstat_wvel_del2            =   1.8498228861197E-06
(PID.TID 0000.0001) %MON dynstat_theta_max            =  -1.9417475728155E-01
(PID.TID 0000.0001) %MON dynstat_theta_min            =  -9.5145631067961E+00
(PID.TID 0000.0001) %MON dynstat_theta_mean           =  -4.1286966537604E+00
(PID.TID 0000.0001) %MON dynstat_theta_sd             =   2.6831487372247E+00
(PID.TID 0000.0001) %MON dynstat_theta_del2           =   2.1873901983804E-04
(PID.TID 0000.0001) %MON dynstat_salt_max             =   1.0000000000000E+00
(PID.TID 0000.0001) %MON dynstat_salt_min             =   1.0000000000000E+00
(PID.TID 0000.0001) %MON dynstat_salt_mean            =   1.0000000000000E+00
(PID.TID 0000.0001) %MON dynstat_salt_sd              =   0.0000000000000E+00
(PID.TID 0000.0001) %MON dynstat_salt_del2            =   2.7262958800310E-05
(PID.TID 0000.0001) %MON advcfl_uvel_max              =   1.9249035386599E-04
(PID.TID 0000.0001) %MON advcfl_vvel_max              =   5.8180274573569E-02
(PID.TID 0000.0001) %MON advcfl_wvel_max              =   2.0272864861491E-01
(PID.TID 0000.0001) %MON advcfl_W_hf_max              =   1.0136432430745E-01
(PID.TID 0000.0001) %MON pe_b_mean                    =   0.0000000000000E+00
(PID.TID 0000.0001) %MON ke_max                       =   9.4026232565235E-01
(PID.TID 0000.0001) %MON ke_mean                      =   2.2103614110540E-05
(PID.TID 0000.0001) %MON ke_vol                       =   2.7059236822588E+15
(PID.TID 0000.0001) %MON vort_r_min                   =  -1.9393424916281E-04
(PID.TID 0000.0001) %MON vort_r_max                   =   1.0515998329668E-04
(PID.TID 0000.0001) %MON vort_a_mean                  =   1.0000000000000E-04
(PID.TID 0000.0001) %MON vort_a_sd                    =   7.5827304922450E-07
(PID.TID 0000.0001) %MON vort_p_mean                  =   1.1277618388223E-04
(PID.TID 0000.0001) %MON vort_p_sd                    =   7.1145626930679E-05
(PID.TID 0000.0001) %MON surfExpan_theta_mean         =  -6.8963694564649E-22
(PID.TID 0000.0001) %MON surfExpan_salt_mean          =   3.6780637101146E-21
(PID.TID 0000.0001) // =======================================================
(PID.TID 0000.0001) // End MONITOR dynamic field statistics
(PID.TID 0000.0001) // =======================================================
(PID.TID 0000.0001) // =======================================================
(PID.TID 0000.0001) // Begin OBCS MONITOR field statistics
(PID.TID 0000.0001) // =======================================================
(PID.TID 0000.0001) %MON obc_time_tsnumber            =                     0
(PID.TID 0000.0001) %MON obc_time_secondsf            =   0.0000000000000E+00
(PID.TID 0000.0001) %MON obc_W_uVel_max               =  -6.4163451288665E-03
(PID.TID 0000.0001) %MON obc_W_uVel_min               =  -6.4163451288665E-03
(PID.TID 0000.0001) %MON obc_W_uVel_mean              =  -6.4163451288665E-03
(PID.TID 0000.0001) %MON obc_W_uVel_sd                =  -4.7433845046241E-20
(PID.TID 0000.0001) %MON obc_W_uVel_Int               =  -8.7149433215699E+06
(PID.TID 0000.0001) %MON obc_N_vVel_max               =   0.0000000000000E+00
(PID.TID 0000.0001) %MON obc_N_vVel_min               =  -1.9393424916281E+00
(PID.TID 0000.0001) %MON obc_N_vVel_mean              =  -1.4409628507887E-01
(PID.TID 0000.0001) %MON obc_N_vVel_sd                =   4.1964076465239E-01
(PID.TID 0000.0001) %MON obc_N_vVel_Int               =  -8.7149433215698E+06
(PID.TID 0000.0001) // =======================================================
(PID.TID 0000.0001) // End OBCS MONITOR field statistics
(PID.TID 0000.0001) // =======================================================
(PID.TID 0000.0001) SOLVE_FOR_PRESSURE: putPmEinXvector =    F
(PID.TID 0000.0001) SOLVE_FOR_PRESSURE: zeroPsNH=    F , zeroMeanPnh=    F
(PID.TID 0000.0001) SOLVE_FOR_PRESSURE: oldFreeSurfTerm =    F
 cg2d: Sum(rhs),rhsMax =  -1.55431223447522E-15  1.11768925853934E+00
(PID.TID 0000.0001)                    cg2d_init_res =    1.19602138974226E+00
(PID.TID 0000.0001)                       cg2d_iters =    85
(PID.TID 0000.0001)                         cg2d_res =    9.33398959033202E-12
(PID.TID 0000.0001) // =======================================================
(PID.TID 0000.0001) // Begin MONITOR dynamic field statistics
(PID.TID 0000.0001) // =======================================================
(PID.TID 0000.0001) %MON time_tsnumber                =                     1
(PID.TID 0000.0001) %MON time_secondsf                =   3.0000000000000E+02
(PID.TID 0000.0001) %MON dynstat_eta_max              =   3.0327513662832E+00
(PID.TID 0000.0001) %MON dynstat_eta_min              =  -1.1261747382464E-01
(PID.TID 0000.0001) %MON dynstat_eta_mean             =   7.7219274580725E-14
(PID.TID 0000.0001) %MON dynstat_eta_sd               =   5.3934360652473E-02
(PID.TID 0000.0001) %MON dynstat_eta_del2             =   1.2341695316773E-04
(PID.TID 0000.0001) %MON dynstat_uvel_max             =   2.3422014320694E-01
(PID.TID 0000.0001) %MON dynstat_uvel_min             =  -3.6268858610160E-02
(PID.TID 0000.0001) %MON dynstat_uvel_mean            =  -1.1177809042616E-04
(PID.TID 0000.0001) %MON dynstat_uvel_sd              =   2.2506353124336E-03
(PID.TID 0000.0001) %MON dynstat_uvel_del2            =   1.0090414864393E-05
(PID.TID 0000.0001) %MON dynstat_vvel_max             =   7.5697138729020E-05
(PID.TID 0000.0001) %MON dynstat_vvel_min             =  -4.3166642248890E-01
(PID.TID 0000.0001) %MON dynstat_vvel_mean            =  -8.3402649641845E-05
(PID.TID 0000.0001) %MON dynstat_vvel_sd              =   3.1224669284119E-03
(PID.TID 0000.0001) %MON dynstat_vvel_del2            =   2.1591414466687E-05
(PID.TID 0000.0001) %MON dynstat_wvel_max             =   2.8151679807212E-02
(PID.TID 0000.0001) %MON dynstat_wvel_min             =  -3.7539157941588E-04
(PID.TID 0000.0001) %MON dynstat_wvel_mean            =  -3.3680397589145E-06
(PID.TID 0000.0001) %MON dynstat_wvel_sd              =   1.2622156258929E-04
(PID.TID 0000.0001) %MON dynstat_wvel_del2            =   7.9342872427750E-07
(PID.TID 0000.0001) %MON dynstat_theta_max            =  -1.9417475728155E-01
(PID.TID 0000.0001) %MON dynstat_theta_min            =  -9.5145631067961E+00
(PID.TID 0000.0001) %MON dynstat_theta_mean           =  -4.1287011069732E+00
(PID.TID 0000.0001) %MON dynstat_theta_sd             =   2.6831419709493E+00
(PID.TID 0000.0001) %MON dynstat_theta_del2           =   2.0920568467664E-04
(PID.TID 0000.0001) %MON dynstat_salt_max             =   1.0559406994313E+00
(PID.TID 0000.0001) %MON dynstat_salt_min             =   1.0000000000000E+00
(PID.TID 0000.0001) %MON dynstat_salt_mean            =   1.0000008720292E+00
(PID.TID 0000.0001) %MON dynstat_salt_sd              =   1.8309291059491E-04
(PID.TID 0000.0001) %MON dynstat_salt_del2            =   2.6117157150174E-05
(PID.TID 0000.0001) %MON advcfl_uvel_max              =   7.0266042962083E-03
(PID.TID 0000.0001) %MON advcfl_vvel_max              =   5.8180274573569E-02
(PID.TID 0000.0001) %MON advcfl_wvel_max              =   5.8649332931692E-02
(PID.TID 0000.0001) %MON advcfl_W_hf_max              =   5.8649332931692E-02
(PID.TID 0000.0001) %MON pe_b_mean                    =   5.3086879245429E-06
(PID.TID 0000.0001) %MON ke_max                       =   9.9945221300487E-01
(PID.TID 0000.0001) %MON ke_mean                      =   2.9148899489901E-05
(PID.TID 0000.0001) %MON ke_vol                       =   2.7059236822588E+15
(PID.TID 0000.0001) %MON vort_r_min                   =  -1.9393424916281E-04
(PID.TID 0000.0001) %MON vort_r_max                   =   1.2820799600170E-04
(PID.TID 0000.0001) %MON vort_a_mean                  =   1.0000000000000E-04
(PID.TID 0000.0001) %MON vort_a_sd                    =   8.7469343399189E-07
(PID.TID 0000.0001) %MON vort_p_mean                  =   1.1277618388223E-04
(PID.TID 0000.0001) %MON vort_p_sd                    =   7.1131907584920E-05
(PID.TID 0000.0001) %MON surfExpan_theta_mean         =  -1.4097733623595E-08
(PID.TID 0000.0001) %MON surfExpan_salt_mean          =   3.0171616372034E-22
(PID.TID 0000.0001) // =======================================================
(PID.TID 0000.0001) // End MONITOR dynamic field statistics
(PID.TID 0000.0001) // =======================================================
 cg2d: Sum(rhs),rhsMax =  -1.26317345472415E-10  4.77763342720809E-01
(PID.TID 0000.0001)                    cg2d_init_res =    1.94212740046592E+00
(PID.TID 0000.0001)                       cg2d_iters =    88
(PID.TID 0000.0001)                         cg2d_res =    7.36796478897557E-12
(PID.TID 0000.0001) // =======================================================
(PID.TID 0000.0001) // Begin MONITOR dynamic field statistics
(PID.TID 0000.0001) // =======================================================
(PID.TID 0000.0001) %MON time_tsnumber                =                     2
(PID.TID 0000.0001) %MON time_secondsf                =   6.0000000000000E+02
(PID.TID 0000.0001) %MON dynstat_eta_max              =   2.3878284202276E+00
(PID.TID 0000.0001) %MON dynstat_eta_min              =  -1.2394927039548E-01
(PID.TID 0000.0001) %MON dynstat_eta_mean             =   9.7079413915104E-14
(PID.TID 0000.0001) %MON dynstat_eta_sd               =   6.8643715435585E-02
(PID.TID 0000.0001) %MON dynstat_eta_del2             =   7.1441878382252E-05
(PID.TID 0000.0001) %MON dynstat_uvel_max             =   3.3264242208504E-01
(PID.TID 0000.0001) %MON dynstat_uvel_min             =  -1.0675507821447E-01
(PID.TID 0000.0001) %MON dynstat_uvel_mean            =  -2.4042815996985E-04
(PID.TID 0000.0001) %MON dynstat_uvel_sd              =   3.8447984074047E-03
(PID.TID 0000.0001) %MON dynstat_uvel_del2            =   1.4224686990467E-05
(PID.TID 0000.0001) %MON dynstat_vvel_max             =   2.0047531600103E-04
(PID.TID 0000.0001) %MON dynstat_vvel_min             =  -5.8997337189401E-01
(PID.TID 0000.0001) %MON dynstat_vvel_mean            =  -2.0355203481762E-04
(PID.TID 0000.0001) %MON dynstat_vvel_sd              =   5.1585405533934E-03
(PID.TID 0000.0001) %MON dynstat_vvel_del2            =   2.0775205025501E-05
(PID.TID 0000.0001) %MON dynstat_wvel_max             =   2.1681422064487E-02
(PID.TID 0000.0001) %MON dynstat_wvel_min             =  -2.1497431535177E-03
(PID.TID 0000.0001) %MON dynstat_wvel_mean            =  -3.3680397589145E-06
(PID.TID 0000.0001) %MON dynstat_wvel_sd              =   9.2610306599252E-05
(PID.TID 0000.0001) %MON dynstat_wvel_del2            =   6.1875164812615E-07
(PID.TID 0000.0001) %MON dynstat_theta_max            =  -1.9417475728155E-01
(PID.TID 0000.0001) %MON dynstat_theta_min            =  -9.5145631067961E+00
(PID.TID 0000.0001) %MON dynstat_theta_mean           =  -4.1287055601938E+00
(PID.TID 0000.0001) %MON dynstat_theta_sd             =   2.6831360484785E+00
(PID.TID 0000.0001) %MON dynstat_theta_del2           =   2.0046671278544E-04
(PID.TID 0000.0001) %MON dynstat_salt_max             =   1.1100576394760E+00
(PID.TID 0000.0001) %MON dynstat_salt_min             =   1.0000000000000E+00
(PID.TID 0000.0001) %MON dynstat_salt_mean            =   1.0000017440585E+00
(PID.TID 0000.0001) %MON dynstat_salt_sd              =   3.6270603141704E-04
(PID.TID 0000.0001) %MON dynstat_salt_del2            =   2.5060501478376E-05
(PID.TID 0000.0001) %MON advcfl_uvel_max              =   9.9792726625511E-03
(PID.TID 0000.0001) %MON advcfl_vvel_max              =   5.8180274573569E-02
(PID.TID 0000.0001) %MON advcfl_wvel_max              =   4.5169629301014E-02
(PID.TID 0000.0001) %MON advcfl_W_hf_max              =   4.5169629301014E-02
(PID.TID 0000.0001) %MON pe_b_mean                    =   8.5991928838025E-06
(PID.TID 0000.0001) %MON ke_max                       =   1.0479535635527E+00
(PID.TID 0000.0001) %MON ke_mean                      =   4.1828499869962E-05
(PID.TID 0000.0001) %MON ke_vol                       =   2.7059236822588E+15
(PID.TID 0000.0001) %MON vort_r_min                   =  -1.9393424916281E-04
(PID.TID 0000.0001) %MON vort_r_max                   =   1.3540050126678E-04
(PID.TID 0000.0001) %MON vort_a_mean                  =   1.0000000000000E-04
(PID.TID 0000.0001) %MON vort_a_sd                    =   9.6557053747116E-07
(PID.TID 0000.0001) %MON vort_p_mean                  =   1.1277618388223E-04
(PID.TID 0000.0001) %MON vort_p_sd                    =   7.1124457709014E-05
(PID.TID 0000.0001) %MON surfExpan_theta_mean         =  -2.9342960070992E-09
(PID.TID 0000.0001) %MON surfExpan_salt_mean          =  -5.1683782873462E-15
(PID.TID 0000.0001) // =======================================================
(PID.TID 0000.0001) // End MONITOR dynamic field statistics
(PID.TID 0000.0001) // =======================================================
 cg2d: Sum(rhs),rhsMax =  -3.50423023931512E-10  2.16504222945810E-01
(PID.TID 0000.0001)                    cg2d_init_res =    2.28028252034880E+00
(PID.TID 0000.0001)                       cg2d_iters =    89
(PID.TID 0000.0001)                         cg2d_res =    7.33782418442027E-12
(PID.TID 0000.0001) // =======================================================
(PID.TID 0000.0001) // Begin MONITOR dynamic field statistics
(PID.TID 0000.0001) // =======================================================
(PID.TID 0000.0001) %MON time_tsnumber                =                     3
(PID.TID 0000.0001) %MON time_secondsf                =   9.0000000000000E+02
(PID.TID 0000.0001) %MON dynstat_eta_max              =   1.4897024580169E+00
(PID.TID 0000.0001) %MON dynstat_eta_min              =  -1.2516013001149E-01
(PID.TID 0000.0001) %MON dynstat_eta_mean             =   1.0939261228654E-13
(PID.TID 0000.0001) %MON dynstat_eta_sd               =   7.2213682958865E-02
(PID.TID 0000.0001) %MON dynstat_eta_del2             =   6.3577171890394E-05
(PID.TID 0000.0001) %MON dynstat_uvel_max             =   3.5528500968664E-01
(PID.TID 0000.0001) %MON dynstat_uvel_min             =  -1.7540183472283E-01
(PID.TID 0000.0001) %MON dynstat_uvel_mean            =  -3.8885613388427E-04
(PID.TID 0000.0001) %MON dynstat_uvel_sd              =   4.7070843828778E-03
(PID.TID 0000.0001) %MON dynstat_uvel_del2            =   1.5190530169576E-05
(PID.TID 0000.0001) %MON dynstat_vvel_max             =   2.1095583077561E-04
(PID.TID 0000.0001) %MON dynstat_vvel_min             =  -6.3306525835325E-01
(PID.TID 0000.0001) %MON dynstat_vvel_mean            =  -3.5883417225935E-04
(PID.TID 0000.0001) %MON dynstat_vvel_sd              =   6.4062277690049E-03
(PID.TID 0000.0001) %MON dynstat_vvel_del2            =   2.0724780447433E-05
(PID.TID 0000.0001) %MON dynstat_wvel_max             =   2.1061795781302E-02
(PID.TID 0000.0001) %MON dynstat_wvel_min             =  -3.0377323812802E-03
(PID.TID 0000.0001) %MON dynstat_wvel_mean            =  -3.3680397589144E-06
(PID.TID 0000.0001) %MON dynstat_wvel_sd              =   8.7060753628475E-05
(PID.TID 0000.0001) %MON dynstat_wvel_del2            =   6.1110932439662E-07
(PID.TID 0000.0001) %MON dynstat_theta_max            =  -1.9417475728155E-01
(PID.TID 0000.0001) %MON dynstat_theta_min            =  -9.5145631067961E+00
(PID.TID 0000.0001) %MON dynstat_theta_mean           =  -4.1287100138893E+00
(PID.TID 0000.0001) %MON dynstat_theta_sd             =   2.6831309072483E+00
(PID.TID 0000.0001) %MON dynstat_theta_del2           =   1.9253991499948E-04
(PID.TID 0000.0001) %MON dynstat_salt_max             =   1.1622223746644E+00
(PID.TID 0000.0001) %MON dynstat_salt_min             =   1.0000000000000E+00
(PID.TID 0000.0001) %MON dynstat_salt_mean            =   1.0000026160877E+00
(PID.TID 0000.0001) %MON dynstat_salt_sd              =   5.3859980535267E-04
(PID.TID 0000.0001) %MON dynstat_salt_del2            =   2.4097817896034E-05
(PID.TID 0000.0001) %MON advcfl_uvel_max              =   1.0658550290599E-02
(PID.TID 0000.0001) %MON advcfl_vvel_max              =   5.8180274573569E-02
(PID.TID 0000.0001) %MON advcfl_wvel_max              =   4.3878741211046E-02
(PID.TID 0000.0001) %MON advcfl_W_hf_max              =   4.3878741211046E-02
(PID.TID 0000.0001) %MON pe_b_mean                    =   9.5168914518104E-06
(PID.TID 0000.0001) %MON ke_max                       =   1.0599542699485E+00
(PID.TID 0000.0001) %MON ke_mean                      =   5.2267502836748E-05
(PID.TID 0000.0001) %MON ke_vol                       =   2.7059236822588E+15
(PID.TID 0000.0001) %MON vort_r_min                   =  -1.9393424916281E-04
(PID.TID 0000.0001) %MON vort_r_max                   =   1.3538632951710E-04
(PID.TID 0000.0001) %MON vort_a_mean                  =   1.0000000000000E-04
(PID.TID 0000.0001) %MON vort_a_sd                    =   1.0045673845692E-06
(PID.TID 0000.0001) %MON vort_p_mean                  =   1.1277618388223E-04
(PID.TID 0000.0001) %MON vort_p_sd                    =   7.1120303485795E-05
(PID.TID 0000.0001) %MON surfExpan_theta_mean         =   2.3561537382398E-09
(PID.TID 0000.0001) %MON surfExpan_salt_mean          =  -2.1644623230547E-14
(PID.TID 0000.0001) // =======================================================
(PID.TID 0000.0001) // End MONITOR dynamic field statistics
(PID.TID 0000.0001) // =======================================================
 cg2d: Sum(rhs),rhsMax =  -7.36624095054594E-10  1.16052785445523E-01
(PID.TID 0000.0001)                    cg2d_init_res =    2.60420095490366E+00
(PID.TID 0000.0001)                       cg2d_iters =    90
(PID.TID 0000.0001)                         cg2d_res =    7.79301880779591E-12
(PID.TID 0000.0001) // =======================================================
(PID.TID 0000.0001) // Begin MONITOR dynamic field statistics
(PID.TID 0000.0001) // =======================================================
(PID.TID 0000.0001) %MON time_tsnumber                =                     4
(PID.TID 0000.0001) %MON time_secondsf                =   1.2000000000000E+03
(PID.TID 0000.0001) %MON dynstat_eta_max              =   9.4478533430028E-01
(PID.TID 0000.0001) %MON dynstat_eta_min              =  -1.2459043427018E-01
(PID.TID 0000.0001) %MON dynstat_eta_mean             =   1.1768068250629E-13
(PID.TID 0000.0001) %MON dynstat_eta_sd               =   7.2422170658121E-02
(PID.TID 0000.0001) %MON dynstat_eta_del2             =   4.1516272724280E-05
(PID.TID 0000.0001) %MON dynstat_uvel_max             =   3.4497427533691E-01
(PID.TID 0000.0001) %MON dynstat_uvel_min             =  -2.1880982911228E-01
(PID.TID 0000.0001) %MON dynstat_uvel_mean            =  -5.5824809763826E-04
(PID.TID 0000.0001) %MON dynstat_uvel_sd              =   5.0786323654106E-03
(PID.TID 0000.0001) %MON dynstat_uvel_del2            =   1.4883495201872E-05
(PID.TID 0000.0001) %MON dynstat_vvel_max             =   1.5766990869292E-04
(PID.TID 0000.0001) %MON dynstat_vvel_min             =  -6.6145947105050E-01
(PID.TID 0000.0001) %MON dynstat_vvel_mean            =  -5.4992096929375E-04
(PID.TID 0000.0001) %MON dynstat_vvel_sd              =   7.2351592875599E-03
(PID.TID 0000.0001) %MON dynstat_vvel_del2            =   2.0508503961806E-05
(PID.TID 0000.0001) %MON dynstat_wvel_max             =   2.1353870443582E-02
(PID.TID 0000.0001) %MON dynstat_wvel_min             =  -2.0164425719815E-03
(PID.TID 0000.0001) %MON dynstat_wvel_mean            =  -3.3680523130153E-06
(PID.TID 0000.0001) %MON dynstat_wvel_sd              =   8.8053720318197E-05
(PID.TID 0000.0001) %MON dynstat_wvel_del2            =   6.0693230235699E-07
(PID.TID 0000.0001) %MON dynstat_theta_max            =  -1.9417475728155E-01
(PID.TID 0000.0001) %MON dynstat_theta_min            =  -9.5145631067961E+00
(PID.TID 0000.0001) %MON dynstat_theta_mean           =  -4.1287144677013E+00
(PID.TID 0000.0001) %MON dynstat_theta_sd             =   2.6831264904405E+00
(PID.TID 0000.0001) %MON dynstat_theta_del2           =   1.8545421943138E-04
(PID.TID 0000.0001) %MON dynstat_salt_max             =   1.2125176990250E+00
(PID.TID 0000.0001) %MON dynstat_salt_min             =   1.0000000000000E+00
(PID.TID 0000.0001) %MON dynstat_salt_mean            =   1.0000034881169E+00
(PID.TID 0000.0001) %MON dynstat_salt_sd              =   7.1081457398974E-04
(PID.TID 0000.0001) %MON dynstat_salt_del2            =   2.3232712305340E-05
(PID.TID 0000.0001) %MON advcfl_uvel_max              =   1.0349228260107E-02
(PID.TID 0000.0001) %MON advcfl_vvel_max              =   5.8180274573569E-02
(PID.TID 0000.0001) %MON advcfl_wvel_max              =   4.4487230090797E-02
(PID.TID 0000.0001) %MON advcfl_W_hf_max              =   4.4487230090797E-02
(PID.TID 0000.0001) %MON pe_b_mean                    =   9.5719231007243E-06
(PID.TID 0000.0001) %MON ke_max                       =   1.0660772732925E+00
(PID.TID 0000.0001) %MON ke_mean                      =   5.9479865050432E-05
(PID.TID 0000.0001) %MON ke_vol                       =   2.7059236822588E+15
(PID.TID 0000.0001) %MON vort_r_min                   =  -1.9393424916281E-04
(PID.TID 0000.0001) %MON vort_r_max                   =   1.3380297537511E-04
(PID.TID 0000.0001) %MON vort_a_mean                  =   9.9999999968991E-05
(PID.TID 0000.0001) %MON vort_a_sd                    =   1.0149862384205E-06
(PID.TID 0000.0001) %MON vort_p_mean                  =   1.1277618384726E-04
(PID.TID 0000.0001) %MON vort_p_sd                    =   7.1117899168198E-05
(PID.TID 0000.0001) %MON surfExpan_theta_mean         =   3.8622683611508E-09
(PID.TID 0000.0001) %MON surfExpan_salt_mean          =  -4.8324917968459E-14
(PID.TID 0000.0001) // =======================================================
(PID.TID 0000.0001) // End MONITOR dynamic field statistics
(PID.TID 0000.0001) // =======================================================
 cg2d: Sum(rhs),rhsMax =  -1.26246924025963E-09  7.28402194475019E-02
(PID.TID 0000.0001)                    cg2d_init_res =    3.06822320256758E+00
(PID.TID 0000.0001)                       cg2d_iters =    90
(PID.TID 0000.0001)                         cg2d_res =    8.36576206135112E-12
(PID.TID 0000.0001) // =======================================================
(PID.TID 0000.0001) // Begin MONITOR dynamic field statistics
(PID.TID 0000.0001) // =======================================================
(PID.TID 0000.0001) %MON time_tsnumber                =                     5
(PID.TID 0000.0001) %MON time_secondsf                =   1.5000000000000E+03
(PID.TID 0000.0001) %MON dynstat_eta_max              =   7.7182435612079E-01
(PID.TID 0000.0001) %MON dynstat_eta_min              =  -1.2276779332153E-01
(PID.TID 0000.0001) %MON dynstat_eta_mean             =   1.2264335742225E-13
(PID.TID 0000.0001) %MON dynstat_eta_sd               =   7.0954361040862E-02
(PID.TID 0000.0001) %MON dynstat_eta_del2             =   2.7619637651317E-05
(PID.TID 0000.0001) %MON dynstat_uvel_max             =   3.3023997052316E-01
(PID.TID 0000.0001) %MON dynstat_uvel_min             =  -2.3774925548915E-01
(PID.TID 0000.0001) %MON dynstat_uvel_mean            =  -7.4408400552998E-04
(PID.TID 0000.0001) %MON dynstat_uvel_sd              =   5.2229344926936E-03
(PID.TID 0000.0001) %MON dynstat_uvel_del2            =   1.4159934515448E-05
(PID.TID 0000.0001) %MON dynstat_vvel_max             =   1.3198905169356E-04
(PID.TID 0000.0001) %MON dynstat_vvel_min             =  -6.9427205275095E-01
(PID.TID 0000.0001) %MON dynstat_vvel_mean            =  -7.7283326656834E-04
(PID.TID 0000.0001) %MON dynstat_vvel_sd              =   7.8015473044946E-03
(PID.TID 0000.0001) %MON dynstat_vvel_del2            =   2.0070441783540E-05
(PID.TID 0000.0001) %MON dynstat_wvel_max             =   2.1474156309847E-02
(PID.TID 0000.0001) %MON dynstat_wvel_min             =  -1.7988308365171E-03
(PID.TID 0000.0001) %MON dynstat_wvel_mean            =  -3.3680293712186E-06
(PID.TID 0000.0001) %MON dynstat_wvel_sd              =   8.9671721498284E-05
(PID.TID 0000.0001) %MON dynstat_wvel_del2            =   5.9365924538530E-07
(PID.TID 0000.0001) %MON dynstat_theta_max            =  -1.9417475728155E-01
(PID.TID 0000.0001) %MON dynstat_theta_min            =  -9.5145631067961E+00
(PID.TID 0000.0001) %MON dynstat_theta_mean           =  -4.1287189215368E+00
(PID.TID 0000.0001) %MON dynstat_theta_sd             =   2.6831227503629E+00
(PID.TID 0000.0001) %MON dynstat_theta_del2           =   1.7923136133059E-04
(PID.TID 0000.0001) %MON dynstat_salt_max             =   1.2611251560046E+00
(PID.TID 0000.0001) %MON dynstat_salt_min             =   1.0000000000000E+00
(PID.TID 0000.0001) %MON dynstat_salt_mean            =   1.0000043601462E+00
(PID.TID 0000.0001) %MON dynstat_salt_sd              =   8.7960867118932E-04
(PID.TID 0000.0001) %MON dynstat_salt_del2            =   2.2467478506432E-05
(PID.TID 0000.0001) %MON advcfl_uvel_max              =   9.9071991156949E-03
(PID.TID 0000.0001) %MON advcfl_vvel_max              =   5.8180274573569E-02
(PID.TID 0000.0001) %MON advcfl_wvel_max              =   4.4737825645514E-02
(PID.TID 0000.0001) %MON advcfl_W_hf_max              =   4.4737825645514E-02
(PID.TID 0000.0001) %MON pe_b_mean                    =   9.1878588136236E-06
(PID.TID 0000.0001) %MON ke_max                       =   1.0745259539533E+00
(PID.TID 0000.0001) %MON ke_mean                      =   6.4428698303352E-05
(PID.TID 0000.0001) %MON ke_vol                       =   2.7059236822588E+15
(PID.TID 0000.0001) %MON vort_r_min                   =  -1.9393424916281E-04
(PID.TID 0000.0001) %MON vort_r_max                   =   1.3224534129029E-04
(PID.TID 0000.0001) %MON vort_a_mean                  =   9.9999999938346E-05
(PID.TID 0000.0001) %MON vort_a_sd                    =   1.0136786940421E-06
(PID.TID 0000.0001) %MON vort_p_mean                  =   1.1277618381270E-04
(PID.TID 0000.0001) %MON vort_p_sd                    =   7.1116112446580E-05
(PID.TID 0000.0001) %MON surfExpan_theta_mean         =   4.0442013259342E-09
(PID.TID 0000.0001) %MON surfExpan_salt_mean          =  -8.7552271323631E-14
(PID.TID 0000.0001) // =======================================================
(PID.TID 0000.0001) // End MONITOR dynamic field statistics
(PID.TID 0000.0001) // =======================================================
 cg2d: Sum(rhs),rhsMax =  -1.55289114900370E-09  6.17201441621493E-02
(PID.TID 0000.0001)                    cg2d_init_res =    2.93639808658094E+00
(PID.TID 0000.0001)                       cg2d_iters =    88
(PID.TID 0000.0001)                         cg2d_res =    8.56225834877160E-12
(PID.TID 0000.0001) // =======================================================
(PID.TID 0000.0001) // Begin MONITOR dynamic field statistics
(PID.TID 0000.0001) // =======================================================
(PID.TID 0000.0001) %MON time_tsnumber                =                     6
(PID.TID 0000.0001) %MON time_secondsf                =   1.8000000000000E+03
(PID.TID 0000.0001) %MON dynstat_eta_max              =   6.3521132282126E-01
(PID.TID 0000.0001) %MON dynstat_eta_min              =  -1.2007749489685E-01
(PID.TID 0000.0001) %MON dynstat_eta_mean             =   1.1613907576425E-13
(PID.TID 0000.0001) %MON dynstat_eta_sd               =   6.8289913320586E-02
(PID.TID 0000.0001) %MON dynstat_eta_del2             =   2.0853801250080E-05
(PID.TID 0000.0001) %MON dynstat_uvel_max             =   3.1939925221764E-01
(PID.TID 0000.0001) %MON dynstat_uvel_min             =  -2.4275563880397E-01
(PID.TID 0000.0001) %MON dynstat_uvel_mean            =  -9.4243749824257E-04
(PID.TID 0000.0001) %MON dynstat_uvel_sd              =   5.3264496664099E-03
(PID.TID 0000.0001) %MON dynstat_uvel_del2            =   1.3472642921317E-05
(PID.TID 0000.0001) %MON dynstat_vvel_max             =   2.1003892183086E-04
(PID.TID 0000.0001) %MON dynstat_vvel_min             =  -7.3069268604888E-01
(PID.TID 0000.0001) %MON dynstat_vvel_mean            =  -1.0186536920571E-03
(PID.TID 0000.0001) %MON dynstat_vvel_sd              =   8.1662937395757E-03
(PID.TID 0000.0001) %MON dynstat_vvel_del2            =   1.9505712077441E-05
(PID.TID 0000.0001) %MON dynstat_wvel_max             =   2.1371532702306E-02
(PID.TID 0000.0001) %MON dynstat_wvel_min             =  -1.8102319221138E-03
(PID.TID 0000.0001) %MON dynstat_wvel_mean            =  -3.3679904822045E-06
(PID.TID 0000.0001) %MON dynstat_wvel_sd              =   9.1079846065702E-05
(PID.TID 0000.0001) %MON dynstat_wvel_del2            =   5.7556136072965E-07
(PID.TID 0000.0001) %MON dynstat_theta_max            =  -1.9417475728155E-01
(PID.TID 0000.0001) %MON dynstat_theta_min            =  -9.5145631067961E+00
(PID.TID 0000.0001) %MON dynstat_theta_mean           =  -4.1287233753735E+00
(PID.TID 0000.0001) %MON dynstat_theta_sd             =   2.6831196455479E+00
(PID.TID 0000.0001) %MON dynstat_theta_del2           =   1.7388624794811E-04
(PID.TID 0000.0001) %MON dynstat_salt_max             =   1.3082288947485E+00
(PID.TID 0000.0001) %MON dynstat_salt_min             =   1.0000000000000E+00
(PID.TID 0000.0001) %MON dynstat_salt_mean            =   1.0000052321754E+00
(PID.TID 0000.0001) %MON dynstat_salt_sd              =   1.0452615109545E-03
(PID.TID 0000.0001) %MON dynstat_salt_del2            =   2.1803810860618E-05
(PID.TID 0000.0001) %MON advcfl_uvel_max              =   9.5819775665293E-03
(PID.TID 0000.0001) %MON advcfl_vvel_max              =   5.8180274573569E-02
(PID.TID 0000.0001) %MON advcfl_wvel_max              =   4.4524026463138E-02
(PID.TID 0000.0001) %MON advcfl_W_hf_max              =   4.4524026463138E-02
(PID.TID 0000.0001) %MON pe_b_mean                    =   8.5107777379134E-06
(PID.TID 0000.0001) %MON ke_max                       =   1.0854694302150E+00
(PID.TID 0000.0001) %MON ke_mean                      =   6.8044907793207E-05
(PID.TID 0000.0001) %MON ke_vol                       =   2.7059236822588E+15
(PID.TID 0000.0001) %MON vort_r_min                   =  -1.9393424916281E-04
(PID.TID 0000.0001) %MON vort_r_max                   =   1.3099258390770E-04
(PID.TID 0000.0001) %MON vort_a_mean                  =   9.9999999901598E-05
(PID.TID 0000.0001) %MON vort_a_sd                    =   1.0094165585725E-06
(PID.TID 0000.0001) %MON vort_p_mean                  =   1.1277618377125E-04
(PID.TID 0000.0001) %MON vort_p_sd                    =   7.1113876958082E-05
(PID.TID 0000.0001) %MON surfExpan_theta_mean         =   3.7460968997787E-09
(PID.TID 0000.0001) %MON surfExpan_salt_mean          =  -1.2720957653378E-13
(PID.TID 0000.0001) // =======================================================
(PID.TID 0000.0001) // End MONITOR dynamic field statistics
(PID.TID 0000.0001) // =======================================================
 cg2d: Sum(rhs),rhsMax =  -1.54857815459764E-09  5.86017773912163E-02
(PID.TID 0000.0001)                    cg2d_init_res =    2.94266991219800E+00
(PID.TID 0000.0001)                       cg2d_iters =    90
(PID.TID 0000.0001)                         cg2d_res =    8.13782354709493E-12
(PID.TID 0000.0001) // =======================================================
(PID.TID 0000.0001) // Begin MONITOR dynamic field statistics
(PID.TID 0000.0001) // =======================================================
(PID.TID 0000.0001) %MON time_tsnumber                =                     7
(PID.TID 0000.0001) %MON time_secondsf                =   2.1000000000000E+03
(PID.TID 0000.0001) %MON dynstat_eta_max              =   3.9098702550552E-01
(PID.TID 0000.0001) %MON dynstat_eta_min              =  -1.1699530871409E-01
(PID.TID 0000.0001) %MON dynstat_eta_mean             =   1.0893992910243E-13
(PID.TID 0000.0001) %MON dynstat_eta_sd               =   6.5778858188704E-02
(PID.TID 0000.0001) %MON dynstat_eta_del2             =   1.5676534064350E-05
(PID.TID 0000.0001) %MON dynstat_uvel_max             =   3.1374599451840E-01
(PID.TID 0000.0001) %MON dynstat_uvel_min             =  -2.4219356657205E-01
(PID.TID 0000.0001) %MON dynstat_uvel_mean            =  -1.1538113830568E-03
(PID.TID 0000.0001) %MON dynstat_uvel_sd              =   5.4463648577455E-03
(PID.TID 0000.0001) %MON dynstat_uvel_del2            =   1.2990984414763E-05
(PID.TID 0000.0001) %MON dynstat_vvel_max             =   3.8137297273554E-04
(PID.TID 0000.0001) %MON dynstat_vvel_min             =  -7.6933383305141E-01
(PID.TID 0000.0001) %MON dynstat_vvel_mean            =  -1.2740751096713E-03
(PID.TID 0000.0001) %MON dynstat_vvel_sd              =   8.3570797598873E-03
(PID.TID 0000.0001) %MON dynstat_vvel_del2            =   1.8869964786615E-05
(PID.TID 0000.0001) %MON dynstat_wvel_max             =   2.1095816877302E-02
(PID.TID 0000.0001) %MON dynstat_wvel_min             =  -1.7598785068736E-03
(PID.TID 0000.0001) %MON dynstat_wvel_mean            =  -3.3678774867569E-06
(PID.TID 0000.0001) %MON dynstat_wvel_sd              =   9.1900991294649E-05
(PID.TID 0000.0001) %MON dynstat_wvel_del2            =   5.5432940204399E-07
(PID.TID 0000.0001) %MON dynstat_theta_max            =  -1.9417475728155E-01
(PID.TID 0000.0001) %MON dynstat_theta_min            =  -9.5145631067961E+00
(PID.TID 0000.0001) %MON dynstat_theta_mean           =  -4.1287278292640E+00
(PID.TID 0000.0001) %MON dynstat_theta_sd             =   2.6831171421447E+00
(PID.TID 0000.0001) %MON dynstat_theta_del2           =   1.6942765462824E-04
(PID.TID 0000.0001) %MON dynstat_salt_max             =   1.3540009737279E+00
(PID.TID 0000.0001) %MON dynstat_salt_min             =   1.0000000000000E+00
(PID.TID 0000.0001) %MON dynstat_salt_mean            =   1.0000061042047E+00
(PID.TID 0000.0001) %MON dynstat_salt_sd              =   1.2080416177708E-03
(PID.TID 0000.0001) %MON dynstat_salt_del2            =   2.1242846832800E-05
(PID.TID 0000.0001) %MON advcfl_uvel_max              =   9.4123798355521E-03
(PID.TID 0000.0001) %MON advcfl_vvel_max              =   5.8180274573569E-02
(PID.TID 0000.0001) %MON advcfl_wvel_max              =   4.3949618494380E-02
(PID.TID 0000.0001) %MON advcfl_W_hf_max              =   4.3949618494380E-02
(PID.TID 0000.0001) %MON pe_b_mean                    =   7.8963935868706E-06
(PID.TID 0000.0001) %MON ke_max                       =   1.0984574373573E+00
(PID.TID 0000.0001) %MON ke_mean                      =   7.0639957742201E-05
(PID.TID 0000.0001) %MON ke_vol                       =   2.7059236822588E+15
(PID.TID 0000.0001) %MON vort_r_min                   =  -1.9393424916281E-04
(PID.TID 0000.0001) %MON vort_r_max                   =   1.3004235970369E-04
(PID.TID 0000.0001) %MON vort_a_mean                  =   9.9999999859572E-05
(PID.TID 0000.0001) %MON vort_a_sd                    =   1.0052078181690E-06
(PID.TID 0000.0001) %MON vort_p_mean                  =   1.1277618372386E-04
(PID.TID 0000.0001) %MON vort_p_sd                    =   7.1110358187109E-05
(PID.TID 0000.0001) %MON surfExpan_theta_mean         =   3.3720201951246E-09
(PID.TID 0000.0001) %MON surfExpan_salt_mean          =  -1.6074796852128E-13
(PID.TID 0000.0001) // =======================================================
(PID.TID 0000.0001) // End MONITOR dynamic field statistics
(PID.TID 0000.0001) // =======================================================
 cg2d: Sum(rhs),rhsMax =  -1.45001166629299E-09  5.87199186932294E-02
(PID.TID 0000.0001)                    cg2d_init_res =    2.84455135202099E+00
(PID.TID 0000.0001)                       cg2d_iters =    90
(PID.TID 0000.0001)                         cg2d_res =    9.73137844099633E-12
(PID.TID 0000.0001) // =======================================================
(PID.TID 0000.0001) // Begin MONITOR dynamic field statistics
(PID.TID 0000.0001) // =======================================================
(PID.TID 0000.0001) %MON time_tsnumber                =                     8
(PID.TID 0000.0001) %MON time_secondsf                =   2.4000000000000E+03
(PID.TID 0000.0001) %MON dynstat_eta_max              =   2.6522919364576E-01
(PID.TID 0000.0001) %MON dynstat_eta_min              =  -1.1399764792534E-01
(PID.TID 0000.0001) %MON dynstat_eta_mean             =   9.9593668523936E-14
(PID.TID 0000.0001) %MON dynstat_eta_sd               =   6.4823158235195E-02
(PID.TID 0000.0001) %MON dynstat_eta_del2             =   1.3771675514144E-05
(PID.TID 0000.0001) %MON dynstat_uvel_max             =   3.1380159384201E-01
(PID.TID 0000.0001) %MON dynstat_uvel_min             =  -2.3969321075532E-01
(PID.TID 0000.0001) %MON dynstat_uvel_mean            =  -1.3835372589875E-03
(PID.TID 0000.0001) %MON dynstat_uvel_sd              =   5.5595946269890E-03
(PID.TID 0000.0001) %MON dynstat_uvel_del2            =   1.2709957001177E-05
(PID.TID 0000.0001) %MON dynstat_vvel_max             =   6.1025943063780E-04
(PID.TID 0000.0001) %MON dynstat_vvel_min             =  -8.0978723447280E-01
(PID.TID 0000.0001) %MON dynstat_vvel_mean            =  -1.5218758672041E-03
(PID.TID 0000.0001) %MON dynstat_vvel_sd              =   8.4003866091905E-03
(PID.TID 0000.0001) %MON dynstat_vvel_del2            =   1.8190382191740E-05
(PID.TID 0000.0001) %MON dynstat_wvel_max             =   2.0682103590589E-02
(PID.TID 0000.0001) %MON dynstat_wvel_min             =  -1.6991066584949E-03
(PID.TID 0000.0001) %MON dynstat_wvel_mean            =  -3.3676903687417E-06
(PID.TID 0000.0001) %MON dynstat_wvel_sd              =   9.1835518287416E-05
(PID.TID 0000.0001) %MON dynstat_wvel_del2            =   5.3036815676155E-07
(PID.TID 0000.0001) %MON dynstat_theta_max            =  -1.9417475728155E-01
(PID.TID 0000.0001) %MON dynstat_theta_min            =  -9.5145631067961E+00
(PID.TID 0000.0001) %MON dynstat_theta_mean           =  -4.1287322832750E+00
(PID.TID 0000.0001) %MON dynstat_theta_sd             =   2.6831151537608E+00
(PID.TID 0000.0001) %MON dynstat_theta_del2           =   1.6583892355374E-04
(PID.TID 0000.0001) %MON dynstat_salt_max             =   1.3979055896895E+00
(PID.TID 0000.0001) %MON dynstat_salt_min             =   1.0000000000000E+00
(PID.TID 0000.0001) %MON dynstat_salt_mean            =   1.0000069762339E+00
(PID.TID 0000.0001) %MON dynstat_salt_sd              =   1.3669939577317E-03
(PID.TID 0000.0001) %MON dynstat_salt_del2            =   2.0783495688340E-05
(PID.TID 0000.0001) %MON advcfl_uvel_max              =   9.4140478152602E-03
(PID.TID 0000.0001) %MON advcfl_vvel_max              =   5.8180274573569E-02
(PID.TID 0000.0001) %MON advcfl_wvel_max              =   4.3087715813727E-02
(PID.TID 0000.0001) %MON advcfl_W_hf_max              =   4.3087715813727E-02
(PID.TID 0000.0001) %MON pe_b_mean                    =   7.6686073011292E-06
(PID.TID 0000.0001) %MON ke_max                       =   1.1133112075722E+00
(PID.TID 0000.0001) %MON ke_mean                      =   7.2204056959036E-05
(PID.TID 0000.0001) %MON ke_vol                       =   2.7059236822588E+15
(PID.TID 0000.0001) %MON vort_r_min                   =  -1.9393424916281E-04
(PID.TID 0000.0001) %MON vort_r_max                   =   1.2933619523660E-04
(PID.TID 0000.0001) %MON vort_a_mean                  =   9.9999999812932E-05
(PID.TID 0000.0001) %MON vort_a_sd                    =   1.0016755058665E-06
(PID.TID 0000.0001) %MON vort_p_mean                  =   1.1277618367126E-04
(PID.TID 0000.0001) %MON vort_p_sd                    =   7.1105236266128E-05
(PID.TID 0000.0001) %MON surfExpan_theta_mean         =   3.0676488949812E-09
(PID.TID 0000.0001) %MON surfExpan_salt_mean          =  -2.1055203785626E-13
(PID.TID 0000.0001) // =======================================================
(PID.TID 0000.0001) // End MONITOR dynamic field statistics
(PID.TID 0000.0001) // =======================================================
 cg2d: Sum(rhs),rhsMax =  -1.34581767952113E-09  5.78315049038625E-02
(PID.TID 0000.0001)                    cg2d_init_res =    2.67916410789455E+00
(PID.TID 0000.0001)                       cg2d_iters =    91
(PID.TID 0000.0001)                         cg2d_res =    8.52919299603061E-12
(PID.TID 0000.0001) // =======================================================
(PID.TID 0000.0001) // Begin MONITOR dynamic field statistics
(PID.TID 0000.0001) // =======================================================
(PID.TID 0000.0001) %MON time_tsnumber                =                     9
(PID.TID 0000.0001) %MON time_secondsf                =   2.7000000000000E+03
(PID.TID 0000.0001) %MON dynstat_eta_max              =   2.2688135074156E-01
(PID.TID 0000.0001) %MON dynstat_eta_min              =  -1.1134657513711E-01
(PID.TID 0000.0001) %MON dynstat_eta_mean             =   9.2349474570142E-14
(PID.TID 0000.0001) %MON dynstat_eta_sd               =   6.5795817504714E-02
(PID.TID 0000.0001) %MON dynstat_eta_del2             =   1.4702294872853E-05
(PID.TID 0000.0001) %MON dynstat_uvel_max             =   3.1509781198494E-01
(PID.TID 0000.0001) %MON dynstat_uvel_min             =  -2.3603099072218E-01
(PID.TID 0000.0001) %MON dynstat_uvel_mean            =  -1.6395551242197E-03
(PID.TID 0000.0001) %MON dynstat_uvel_sd              =   5.6298541846998E-03
(PID.TID 0000.0001) %MON dynstat_uvel_del2            =   1.2562361803113E-05
(PID.TID 0000.0001) %MON dynstat_vvel_max             =   8.0690727889686E-04
(PID.TID 0000.0001) %MON dynstat_vvel_min             =  -8.5179251360170E-01
(PID.TID 0000.0001) %MON dynstat_vvel_mean            =  -1.7419711099464E-03
(PID.TID 0000.0001) %MON dynstat_vvel_sd              =   8.3292664335293E-03
(PID.TID 0000.0001) %MON dynstat_vvel_del2            =   1.7491184467590E-05
(PID.TID 0000.0001) %MON dynstat_wvel_max             =   2.0167487967915E-02
(PID.TID 0000.0001) %MON dynstat_wvel_min             =  -1.6415161372818E-03
(PID.TID 0000.0001) %MON dynstat_wvel_mean            =  -3.3674315394003E-06
(PID.TID 0000.0001) %MON dynstat_wvel_sd              =   9.0984914439685E-05
(PID.TID 0000.0001) %MON dynstat_wvel_del2            =   5.0441393150325E-07
(PID.TID 0000.0001) %MON dynstat_theta_max            =  -1.9417475728155E-01
(PID.TID 0000.0001) %MON dynstat_theta_min            =  -9.5145631067961E+00
(PID.TID 0000.0001) %MON dynstat_theta_mean           =  -4.1287367374659E+00
(PID.TID 0000.0001) %MON dynstat_theta_sd             =   2.6831135711583E+00
(PID.TID 0000.0001) %MON dynstat_theta_del2           =   1.6303916376833E-04
(PID.TID 0000.0001) %MON dynstat_salt_max             =   1.4392011161403E+00
(PID.TID 0000.0001) %MON dynstat_salt_min             =   1.0000000000000E+00
(PID.TID 0000.0001) %MON dynstat_salt_mean            =   1.0000078482632E+00
(PID.TID 0000.0001) %MON dynstat_salt_sd              =   1.5205403606534E-03
(PID.TID 0000.0001) %MON dynstat_salt_del2            =   2.0417709963102E-05
(PID.TID 0000.0001) %MON advcfl_uvel_max              =   9.4529343595481E-03
(PID.TID 0000.0001) %MON advcfl_vvel_max              =   5.8180274573569E-02
(PID.TID 0000.0001) %MON advcfl_wvel_max              =   4.2015599933155E-02
(PID.TID 0000.0001) %MON advcfl_W_hf_max              =   4.2015599933155E-02
(PID.TID 0000.0001) %MON pe_b_mean                    =   7.9004658587642E-06
(PID.TID 0000.0001) %MON ke_max                       =   1.1298938532509E+00
(PID.TID 0000.0001) %MON ke_mean                      =   7.2757030415481E-05
(PID.TID 0000.0001) %MON ke_vol                       =   2.7059236822588E+15
(PID.TID 0000.0001) %MON vort_r_min                   =  -1.9393424916281E-04
(PID.TID 0000.0001) %MON vort_r_max                   =   1.2879355116253E-04
(PID.TID 0000.0001) %MON vort_a_mean                  =   9.9999999760644E-05
(PID.TID 0000.0001) %MON vort_a_sd                    =   9.9889430936056E-07
(PID.TID 0000.0001) %MON vort_p_mean                  =   1.1277618361229E-04
(PID.TID 0000.0001) %MON vort_p_sd                    =   7.1098682252428E-05
(PID.TID 0000.0001) %MON surfExpan_theta_mean         =   2.7803879744220E-09
(PID.TID 0000.0001) %MON surfExpan_salt_mean          =  -3.0402707988534E-13
(PID.TID 0000.0001) // =======================================================
(PID.TID 0000.0001) // End MONITOR dynamic field statistics
(PID.TID 0000.0001) // =======================================================
 cg2d: Sum(rhs),rhsMax =  -1.30884814097953E-09  5.51445709060842E-02
(PID.TID 0000.0001)                    cg2d_init_res =    2.62387205611131E+00
(PID.TID 0000.0001)                       cg2d_iters =    91
(PID.TID 0000.0001)                         cg2d_res =    8.99216010285759E-12
(PID.TID 0000.0001) // =======================================================
(PID.TID 0000.0001) // Begin MONITOR dynamic field statistics
(PID.TID 0000.0001) // =======================================================
(PID.TID 0000.0001) %MON time_tsnumber                =                    10
(PID.TID 0000.0001) %MON time_secondsf                =   3.0000000000000E+03
(PID.TID 0000.0001) %MON dynstat_eta_max              =   1.9930565773501E-01
(PID.TID 0000.0001) %MON dynstat_eta_min              =  -1.8108002315776E-01
(PID.TID 0000.0001) %MON dynstat_eta_mean             =   8.6367867799903E-14
(PID.TID 0000.0001) %MON dynstat_eta_sd               =   6.8265108616419E-02
(PID.TID 0000.0001) %MON dynstat_eta_del2             =   1.5433428650693E-05
(PID.TID 0000.0001) %MON dynstat_uvel_max             =   3.1647843528076E-01
(PID.TID 0000.0001) %MON dynstat_uvel_min             =  -2.3123392637546E-01
(PID.TID 0000.0001) %MON dynstat_uvel_mean            =  -1.9290384302181E-03
(PID.TID 0000.0001) %MON dynstat_uvel_sd              =   5.6317761207688E-03
(PID.TID 0000.0001) %MON dynstat_uvel_del2            =   1.2469360303159E-05
(PID.TID 0000.0001) %MON dynstat_vvel_max             =   8.6441675312806E-04
(PID.TID 0000.0001) %MON dynstat_vvel_min             =  -8.9500465749175E-01
(PID.TID 0000.0001) %MON dynstat_vvel_mean            =  -1.9135553052692E-03
(PID.TID 0000.0001) %MON dynstat_vvel_sd              =   8.1788033254967E-03
(PID.TID 0000.0001) %MON dynstat_vvel_del2            =   1.6796880921259E-05
(PID.TID 0000.0001) %MON dynstat_wvel_max             =   1.9593093827671E-02
(PID.TID 0000.0001) %MON dynstat_wvel_min             =  -1.5842791482549E-03
(PID.TID 0000.0001) %MON dynstat_wvel_mean            =  -3.3671349525647E-06
(PID.TID 0000.0001) %MON dynstat_wvel_sd              =   8.9633612233442E-05
(PID.TID 0000.0001) %MON dynstat_wvel_del2            =   4.7753024146209E-07
(PID.TID 0000.0001) %MON dynstat_theta_max            =  -1.9417475728155E-01
(PID.TID 0000.0001) %MON dynstat_theta_min            =  -9.5145631067961E+00
(PID.TID 0000.0001) %MON dynstat_theta_mean           =  -4.1287411918531E+00
(PID.TID 0000.0001) %MON dynstat_theta_sd             =   2.6831123398110E+00
(PID.TID 0000.0001) %MON dynstat_theta_del2           =   1.6093639165184E-04
(PID.TID 0000.0001) %MON dynstat_salt_max             =   1.4780249869788E+00
(PID.TID 0000.0001) %MON dynstat_salt_min             =   1.0000000000000E+00
(PID.TID 0000.0001) %MON dynstat_salt_mean            =   1.0000087202924E+00
(PID.TID 0000.0001) %MON dynstat_salt_sd              =   1.6686506580263E-03
(PID.TID 0000.0001) %MON dynstat_salt_del2            =   2.0135181275158E-05
(PID.TID 0000.0001) %MON advcfl_uvel_max              =   9.4943530584227E-03
(PID.TID 0000.0001) %MON advcfl_vvel_max              =   5.8180274573569E-02
(PID.TID 0000.0001) %MON advcfl_wvel_max              =   4.0818945474314E-02
(PID.TID 0000.0001) %MON advcfl_W_hf_max              =   4.0818945474314E-02
(PID.TID 0000.0001) %MON pe_b_mean                    =   8.5045961812568E-06
(PID.TID 0000.0001) %MON ke_max                       =   1.1480285868767E+00
(PID.TID 0000.0001) %MON ke_mean                      =   7.2416396929141E-05
(PID.TID 0000.0001) %MON ke_vol                       =   2.7059236822588E+15
(PID.TID 0000.0001) %MON vort_r_min                   =  -1.9393424916281E-04
(PID.TID 0000.0001) %MON vort_r_max                   =   1.2832447292744E-04
(PID.TID 0000.0001) %MON vort_a_mean                  =   9.9999999702138E-05
(PID.TID 0000.0001) %MON vort_a_sd                    =   9.9670526932021E-07
(PID.TID 0000.0001) %MON vort_p_mean                  =   1.1277618354631E-04
(PID.TID 0000.0001) %MON vort_p_sd                    =   7.1091135156539E-05
(PID.TID 0000.0001) %MON surfExpan_theta_mean         =   2.3772663009175E-09
(PID.TID 0000.0001) %MON surfExpan_salt_mean          =  -4.3131421741519E-13
(PID.TID 0000.0001) // =======================================================
(PID.TID 0000.0001) // End MONITOR dynamic field statistics
(PID.TID 0000.0001) // =======================================================
(PID.TID 0000.0001) // =======================================================
(PID.TID 0000.0001) // Begin OBCS MONITOR field statistics
(PID.TID 0000.0001) // =======================================================
(PID.TID 0000.0001) %MON obc_time_tsnumber            =                    10
(PID.TID 0000.0001) %MON obc_time_secondsf            =   3.0000000000000E+03
(PID.TID 0000.0001) %MON obc_W_uVel_max               =  -6.2700412392999E-03
(PID.TID 0000.0001) %MON obc_W_uVel_min               =  -6.4304042332421E-03
(PID.TID 0000.0001) %MON obc_W_uVel_mean              =  -6.4163451288665E-03
(PID.TID 0000.0001) %MON obc_W_uVel_sd                =   9.0832468274775E-06
(PID.TID 0000.0001) %MON obc_W_uVel_Int               =  -8.7149433215698E+06
(PID.TID 0000.0001) %MON obc_N_vVel_max               =   0.0000000000000E+00
(PID.TID 0000.0001) %MON obc_N_vVel_min               =  -1.9393424916281E+00
(PID.TID 0000.0001) %MON obc_N_vVel_mean              =  -1.4409628507887E-01
(PID.TID 0000.0001) %MON obc_N_vVel_sd                =   4.1964076465239E-01
(PID.TID 0000.0001) %MON obc_N_vVel_Int               =  -8.7149433215698E+06
(PID.TID 0000.0001) // =======================================================
(PID.TID 0000.0001) // End OBCS MONITOR field statistics
(PID.TID 0000.0001) // =======================================================
 Computing Diagnostic #    114  VISCA4D      Counter:      10   Parms: SM      MR      
 cg2d: Sum(rhs),rhsMax =  -1.30923183405685E-09  5.15597121631155E-02
(PID.TID 0000.0001)                    cg2d_init_res =    2.71637458671216E+00
(PID.TID 0000.0001)                       cg2d_iters =    91
(PID.TID 0000.0001)                         cg2d_res =    8.57876253270643E-12
(PID.TID 0000.0001) // =======================================================
(PID.TID 0000.0001) // Begin MONITOR dynamic field statistics
(PID.TID 0000.0001) // =======================================================
(PID.TID 0000.0001) %MON time_tsnumber                =                    11
(PID.TID 0000.0001) %MON time_secondsf                =   3.3000000000000E+03
(PID.TID 0000.0001) %MON dynstat_eta_max              =   1.7858282544056E-01
(PID.TID 0000.0001) %MON dynstat_eta_min              =  -2.2598894439984E-01
(PID.TID 0000.0001) %MON dynstat_eta_mean             =   8.1708209597974E-14
(PID.TID 0000.0001) %MON dynstat_eta_sd               =   7.1649200582809E-02
(PID.TID 0000.0001) %MON dynstat_eta_del2             =   1.5289137706246E-05
(PID.TID 0000.0001) %MON dynstat_uvel_max             =   3.1723895443578E-01
(PID.TID 0000.0001) %MON dynstat_uvel_min             =  -2.2564432642979E-01
(PID.TID 0000.0001) %MON dynstat_uvel_mean            =  -2.2553679644732E-03
(PID.TID 0000.0001) %MON dynstat_uvel_sd              =   5.5548183658843E-03
(PID.TID 0000.0001) %MON dynstat_uvel_del2            =   1.2365956192776E-05
(PID.TID 0000.0001) %MON dynstat_vvel_max             =   7.3643828084529E-04
(PID.TID 0000.0001) %MON dynstat_vvel_min             =  -9.3919879066932E-01
(PID.TID 0000.0001) %MON dynstat_vvel_mean            =  -2.0182362928375E-03
(PID.TID 0000.0001) %MON dynstat_vvel_sd              =   7.9818184545166E-03
(PID.TID 0000.0001) %MON dynstat_vvel_del2            =   1.6128766035644E-05
(PID.TID 0000.0001) %MON dynstat_wvel_max             =   1.8989819668869E-02
(PID.TID 0000.0001) %MON dynstat_wvel_min             =  -1.5236230248981E-03
(PID.TID 0000.0001) %MON dynstat_wvel_mean            =  -3.3668271706226E-06
(PID.TID 0000.0001) %MON dynstat_wvel_sd              =   8.7951803245723E-05
(PID.TID 0000.0001) %MON dynstat_wvel_del2            =   4.5060509186299E-07
(PID.TID 0000.0001) %MON dynstat_theta_max            =  -1.9417475728155E-01
(PID.TID 0000.0001) %MON dynstat_theta_min            =  -9.5145631067961E+00
(PID.TID 0000.0001) %MON dynstat_theta_mean           =  -4.1287456464214E+00
(PID.TID 0000.0001) %MON dynstat_theta_sd             =   2.6831113936642E+00
(PID.TID 0000.0001) %MON dynstat_theta_del2           =   1.5943435603742E-04
(PID.TID 0000.0001) %MON dynstat_salt_max             =   1.5145047900814E+00
(PID.TID 0000.0001) %MON dynstat_salt_min             =   1.0000000000000E+00
(PID.TID 0000.0001) %MON dynstat_salt_mean            =   1.0000095923217E+00
(PID.TID 0000.0001) %MON dynstat_salt_sd              =   1.8113865193052E-03
(PID.TID 0000.0001) %MON dynstat_salt_del2            =   1.9925457387597E-05
(PID.TID 0000.0001) %MON advcfl_uvel_max              =   9.5171686330734E-03
(PID.TID 0000.0001) %MON advcfl_vvel_max              =   5.8180274573569E-02
(PID.TID 0000.0001) %MON advcfl_wvel_max              =   3.9562124310143E-02
(PID.TID 0000.0001) %MON advcfl_W_hf_max              =   3.9562124310143E-02
(PID.TID 0000.0001) %MON pe_b_mean                    =   9.3686890390645E-06
(PID.TID 0000.0001) %MON ke_max                       =   1.1676034918830E+00
(PID.TID 0000.0001) %MON ke_mean                      =   7.1378395618234E-05
(PID.TID 0000.0001) %MON ke_vol                       =   2.7059236822588E+15
(PID.TID 0000.0001) %MON vort_r_min                   =  -1.9393424916281E-04
(PID.TID 0000.0001) %MON vort_r_max                   =   1.2785512127498E-04
(PID.TID 0000.0001) %MON vort_a_mean                  =   9.9999999606486E-05
(PID.TID 0000.0001) %MON vort_a_sd                    =   9.9491476807028E-07
(PID.TID 0000.0001) %MON vort_p_mean                  =   1.1277618343844E-04
(PID.TID 0000.0001) %MON vort_p_sd                    =   7.1083112314505E-05
(PID.TID 0000.0001) %MON surfExpan_theta_mean         =   1.7624823953411E-09
(PID.TID 0000.0001) %MON surfExpan_salt_mean          =  -5.3743777382838E-13
(PID.TID 0000.0001) // =======================================================
(PID.TID 0000.0001) // End MONITOR dynamic field statistics
(PID.TID 0000.0001) // =======================================================
 cg2d: Sum(rhs),rhsMax =  -1.31377220213835E-09  4.86135406316674E-02
(PID.TID 0000.0001)                    cg2d_init_res =    2.79957037276238E+00
(PID.TID 0000.0001)                       cg2d_iters =    91
(PID.TID 0000.0001)                         cg2d_res =    7.99867997115602E-12
(PID.TID 0000.0001) // =======================================================
(PID.TID 0000.0001) // Begin MONITOR dynamic field statistics
(PID.TID 0000.0001) // =======================================================
(PID.TID 0000.0001) %MON time_tsnumber                =                    12
(PID.TID 0000.0001) %MON time_secondsf                =   3.6000000000000E+03
(PID.TID 0000.0001) %MON dynstat_eta_max              =   1.6256984635092E-01
(PID.TID 0000.0001) %MON dynstat_eta_min              =  -2.2321227548573E-01
(PID.TID 0000.0001) %MON dynstat_eta_mean             =   7.7842141539760E-14
(PID.TID 0000.0001) %MON dynstat_eta_sd               =   7.5431133059917E-02
(PID.TID 0000.0001) %MON dynstat_eta_del2             =   1.4915680258612E-05
(PID.TID 0000.0001) %MON dynstat_uvel_max             =   3.1702354114376E-01
(PID.TID 0000.0001) %MON dynstat_uvel_min             =  -2.2008050827201E-01
(PID.TID 0000.0001) %MON dynstat_uvel_mean            =  -2.6165077468876E-03
(PID.TID 0000.0001) %MON dynstat_uvel_sd              =   5.4064923815820E-03
(PID.TID 0000.0001) %MON dynstat_uvel_del2            =   1.2220303021159E-05
(PID.TID 0000.0001) %MON dynstat_vvel_max             =   7.3067345915342E-04
(PID.TID 0000.0001) %MON dynstat_vvel_min             =  -9.8430987567043E-01
(PID.TID 0000.0001) %MON dynstat_vvel_mean            =  -2.0434653088253E-03
(PID.TID 0000.0001) %MON dynstat_vvel_sd              =   7.7677445638989E-03
(PID.TID 0000.0001) %MON dynstat_vvel_del2            =   1.5506193502410E-05
(PID.TID 0000.0001) %MON dynstat_wvel_max             =   1.8371523670576E-02
(PID.TID 0000.0001) %MON dynstat_wvel_min             =  -1.4604848461803E-03
(PID.TID 0000.0001) %MON dynstat_wvel_mean            =  -3.3665104098803E-06
(PID.TID 0000.0001) %MON dynstat_wvel_sd              =   8.5978902397432E-05
(PID.TID 0000.0001) %MON dynstat_wvel_del2            =   4.2422941125447E-07
(PID.TID 0000.0001) %MON dynstat_theta_max            =  -1.9417475728155E-01
(PID.TID 0000.0001) %MON dynstat_theta_min            =  -9.5145631067961E+00
(PID.TID 0000.0001) %MON dynstat_theta_mean           =  -4.1287501011546E+00
(PID.TID 0000.0001) %MON dynstat_theta_sd             =   2.6831107095160E+00
(PID.TID 0000.0001) %MON dynstat_theta_del2           =   1.5845177260956E-04
(PID.TID 0000.0001) %MON dynstat_salt_max             =   1.5489622713274E+00
(PID.TID 0000.0001) %MON dynstat_salt_min             =   1.0000000000000E+00
(PID.TID 0000.0001) %MON dynstat_salt_mean            =   1.0000104643510E+00
(PID.TID 0000.0001) %MON dynstat_salt_sd              =   1.9487014766361E-03
(PID.TID 0000.0001) %MON dynstat_salt_del2            =   1.9777454880660E-05
(PID.TID 0000.0001) %MON advcfl_uvel_max              =   9.5107062343129E-03
(PID.TID 0000.0001) %MON advcfl_vvel_max              =   5.8180274573569E-02
(PID.TID 0000.0001) %MON advcfl_wvel_max              =   3.8274007647032E-02
(PID.TID 0000.0001) %MON advcfl_W_hf_max              =   3.8274007647032E-02
(PID.TID 0000.0001) %MON pe_b_mean                    =   1.0383825678220E-05
(PID.TID 0000.0001) %MON ke_max                       =   1.1886110960015E+00
(PID.TID 0000.0001) %MON ke_mean                      =   6.9925781368913E-05
(PID.TID 0000.0001) %MON ke_vol                       =   2.7059236822588E+15
(PID.TID 0000.0001) %MON vort_r_min                   =  -1.9393424916281E-04
(PID.TID 0000.0001) %MON vort_r_max                   =   1.2734574143401E-04
(PID.TID 0000.0001) %MON vort_a_mean                  =   9.9999999461749E-05
(PID.TID 0000.0001) %MON vort_a_sd                    =   9.9359375797645E-07
(PID.TID 0000.0001) %MON vort_p_mean                  =   1.1277618327521E-04
(PID.TID 0000.0001) %MON vort_p_sd                    =   7.1075115888850E-05
(PID.TID 0000.0001) %MON surfExpan_theta_mean         =   9.4828104447775E-10
(PID.TID 0000.0001) %MON surfExpan_salt_mean          =  -5.1726324967486E-13
(PID.TID 0000.0001) // =======================================================
(PID.TID 0000.0001) // End MONITOR dynamic field statistics
(PID.TID 0000.0001) // =======================================================
 cg2d: Sum(rhs),rhsMax =  -1.25368160297512E-09  4.85164139936478E-02
(PID.TID 0000.0001)                    cg2d_init_res =    2.63630965243770E+00
(PID.TID 0000.0001)                       cg2d_iters =    90
(PID.TID 0000.0001)                         cg2d_res =    8.88475847888436E-12
(PID.TID 0000.0001) // =======================================================
(PID.TID 0000.0001) // Begin MONITOR dynamic field statistics
(PID.TID 0000.0001) // =======================================================
(PID.TID 0000.0001) %MON time_tsnumber                =                    13
(PID.TID 0000.0001) %MON time_secondsf                =   3.9000000000000E+03
(PID.TID 0000.0001) %MON dynstat_eta_max              =   1.7390011765346E-01
(PID.TID 0000.0001) %MON dynstat_eta_min              =  -1.9645178517485E-01
(PID.TID 0000.0001) %MON dynstat_eta_mean             =   7.3484342294353E-14
(PID.TID 0000.0001) %MON dynstat_eta_sd               =   7.9143551152327E-02
(PID.TID 0000.0001) %MON dynstat_eta_del2             =   1.4826111371009E-05
(PID.TID 0000.0001) %MON dynstat_uvel_max             =   3.1582653631582E-01
(PID.TID 0000.0001) %MON dynstat_uvel_min             =  -2.1553080150640E-01
(PID.TID 0000.0001) %MON dynstat_uvel_mean            =  -3.0051426908001E-03
(PID.TID 0000.0001) %MON dynstat_uvel_sd              =   5.2109498647992E-03
(PID.TID 0000.0001) %MON dynstat_uvel_del2            =   1.2035282301201E-05
(PID.TID 0000.0001) %MON dynstat_vvel_max             =   8.1929266688213E-04
(PID.TID 0000.0001) %MON dynstat_vvel_min             =  -1.0304025227946E+00
(PID.TID 0000.0001) %MON dynstat_vvel_mean            =  -1.9852796106567E-03
(PID.TID 0000.0001) %MON dynstat_vvel_sd              =   7.5625141536910E-03
(PID.TID 0000.0001) %MON dynstat_vvel_del2            =   1.4946854888622E-05
(PID.TID 0000.0001) %MON dynstat_wvel_max             =   1.7736117069141E-02
(PID.TID 0000.0001) %MON dynstat_wvel_min             =  -1.3997756616732E-03
(PID.TID 0000.0001) %MON dynstat_wvel_mean            =  -3.3661867884865E-06
(PID.TID 0000.0001) %MON dynstat_wvel_sd              =   8.3749535060126E-05
(PID.TID 0000.0001) %MON dynstat_wvel_del2            =   3.9877121619548E-07
(PID.TID 0000.0001) %MON dynstat_theta_max            =  -1.9417475728155E-01
(PID.TID 0000.0001) %MON dynstat_theta_min            =  -9.5145631067961E+00
(PID.TID 0000.0001) %MON dynstat_theta_mean           =  -4.1287545560470E+00
(PID.TID 0000.0001) %MON dynstat_theta_sd             =   2.6831103042919E+00
(PID.TID 0000.0001) %MON dynstat_theta_del2           =   1.5794750888015E-04
(PID.TID 0000.0001) %MON dynstat_salt_max             =   1.5821999021238E+00
(PID.TID 0000.0001) %MON dynstat_salt_min             =   1.0000000000000E+00
(PID.TID 0000.0001) %MON dynstat_salt_mean            =   1.0000113363803E+00
(PID.TID 0000.0001) %MON dynstat_salt_sd              =   2.0822779353134E-03
(PID.TID 0000.0001) %MON dynstat_salt_del2            =   1.9687658319357E-05
(PID.TID 0000.0001) %MON advcfl_uvel_max              =   9.4747960894745E-03
(PID.TID 0000.0001) %MON advcfl_vvel_max              =   5.8180274573569E-02
(PID.TID 0000.0001) %MON advcfl_wvel_max              =   3.6950243894043E-02
(PID.TID 0000.0001) %MON advcfl_W_hf_max              =   3.6950243894043E-02
(PID.TID 0000.0001) %MON pe_b_mean                    =   1.1431078102589E-05
(PID.TID 0000.0001) %MON ke_max                       =   1.2111446049706E+00
(PID.TID 0000.0001) %MON ke_mean                      =   6.8408984858082E-05
(PID.TID 0000.0001) %MON ke_vol                       =   2.7059236822588E+15
(PID.TID 0000.0001) %MON vort_r_min                   =  -1.9393424916281E-04
(PID.TID 0000.0001) %MON vort_r_max                   =   1.2679208477615E-04
(PID.TID 0000.0001) %MON vort_a_mean                  =   9.9999999228381E-05
(PID.TID 0000.0001) %MON vort_a_sd                    =   9.9312864064274E-07
(PID.TID 0000.0001) %MON vort_p_mean                  =   1.1277618301203E-04
(PID.TID 0000.0001) %MON vort_p_sd                    =   7.1067594264555E-05
(PID.TID 0000.0001) %MON surfExpan_theta_mean         =   3.9702014672146E-11
(PID.TID 0000.0001) %MON surfExpan_salt_mean          =  -3.0465940386298E-13
(PID.TID 0000.0001) // =======================================================
(PID.TID 0000.0001) // End MONITOR dynamic field statistics
(PID.TID 0000.0001) // =======================================================
 cg2d: Sum(rhs),rhsMax =  -1.12788001160880E-09  5.09271852037483E-02
(PID.TID 0000.0001)                    cg2d_init_res =    2.24546307306632E+00
(PID.TID 0000.0001)                       cg2d_iters =    89
(PID.TID 0000.0001)                         cg2d_res =    8.70275480118065E-12
(PID.TID 0000.0001) // =======================================================
(PID.TID 0000.0001) // Begin MONITOR dynamic field statistics
(PID.TID 0000.0001) // =======================================================
(PID.TID 0000.0001) %MON time_tsnumber                =                    14
(PID.TID 0000.0001) %MON time_secondsf                =   4.2000000000000E+03
(PID.TID 0000.0001) %MON dynstat_eta_max              =   1.6731017181044E-01
(PID.TID 0000.0001) %MON dynstat_eta_min              =  -1.8029785277983E-01
(PID.TID 0000.0001) %MON dynstat_eta_mean             =   6.7692397253421E-14
(PID.TID 0000.0001) %MON dynstat_eta_sd               =   8.2407074999810E-02
(PID.TID 0000.0001) %MON dynstat_eta_del2             =   1.5088114782729E-05
(PID.TID 0000.0001) %MON dynstat_uvel_max             =   3.1386821311287E-01
(PID.TID 0000.0001) %MON dynstat_uvel_min             =  -2.1277115593799E-01
(PID.TID 0000.0001) %MON dynstat_uvel_mean            =  -3.4102723378391E-03
(PID.TID 0000.0001) %MON dynstat_uvel_sd              =   5.0000164240734E-03
(PID.TID 0000.0001) %MON dynstat_uvel_del2            =   1.1833137969666E-05
(PID.TID 0000.0001) %MON dynstat_vvel_max             =   9.4207971241632E-04
(PID.TID 0000.0001) %MON dynstat_vvel_min             =  -1.0775323787355E+00
(PID.TID 0000.0001) %MON dynstat_vvel_mean            =  -1.8495150134900E-03
(PID.TID 0000.0001) %MON dynstat_vvel_sd              =   7.3876955020075E-03
(PID.TID 0000.0001) %MON dynstat_vvel_del2            =   1.4466262954377E-05
(PID.TID 0000.0001) %MON dynstat_wvel_max             =   1.7074559387683E-02
(PID.TID 0000.0001) %MON dynstat_wvel_min             =  -1.3529283960559E-03
(PID.TID 0000.0001) %MON dynstat_wvel_mean            =  -3.3658174767243E-06
(PID.TID 0000.0001) %MON dynstat_wvel_sd              =   8.1373149648435E-05
(PID.TID 0000.0001) %MON dynstat_wvel_del2            =   3.7456401086816E-07
(PID.TID 0000.0001) %MON dynstat_theta_max            =  -1.9417475728155E-01
(PID.TID 0000.0001) %MON dynstat_theta_min            =  -9.5145631067961E+00
(PID.TID 0000.0001) %MON dynstat_theta_mean           =  -4.1287590111407E+00
(PID.TID 0000.0001) %MON dynstat_theta_sd             =   2.6831101508509E+00
(PID.TID 0000.0001) %MON dynstat_theta_del2           =   1.5785164546521E-04
(PID.TID 0000.0001) %MON dynstat_salt_max             =   1.6142939720483E+00
(PID.TID 0000.0001) %MON dynstat_salt_min             =   1.0000000000000E+00
(PID.TID 0000.0001) %MON dynstat_salt_mean            =   1.0000122084095E+00
(PID.TID 0000.0001) %MON dynstat_salt_sd              =   2.2124050983377E-03
(PID.TID 0000.0001) %MON dynstat_salt_del2            =   1.9648401908735E-05
(PID.TID 0000.0001) %MON advcfl_uvel_max              =   9.4160463933860E-03
(PID.TID 0000.0001) %MON advcfl_vvel_max              =   5.8180274573569E-02
(PID.TID 0000.0001) %MON advcfl_wvel_max              =   3.5571998724340E-02
(PID.TID 0000.0001) %MON advcfl_W_hf_max              =   3.5571998724340E-02
(PID.TID 0000.0001) %MON pe_b_mean                    =   1.2393247549736E-05
(PID.TID 0000.0001) %MON ke_max                       =   1.2353189926231E+00
(PID.TID 0000.0001) %MON ke_mean                      =   6.7173252613991E-05
(PID.TID 0000.0001) %MON ke_vol                       =   2.7059236822588E+15
(PID.TID 0000.0001) %MON vort_r_min                   =  -1.9393424916281E-04
(PID.TID 0000.0001) %MON vort_r_max                   =   1.2621209152320E-04
(PID.TID 0000.0001) %MON vort_a_mean                  =   9.9999998881068E-05
(PID.TID 0000.0001) %MON vort_a_sd                    =   9.9397987718711E-07
(PID.TID 0000.0001) %MON vort_p_mean                  =   1.1277618262034E-04
(PID.TID 0000.0001) %MON vort_p_sd                    =   7.1060912224046E-05
(PID.TID 0000.0001) %MON surfExpan_theta_mean         =  -8.1322557552368E-10
(PID.TID 0000.0001) %MON surfExpan_salt_mean          =   7.9373418751074E-14
(PID.TID 0000.0001) // =======================================================
(PID.TID 0000.0001) // End MONITOR dynamic field statistics
(PID.TID 0000.0001) // =======================================================
 cg2d: Sum(rhs),rhsMax =  -1.02029318327368E-09  5.18482989968906E-02
(PID.TID 0000.0001)                    cg2d_init_res =    1.87153838596674E+00
(PID.TID 0000.0001)                       cg2d_iters =    88
(PID.TID 0000.0001)                         cg2d_res =    8.56457164617508E-12
(PID.TID 0000.0001) // =======================================================
(PID.TID 0000.0001) // Begin MONITOR dynamic field statistics
(PID.TID 0000.0001) // =======================================================
(PID.TID 0000.0001) %MON time_tsnumber                =                    15
(PID.TID 0000.0001) %MON time_secondsf                =   4.5000000000000E+03
(PID.TID 0000.0001) %MON dynstat_eta_max              =   1.5147294569508E-01
(PID.TID 0000.0001) %MON dynstat_eta_min              =  -1.5217916201358E-01
(PID.TID 0000.0001) %MON dynstat_eta_mean             =   5.9977943251600E-14
(PID.TID 0000.0001) %MON dynstat_eta_sd               =   8.4987611241848E-02
(PID.TID 0000.0001) %MON dynstat_eta_del2             =   1.5566276140532E-05
(PID.TID 0000.0001) %MON dynstat_uvel_max             =   3.1142998165164E-01
(PID.TID 0000.0001) %MON dynstat_uvel_min             =  -2.1213907691839E-01
(PID.TID 0000.0001) %MON dynstat_uvel_mean            =  -3.8195465657053E-03
(PID.TID 0000.0001) %MON dynstat_uvel_sd              =   4.8025847135952E-03
(PID.TID 0000.0001) %MON dynstat_uvel_del2            =   1.1637302686678E-05
(PID.TID 0000.0001) %MON dynstat_vvel_max             =   1.0393549089496E-03
(PID.TID 0000.0001) %MON dynstat_vvel_min             =  -1.1256386099602E+00
(PID.TID 0000.0001) %MON dynstat_vvel_mean            =  -1.6511322214478E-03
(PID.TID 0000.0001) %MON dynstat_vvel_sd              =   7.2589104571393E-03
(PID.TID 0000.0001) %MON dynstat_vvel_del2            =   1.4077444555679E-05
(PID.TID 0000.0001) %MON dynstat_wvel_max             =   1.6379742796458E-02
(PID.TID 0000.0001) %MON dynstat_wvel_min             =  -1.3194326461377E-03
(PID.TID 0000.0001) %MON dynstat_wvel_mean            =  -3.3654133423138E-06
(PID.TID 0000.0001) %MON dynstat_wvel_sd              =   7.9027243946580E-05
(PID.TID 0000.0001) %MON dynstat_wvel_del2            =   3.5206159848247E-07
(PID.TID 0000.0001) %MON dynstat_theta_max            =  -1.9417475728155E-01
(PID.TID 0000.0001) %MON dynstat_theta_min            =  -9.5145631067961E+00
(PID.TID 0000.0001) %MON dynstat_theta_mean           =  -4.1287634664843E+00
(PID.TID 0000.0001) %MON dynstat_theta_sd             =   2.6831102242626E+00
(PID.TID 0000.0001) %MON dynstat_theta_del2           =   1.5808975988416E-04
(PID.TID 0000.0001) %MON dynstat_salt_max             =   1.6453139980915E+00
(PID.TID 0000.0001) %MON dynstat_salt_min             =   1.0000000000000E+00
(PID.TID 0000.0001) %MON dynstat_salt_mean            =   1.0000130804387E+00
(PID.TID 0000.0001) %MON dynstat_salt_sd              =   2.3392559220933E-03
(PID.TID 0000.0001) %MON dynstat_salt_del2            =   1.9651676771873E-05
(PID.TID 0000.0001) %MON advcfl_uvel_max              =   9.3428994495491E-03
(PID.TID 0000.0001) %MON advcfl_vvel_max              =   5.8180274573569E-02
(PID.TID 0000.0001) %MON advcfl_wvel_max              =   3.4124464159288E-02
(PID.TID 0000.0001) %MON advcfl_W_hf_max              =   3.4124464159288E-02
(PID.TID 0000.0001) %MON pe_b_mean                    =   1.3181577009662E-05
(PID.TID 0000.0001) %MON ke_max                       =   1.2611915913663E+00
(PID.TID 0000.0001) %MON ke_mean                      =   6.6480850075105E-05
(PID.TID 0000.0001) %MON ke_vol                       =   2.7059236822588E+15
(PID.TID 0000.0001) %MON vort_r_min                   =  -1.9393424916281E-04
(PID.TID 0000.0001) %MON vort_r_max                   =   1.2562942222714E-04
(PID.TID 0000.0001) %MON vort_a_mean                  =   9.9999998357145E-05
(PID.TID 0000.0001) %MON vort_a_sd                    =   9.9641768338891E-07
(PID.TID 0000.0001) %MON vort_p_mean                  =   1.1277618202948E-04
(PID.TID 0000.0001) %MON vort_p_sd                    =   7.1055319168479E-05
(PID.TID 0000.0001) %MON surfExpan_theta_mean         =  -1.4689538061283E-09
(PID.TID 0000.0001) %MON surfExpan_salt_mean          =   5.3545794420028E-13
(PID.TID 0000.0001) // =======================================================
(PID.TID 0000.0001) // End MONITOR dynamic field statistics
(PID.TID 0000.0001) // =======================================================
 cg2d: Sum(rhs),rhsMax =  -8.40488567632747E-10  5.57661258805071E-02
(PID.TID 0000.0001)                    cg2d_init_res =    1.42232731339035E+00
(PID.TID 0000.0001)                       cg2d_iters =    88
(PID.TID 0000.0001)                         cg2d_res =    7.90762301096609E-12
(PID.TID 0000.0001) // =======================================================
(PID.TID 0000.0001) // Begin MONITOR dynamic field statistics
(PID.TID 0000.0001) // =======================================================
(PID.TID 0000.0001) %MON time_tsnumber                =                    16
(PID.TID 0000.0001) %MON time_secondsf                =   4.8000000000000E+03
(PID.TID 0000.0001) %MON dynstat_eta_max              =   1.6420736686520E-01
(PID.TID 0000.0001) %MON dynstat_eta_min              =  -1.1571424209188E-01
(PID.TID 0000.0001) %MON dynstat_eta_mean             =   5.7553388536665E-14
(PID.TID 0000.0001) %MON dynstat_eta_sd               =   8.6795100060631E-02
(PID.TID 0000.0001) %MON dynstat_eta_del2             =   1.6108795518401E-05
(PID.TID 0000.0001) %MON dynstat_uvel_max             =   3.0868040754413E-01
(PID.TID 0000.0001) %MON dynstat_uvel_min             =  -2.1352328543905E-01
(PID.TID 0000.0001) %MON dynstat_uvel_mean            =  -4.2215549471496E-03
(PID.TID 0000.0001) %MON dynstat_uvel_sd              =   4.6393579129914E-03
(PID.TID 0000.0001) %MON dynstat_uvel_del2            =   1.1461644030914E-05
(PID.TID 0000.0001) %MON dynstat_vvel_max             =   1.2550083533024E-03
(PID.TID 0000.0001) %MON dynstat_vvel_min             =  -1.1745368084011E+00
(PID.TID 0000.0001) %MON dynstat_vvel_mean            =  -1.4118823475904E-03
(PID.TID 0000.0001) %MON dynstat_vvel_sd              =   7.1843654433896E-03
(PID.TID 0000.0001) %MON dynstat_vvel_del2            =   1.3789872281952E-05
(PID.TID 0000.0001) %MON dynstat_wvel_max             =   1.5650299715450E-02
(PID.TID 0000.0001) %MON dynstat_wvel_min             =  -1.2985541665249E-03
(PID.TID 0000.0001) %MON dynstat_wvel_mean            =  -3.3648546511642E-06
(PID.TID 0000.0001) %MON dynstat_wvel_sd              =   7.6909961995052E-05
(PID.TID 0000.0001) %MON dynstat_wvel_del2            =   3.3188282986816E-07
(PID.TID 0000.0001) %MON dynstat_theta_max            =  -1.9417475728155E-01
(PID.TID 0000.0001) %MON dynstat_theta_min            =  -9.5145631067961E+00
(PID.TID 0000.0001) %MON dynstat_theta_mean           =  -4.1287679222307E+00
(PID.TID 0000.0001) %MON dynstat_theta_sd             =   2.6831104799810E+00
(PID.TID 0000.0001) %MON dynstat_theta_del2           =   1.5857157693226E-04
(PID.TID 0000.0001) %MON dynstat_salt_max             =   1.6753216907816E+00
(PID.TID 0000.0001) %MON dynstat_salt_min             =   1.0000000000000E+00
(PID.TID 0000.0001) %MON dynstat_salt_mean            =   1.0000139524678E+00
(PID.TID 0000.0001) %MON dynstat_salt_sd              =   2.4629594100164E-03
(PID.TID 0000.0001) %MON dynstat_salt_del2            =   1.9689709663750E-05
(PID.TID 0000.0001) %MON advcfl_uvel_max              =   9.2604122263239E-03
(PID.TID 0000.0001) %MON advcfl_vvel_max              =   5.8180274573569E-02
(PID.TID 0000.0001) %MON advcfl_wvel_max              =   3.2604791073855E-02
(PID.TID 0000.0001) %MON advcfl_W_hf_max              =   3.2604791073855E-02
(PID.TID 0000.0001) %MON pe_b_mean                    =   1.3748222189023E-05
(PID.TID 0000.0001) %MON ke_max                       =   1.2887353077840E+00
(PID.TID 0000.0001) %MON ke_mean                      =   6.6477171526463E-05
(PID.TID 0000.0001) %MON ke_vol                       =   2.7059236822588E+15
(PID.TID 0000.0001) %MON vort_r_min                   =  -1.9393424916281E-04
(PID.TID 0000.0001) %MON vort_r_max                   =   1.2506196850303E-04
(PID.TID 0000.0001) %MON vort_a_mean                  =   9.9999997542492E-05
(PID.TID 0000.0001) %MON vort_a_sd                    =   1.0004359766451E-06
(PID.TID 0000.0001) %MON vort_p_mean                  =   1.1277618111074E-04
(PID.TID 0000.0001) %MON vort_p_sd                    =   7.1050924903784E-05
(PID.TID 0000.0001) %MON surfExpan_theta_mean         =  -1.8598989416310E-09
(PID.TID 0000.0001) %MON surfExpan_salt_mean          =   9.4253968281517E-13
(PID.TID 0000.0001) // =======================================================
(PID.TID 0000.0001) // End MONITOR dynamic field statistics
(PID.TID 0000.0001) // =======================================================
 cg2d: Sum(rhs),rhsMax =  -7.53708206957526E-10  5.96516730146601E-02
(PID.TID 0000.0001)                    cg2d_init_res =    1.11182049585224E+00
(PID.TID 0000.0001)                       cg2d_iters =    88
(PID.TID 0000.0001)                         cg2d_res =    8.46773463503392E-12
(PID.TID 0000.0001) // =======================================================
(PID.TID 0000.0001) // Begin MONITOR dynamic field statistics
(PID.TID 0000.0001) // =======================================================
(PID.TID 0000.0001) %MON time_tsnumber                =                    17
(PID.TID 0000.0001) %MON time_secondsf                =   5.1000000000000E+03
(PID.TID 0000.0001) %MON dynstat_eta_max              =   1.6757093955993E-01
(PID.TID 0000.0001) %MON dynstat_eta_min              =  -1.1600970050985E-01
(PID.TID 0000.0001) %MON dynstat_eta_mean             =   6.1203271693660E-14
(PID.TID 0000.0001) %MON dynstat_eta_sd               =   8.7838584673992E-02
(PID.TID 0000.0001) %MON dynstat_eta_del2             =   1.6586778726478E-05
(PID.TID 0000.0001) %MON dynstat_uvel_max             =   3.0577210456749E-01
(PID.TID 0000.0001) %MON dynstat_uvel_min             =  -2.1650640152697E-01
(PID.TID 0000.0001) %MON dynstat_uvel_mean            =  -4.6074920050602E-03
(PID.TID 0000.0001) %MON dynstat_uvel_sd              =   4.5240101413245E-03
(PID.TID 0000.0001) %MON dynstat_uvel_del2            =   1.1309535178566E-05
(PID.TID 0000.0001) %MON dynstat_vvel_max             =   1.5916952932529E-03
(PID.TID 0000.0001) %MON dynstat_vvel_min             =  -1.2239058726961E+00
(PID.TID 0000.0001) %MON dynstat_vvel_mean            =  -1.1569680599370E-03
(PID.TID 0000.0001) %MON dynstat_vvel_sd              =   7.1643896043409E-03
(PID.TID 0000.0001) %MON dynstat_vvel_del2            =   1.3608404847866E-05
(PID.TID 0000.0001) %MON dynstat_wvel_max             =   1.4892569504788E-02
(PID.TID 0000.0001) %MON dynstat_wvel_min             =  -1.2890063891072E-03
(PID.TID 0000.0001) %MON dynstat_wvel_mean            =  -3.3641427817245E-06
(PID.TID 0000.0001) %MON dynstat_wvel_sd              =   7.5189659921961E-05
(PID.TID 0000.0001) %MON dynstat_wvel_del2            =   3.1477931673789E-07
(PID.TID 0000.0001) %MON dynstat_theta_max            =  -1.9417475728155E-01
(PID.TID 0000.0001) %MON dynstat_theta_min            =  -9.5145631067961E+00
(PID.TID 0000.0001) %MON dynstat_theta_mean           =  -4.1287723785310E+00
(PID.TID 0000.0001) %MON dynstat_theta_sd             =   2.6831109018124E+00
(PID.TID 0000.0001) %MON dynstat_theta_del2           =   1.5923705663693E-04
(PID.TID 0000.0001) %MON dynstat_salt_max             =   1.7043696383326E+00
(PID.TID 0000.0001) %MON dynstat_salt_min             =   1.0000000000000E+00
(PID.TID 0000.0001) %MON dynstat_salt_mean            =   1.0000148244969E+00
(PID.TID 0000.0001) %MON dynstat_salt_sd              =   2.5833217576536E-03
(PID.TID 0000.0001) %MON dynstat_salt_del2            =   1.9752910164953E-05
(PID.TID 0000.0001) %MON advcfl_uvel_max              =   9.1731631370247E-03
(PID.TID 0000.0001) %MON advcfl_vvel_max              =   5.8180274573569E-02
(PID.TID 0000.0001) %MON advcfl_wvel_max              =   3.1026186468309E-02
(PID.TID 0000.0001) %MON advcfl_W_hf_max              =   3.1026186468309E-02
(PID.TID 0000.0001) %MON pe_b_mean                    =   1.4080782328134E-05
(PID.TID 0000.0001) %MON ke_max                       =   1.3178121032933E+00
(PID.TID 0000.0001) %MON ke_mean                      =   6.7202880416928E-05
(PID.TID 0000.0001) %MON ke_vol                       =   2.7059236822588E+15
(PID.TID 0000.0001) %MON vort_r_min                   =  -1.9393424916281E-04
(PID.TID 0000.0001) %MON vort_r_max                   =   1.2451707953925E-04
(PID.TID 0000.0001) %MON vort_a_mean                  =   9.9999996407526E-05
(PID.TID 0000.0001) %MON vort_a_sd                    =   1.0058203617869E-06
(PID.TID 0000.0001) %MON vort_p_mean                  =   1.1277617983077E-04
(PID.TID 0000.0001) %MON vort_p_sd                    =   7.1047692708815E-05
(PID.TID 0000.0001) %MON surfExpan_theta_mean         =  -2.0109744746799E-09
(PID.TID 0000.0001) %MON surfExpan_salt_mean          =   1.2181698027010E-12
(PID.TID 0000.0001) // =======================================================
(PID.TID 0000.0001) // End MONITOR dynamic field statistics
(PID.TID 0000.0001) // =======================================================
 cg2d: Sum(rhs),rhsMax =  -7.59918350468070E-10  6.29311101039133E-02
(PID.TID 0000.0001)                    cg2d_init_res =    1.00025727892048E+00
(PID.TID 0000.0001)                       cg2d_iters =    87
(PID.TID 0000.0001)                         cg2d_res =    8.20109206363793E-12
(PID.TID 0000.0001) // =======================================================
(PID.TID 0000.0001) // Begin MONITOR dynamic field statistics
(PID.TID 0000.0001) // =======================================================
(PID.TID 0000.0001) %MON time_tsnumber                =                    18
(PID.TID 0000.0001) %MON time_secondsf                =   5.4000000000000E+03
(PID.TID 0000.0001) %MON dynstat_eta_max              =   1.6161341597844E-01
(PID.TID 0000.0001) %MON dynstat_eta_min              =  -1.1830975377664E-01
(PID.TID 0000.0001) %MON dynstat_eta_mean             =   6.4346899069320E-14
(PID.TID 0000.0001) %MON dynstat_eta_sd               =   8.8184162942481E-02
(PID.TID 0000.0001) %MON dynstat_eta_del2             =   1.6926815912444E-05
(PID.TID 0000.0001) %MON dynstat_uvel_max             =   3.0276781357966E-01
(PID.TID 0000.0001) %MON dynstat_uvel_min             =  -2.2055495808594E-01
(PID.TID 0000.0001) %MON dynstat_uvel_mean            =  -4.9719586769594E-03
(PID.TID 0000.0001) %MON dynstat_uvel_sd              =   4.4661285402623E-03
(PID.TID 0000.0001) %MON dynstat_uvel_del2            =   1.1177573397438E-05
(PID.TID 0000.0001) %MON dynstat_vvel_max             =   1.7729152818316E-03
(PID.TID 0000.0001) %MON dynstat_vvel_min             =  -1.2734050751428E+00
(PID.TID 0000.0001) %MON dynstat_vvel_mean            =  -9.1150786923797E-04
(PID.TID 0000.0001) %MON dynstat_vvel_sd              =   7.1928141039587E-03
(PID.TID 0000.0001) %MON dynstat_vvel_del2            =   1.3533024786655E-05
(PID.TID 0000.0001) %MON dynstat_wvel_max             =   1.4116088980291E-02
(PID.TID 0000.0001) %MON dynstat_wvel_min             =  -1.2880877804106E-03
(PID.TID 0000.0001) %MON dynstat_wvel_mean            =  -3.3632423923074E-06
(PID.TID 0000.0001) %MON dynstat_wvel_sd              =   7.3960827303963E-05
(PID.TID 0000.0001) %MON dynstat_wvel_del2            =   3.0149430380274E-07
(PID.TID 0000.0001) %MON dynstat_theta_max            =  -1.9417475728155E-01
(PID.TID 0000.0001) %MON dynstat_theta_min            =  -9.5145631067961E+00
(PID.TID 0000.0001) %MON dynstat_theta_mean           =  -4.1287768355560E+00
(PID.TID 0000.0001) %MON dynstat_theta_sd             =   2.6831113986750E+00
(PID.TID 0000.0001) %MON dynstat_theta_del2           =   1.5998486735921E-04
(PID.TID 0000.0001) %MON dynstat_salt_max             =   1.7317984416139E+00
(PID.TID 0000.0001) %MON dynstat_salt_min             =   1.0000000000000E+00
(PID.TID 0000.0001) %MON dynstat_salt_mean            =   1.0000156965260E+00
(PID.TID 0000.0001) %MON dynstat_salt_sd              =   2.6998002833410E-03
(PID.TID 0000.0001) %MON dynstat_salt_del2            =   1.9830592891621E-05
(PID.TID 0000.0001) %MON advcfl_uvel_max              =   9.0830344073898E-03
(PID.TID 0000.0001) %MON advcfl_vvel_max              =   5.8180274573569E-02
(PID.TID 0000.0001) %MON advcfl_wvel_max              =   2.9408518708939E-02
(PID.TID 0000.0001) %MON advcfl_W_hf_max              =   2.9408518708939E-02
(PID.TID 0000.0001) %MON pe_b_mean                    =   1.4191794690860E-05
(PID.TID 0000.0001) %MON ke_max                       =   1.3482363336820E+00
(PID.TID 0000.0001) %MON ke_mean                      =   6.8626741063707E-05
(PID.TID 0000.0001) %MON ke_vol                       =   2.7059236822588E+15
(PID.TID 0000.0001) %MON vort_r_min                   =  -1.9393424916281E-04
(PID.TID 0000.0001) %MON vort_r_max                   =   1.2399244320397E-04
(PID.TID 0000.0001) %MON vort_a_mean                  =   9.9999994984959E-05
(PID.TID 0000.0001) %MON vort_a_sd                    =   1.0122813854523E-06
(PID.TID 0000.0001) %MON vort_p_mean                  =   1.1277617822646E-04
(PID.TID 0000.0001) %MON vort_p_sd                    =   7.1045458709378E-05
(PID.TID 0000.0001) %MON surfExpan_theta_mean         =  -1.9960153071605E-09
(PID.TID 0000.0001) %MON surfExpan_salt_mean          =   1.3463483919289E-12
(PID.TID 0000.0001) // =======================================================
(PID.TID 0000.0001) // End MONITOR dynamic field statistics
(PID.TID 0000.0001) // =======================================================
 cg2d: Sum(rhs),rhsMax =  -7.70260299987058E-10  6.52981005222655E-02
(PID.TID 0000.0001)                    cg2d_init_res =    1.04569149809066E+00
(PID.TID 0000.0001)                       cg2d_iters =    87
(PID.TID 0000.0001)                         cg2d_res =    9.35182964405839E-12
(PID.TID 0000.0001) // =======================================================
(PID.TID 0000.0001) // Begin MONITOR dynamic field statistics
(PID.TID 0000.0001) // =======================================================
(PID.TID 0000.0001) %MON time_tsnumber                =                    19
(PID.TID 0000.0001) %MON time_secondsf                =   5.7000000000000E+03
(PID.TID 0000.0001) %MON dynstat_eta_max              =   1.4786973560928E-01
(PID.TID 0000.0001) %MON dynstat_eta_min              =  -1.2037422269588E-01
(PID.TID 0000.0001) %MON dynstat_eta_mean             =   6.5701896351838E-14
(PID.TID 0000.0001) %MON dynstat_eta_sd               =   8.7932850673232E-02
(PID.TID 0000.0001) %MON dynstat_eta_del2             =   1.7102170664700E-05
(PID.TID 0000.0001) %MON dynstat_uvel_max             =   2.9970799010711E-01
(PID.TID 0000.0001) %MON dynstat_uvel_min             =  -2.2517331178422E-01
(PID.TID 0000.0001) %MON dynstat_uvel_mean            =  -5.3129658463578E-03
(PID.TID 0000.0001) %MON dynstat_uvel_sd              =   4.4715819831795E-03
(PID.TID 0000.0001) %MON dynstat_uvel_del2            =   1.1060498167294E-05
(PID.TID 0000.0001) %MON dynstat_vvel_max             =   1.8209889406385E-03
(PID.TID 0000.0001) %MON dynstat_vvel_min             =  -1.3226708684195E+00
(PID.TID 0000.0001) %MON dynstat_vvel_mean            =  -6.9749644659369E-04
(PID.TID 0000.0001) %MON dynstat_vvel_sd              =   7.2598213047619E-03
(PID.TID 0000.0001) %MON dynstat_vvel_del2            =   1.3558518992498E-05
(PID.TID 0000.0001) %MON dynstat_wvel_max             =   1.3331620073426E-02
(PID.TID 0000.0001) %MON dynstat_wvel_min             =  -1.2929328457119E-03
(PID.TID 0000.0001) %MON dynstat_wvel_mean            =  -3.3621118825406E-06
(PID.TID 0000.0001) %MON dynstat_wvel_sd              =   7.3222421917007E-05
(PID.TID 0000.0001) %MON dynstat_wvel_del2            =   2.9259768633185E-07
(PID.TID 0000.0001) %MON dynstat_theta_max            =  -1.9417475728155E-01
(PID.TID 0000.0001) %MON dynstat_theta_min            =  -9.5145631067961E+00
(PID.TID 0000.0001) %MON dynstat_theta_mean           =  -4.1287812935012E+00
(PID.TID 0000.0001) %MON dynstat_theta_sd             =   2.6831119020112E+00
(PID.TID 0000.0001) %MON dynstat_theta_del2           =   1.6069306623969E-04
(PID.TID 0000.0001) %MON dynstat_salt_max             =   1.7570561819961E+00
(PID.TID 0000.0001) %MON dynstat_salt_min             =   1.0000000000000E+00
(PID.TID 0000.0001) %MON dynstat_salt_mean            =   1.0000165685551E+00
(PID.TID 0000.0001) %MON dynstat_salt_sd              =   2.8116466426270E-03
(PID.TID 0000.0001) %MON dynstat_salt_del2            =   1.9906256591652E-05
(PID.TID 0000.0001) %MON advcfl_uvel_max              =   8.9912397032133E-03
(PID.TID 0000.0001) %MON advcfl_vvel_max              =   5.8180274573569E-02
(PID.TID 0000.0001) %MON advcfl_wvel_max              =   2.7774208486305E-02
(PID.TID 0000.0001) %MON advcfl_W_hf_max              =   2.8428785255623E-02
(PID.TID 0000.0001) %MON pe_b_mean                    =   1.4111020776382E-05
(PID.TID 0000.0001) %MON ke_max                       =   1.3797718305821E+00
(PID.TID 0000.0001) %MON ke_mean                      =   7.0676266583194E-05
(PID.TID 0000.0001) %MON ke_vol                       =   2.7059236822588E+15
(PID.TID 0000.0001) %MON vort_r_min                   =  -1.9393424916281E-04
(PID.TID 0000.0001) %MON vort_r_max                   =   1.2348466018252E-04
(PID.TID 0000.0001) %MON vort_a_mean                  =   9.9999993317671E-05
(PID.TID 0000.0001) %MON vort_a_sd                    =   1.0195434093827E-06
(PID.TID 0000.0001) %MON vort_p_mean                  =   1.1277617634615E-04
(PID.TID 0000.0001) %MON vort_p_sd                    =   7.1043969450577E-05
(PID.TID 0000.0001) %MON surfExpan_theta_mean         =  -1.8732392225646E-09
(PID.TID 0000.0001) %MON surfExpan_salt_mean          =   1.3609706677394E-12
(PID.TID 0000.0001) // =======================================================
(PID.TID 0000.0001) // End MONITOR dynamic field statistics
(PID.TID 0000.0001) // =======================================================
 cg2d: Sum(rhs),rhsMax =  -7.70018715456899E-10  6.66974810187144E-02
(PID.TID 0000.0001)                    cg2d_init_res =    1.14372461685648E+00
(PID.TID 0000.0001)                       cg2d_iters =    87
(PID.TID 0000.0001)                         cg2d_res =    8.72662808165302E-12
(PID.TID 0000.0001) // =======================================================
(PID.TID 0000.0001) // Begin MONITOR dynamic field statistics
(PID.TID 0000.0001) // =======================================================
(PID.TID 0000.0001) %MON time_tsnumber                =                    20
(PID.TID 0000.0001) %MON time_secondsf                =   6.0000000000000E+03
(PID.TID 0000.0001) %MON dynstat_eta_max              =   1.6982609060479E-01
(PID.TID 0000.0001) %MON dynstat_eta_min              =  -1.2205458062238E-01
(PID.TID 0000.0001) %MON dynstat_eta_mean             =   6.8852259771158E-14
(PID.TID 0000.0001) %MON dynstat_eta_sd               =   8.7206270500242E-02
(PID.TID 0000.0001) %MON dynstat_eta_del2             =   1.7134229971232E-05
(PID.TID 0000.0001) %MON dynstat_uvel_max             =   2.9664383971045E-01
(PID.TID 0000.0001) %MON dynstat_uvel_min             =  -2.2998566200265E-01
(PID.TID 0000.0001) %MON dynstat_uvel_mean            =  -5.6313864365585E-03
(PID.TID 0000.0001) %MON dynstat_uvel_sd              =   4.5402069352984E-03
(PID.TID 0000.0001) %MON dynstat_uvel_del2            =   1.0954843251119E-05
(PID.TID 0000.0001) %MON dynstat_vvel_max             =   2.0646824448312E-03
(PID.TID 0000.0001) %MON dynstat_vvel_min             =  -1.3713716008189E+00
(PID.TID 0000.0001) %MON dynstat_vvel_mean            =  -5.3168582685273E-04
(PID.TID 0000.0001) %MON dynstat_vvel_sd              =   7.3552826157629E-03
(PID.TID 0000.0001) %MON dynstat_vvel_del2            =   1.3675181270685E-05
(PID.TID 0000.0001) %MON dynstat_wvel_max             =   1.3192974994565E-02
(PID.TID 0000.0001) %MON dynstat_wvel_min             =  -1.3013338973766E-03
(PID.TID 0000.0001) %MON dynstat_wvel_mean            =  -3.3607856004438E-06
(PID.TID 0000.0001) %MON dynstat_wvel_sd              =   7.2893715825256E-05
(PID.TID 0000.0001) %MON dynstat_wvel_del2            =   2.8835210879932E-07
(PID.TID 0000.0001) %MON dynstat_theta_max            =  -1.9417475728155E-01
(PID.TID 0000.0001) %MON dynstat_theta_min            =  -9.5145631067961E+00
(PID.TID 0000.0001) %MON dynstat_theta_mean           =  -4.1287857525300E+00
(PID.TID 0000.0001) %MON dynstat_theta_sd             =   2.6831124000458E+00
(PID.TID 0000.0001) %MON dynstat_theta_del2           =   1.6131315844931E-04
(PID.TID 0000.0001) %MON dynstat_salt_max             =   1.7802692406208E+00
(PID.TID 0000.0001) %MON dynstat_salt_min             =   1.0000000000000E+00
(PID.TID 0000.0001) %MON dynstat_salt_mean            =   1.0000174405842E+00
(PID.TID 0000.0001) %MON dynstat_salt_sd              =   2.9192128007192E-03
(PID.TID 0000.0001) %MON dynstat_salt_del2            =   1.9973759549077E-05
(PID.TID 0000.0001) %MON advcfl_uvel_max              =   8.8993151913136E-03
(PID.TID 0000.0001) %MON advcfl_vvel_max              =   5.8180274573569E-02
(PID.TID 0000.0001) %MON advcfl_wvel_max              =   2.7485364572010E-02
(PID.TID 0000.0001) %MON advcfl_W_hf_max              =   2.7635854495899E-02
(PID.TID 0000.0001) %MON pe_b_mean                    =   1.3878788363390E-05
(PID.TID 0000.0001) %MON ke_max                       =   1.4121704032466E+00
(PID.TID 0000.0001) %MON ke_mean                      =   7.3260186554271E-05
(PID.TID 0000.0001) %MON ke_vol                       =   2.7059236822588E+15
(PID.TID 0000.0001) %MON vort_r_min                   =  -1.9393424916281E-04
(PID.TID 0000.0001) %MON vort_r_max                   =   1.2299120180199E-04
(PID.TID 0000.0001) %MON vort_a_mean                  =   9.9999991455640E-05
(PID.TID 0000.0001) %MON vort_a_sd                    =   1.0273877850856E-06
(PID.TID 0000.0001) %MON vort_p_mean                  =   1.1277617424623E-04
(PID.TID 0000.0001) %MON vort_p_sd                    =   7.1042938277713E-05
(PID.TID 0000.0001) %MON surfExpan_theta_mean         =  -1.6794945956901E-09
(PID.TID 0000.0001) %MON surfExpan_salt_mean          =   1.3054548861438E-12
(PID.TID 0000.0001) // =======================================================
(PID.TID 0000.0001) // End MONITOR dynamic field statistics
(PID.TID 0000.0001) // =======================================================
(PID.TID 0000.0001) // =======================================================
(PID.TID 0000.0001) // Begin OBCS MONITOR field statistics
(PID.TID 0000.0001) // =======================================================
(PID.TID 0000.0001) %MON obc_time_tsnumber            =                    20
(PID.TID 0000.0001) %MON obc_time_secondsf            =   6.0000000000000E+03
(PID.TID 0000.0001) %MON obc_W_uVel_max               =  -4.4149596089693E-03
(PID.TID 0000.0001) %MON obc_W_uVel_min               =  -6.5202583160749E-03
(PID.TID 0000.0001) %MON obc_W_uVel_mean              =  -6.4163451288665E-03
(PID.TID 0000.0001) %MON obc_W_uVel_sd                =   1.0845643368282E-04
(PID.TID 0000.0001) %MON obc_W_uVel_Int               =  -8.7149433215698E+06
(PID.TID 0000.0001) %MON obc_N_vVel_max               =   0.0000000000000E+00
(PID.TID 0000.0001) %MON obc_N_vVel_min               =  -1.9393424916281E+00
(PID.TID 0000.0001) %MON obc_N_vVel_mean              =  -1.4409628507887E-01
(PID.TID 0000.0001) %MON obc_N_vVel_sd                =   4.1964076465239E-01
(PID.TID 0000.0001) %MON obc_N_vVel_Int               =  -8.7149433215698E+06
(PID.TID 0000.0001) // =======================================================
(PID.TID 0000.0001) // End OBCS MONITOR field statistics
(PID.TID 0000.0001) // =======================================================
 Computing Diagnostic #    114  VISCA4D      Counter:      10   Parms: SM      MR      
(PID.TID 0000.0001) %CHECKPOINT        20 ckptA
(PID.TID 0000.0001)   Seconds in section "ALL                    [THE_MODEL_MAIN]":
(PID.TID 0000.0001)           User time:   74.570000000000007
(PID.TID 0000.0001)         System time:  0.16000000000000000
(PID.TID 0000.0001)     Wall clock time:   76.242035865783691
(PID.TID 0000.0001)          No. starts:           1
(PID.TID 0000.0001)           No. stops:           1
(PID.TID 0000.0001)   Seconds in section "INITIALISE_FIXED       [THE_MODEL_MAIN]":
(PID.TID 0000.0001)           User time:  0.42999999999999999
(PID.TID 0000.0001)         System time:  5.00000000000000028E-002
(PID.TID 0000.0001)     Wall clock time:   1.6371190547943115
(PID.TID 0000.0001)          No. starts:           1
(PID.TID 0000.0001)           No. stops:           1
(PID.TID 0000.0001)   Seconds in section "THE_MAIN_LOOP          [THE_MODEL_MAIN]":
(PID.TID 0000.0001)           User time:   74.130000000000010
(PID.TID 0000.0001)         System time:  0.11000000000000000
(PID.TID 0000.0001)     Wall clock time:   74.604854106903076
(PID.TID 0000.0001)          No. starts:           1
(PID.TID 0000.0001)           No. stops:           1
(PID.TID 0000.0001)   Seconds in section "INITIALISE_VARIA    [THE_MAIN_LOOP]":
(PID.TID 0000.0001)           User time:  0.72999999999999998
(PID.TID 0000.0001)         System time:  5.00000000000000028E-002
(PID.TID 0000.0001)     Wall clock time:  0.99282407760620117
(PID.TID 0000.0001)          No. starts:           1
(PID.TID 0000.0001)           No. stops:           1
(PID.TID 0000.0001)   Seconds in section "MAIN LOOP           [THE_MAIN_LOOP]":
(PID.TID 0000.0001)           User time:   73.400000000000006
(PID.TID 0000.0001)         System time:  5.99999999999999978E-002
(PID.TID 0000.0001)     Wall clock time:   73.611999988555908
(PID.TID 0000.0001)          No. starts:           1
(PID.TID 0000.0001)           No. stops:           1
(PID.TID 0000.0001)   Seconds in section "FORWARD_STEP        [THE_MAIN_LOOP]":
(PID.TID 0000.0001)           User time:   73.390000000000001
(PID.TID 0000.0001)         System time:  5.99999999999999978E-002
(PID.TID 0000.0001)     Wall clock time:   73.611799955368042
(PID.TID 0000.0001)          No. starts:          20
(PID.TID 0000.0001)           No. stops:          20
(PID.TID 0000.0001)   Seconds in section "UPDATE_SURF_DR      [FORWARD_STEP]":
(PID.TID 0000.0001)           User time:  0.79000000000003467
(PID.TID 0000.0001)         System time:   0.0000000000000000
(PID.TID 0000.0001)     Wall clock time:  0.79885435104370117
(PID.TID 0000.0001)          No. starts:          40
(PID.TID 0000.0001)           No. stops:          40
(PID.TID 0000.0001)   Seconds in section "DO_STATEVARS_DIAGS  [FORWARD_STEP]":
(PID.TID 0000.0001)           User time:   0.0000000000000000
(PID.TID 0000.0001)         System time:   0.0000000000000000
(PID.TID 0000.0001)     Wall clock time:  1.09887123107910156E-003
(PID.TID 0000.0001)          No. starts:          60
(PID.TID 0000.0001)           No. stops:          60
(PID.TID 0000.0001)   Seconds in section "LOAD_FIELDS_DRIVER  [FORWARD_STEP]":
(PID.TID 0000.0001)           User time:  1.00000000000051159E-002
(PID.TID 0000.0001)         System time:   0.0000000000000000
(PID.TID 0000.0001)     Wall clock time:  5.64575195312500000E-004
(PID.TID 0000.0001)          No. starts:          20
(PID.TID 0000.0001)           No. stops:          20
(PID.TID 0000.0001)   Seconds in section "EXTERNAL_FLDS_LOAD [LOAD_FLDS_DRIVER]":
(PID.TID 0000.0001)           User time:   0.0000000000000000
(PID.TID 0000.0001)         System time:   0.0000000000000000
(PID.TID 0000.0001)     Wall clock time:  1.91926956176757813E-004
(PID.TID 0000.0001)          No. starts:          20
(PID.TID 0000.0001)           No. stops:          20
(PID.TID 0000.0001)   Seconds in section "DO_ATMOSPHERIC_PHYS [FORWARD_STEP]":
(PID.TID 0000.0001)           User time:   0.0000000000000000
(PID.TID 0000.0001)         System time:   0.0000000000000000
(PID.TID 0000.0001)     Wall clock time:  1.85251235961914063E-004
(PID.TID 0000.0001)          No. starts:          20
(PID.TID 0000.0001)           No. stops:          20
(PID.TID 0000.0001)   Seconds in section "DO_OCEANIC_PHYS     [FORWARD_STEP]":
(PID.TID 0000.0001)           User time:  0.51999999999999602
(PID.TID 0000.0001)         System time:   0.0000000000000000
(PID.TID 0000.0001)     Wall clock time:  0.54477548599243164
(PID.TID 0000.0001)          No. starts:          20
(PID.TID 0000.0001)           No. stops:          20
(PID.TID 0000.0001)   Seconds in section "DYNAMICS            [FORWARD_STEP]":
(PID.TID 0000.0001)           User time:   33.000000000000028
(PID.TID 0000.0001)         System time:   0.0000000000000000
(PID.TID 0000.0001)     Wall clock time:   33.057534694671631
(PID.TID 0000.0001)          No. starts:          20
(PID.TID 0000.0001)           No. stops:          20
(PID.TID 0000.0001)   Seconds in section "SOLVE_FOR_PRESSURE  [FORWARD_STEP]":
(PID.TID 0000.0001)           User time:   7.3299999999999699
(PID.TID 0000.0001)         System time:   0.0000000000000000
(PID.TID 0000.0001)     Wall clock time:   7.3604879379272461
(PID.TID 0000.0001)          No. starts:          20
(PID.TID 0000.0001)           No. stops:          20
(PID.TID 0000.0001)   Seconds in section "MOM_CORRECTION_STEP [FORWARD_STEP]":
(PID.TID 0000.0001)           User time:   2.1200000000000188
(PID.TID 0000.0001)         System time:   0.0000000000000000
(PID.TID 0000.0001)     Wall clock time:   2.1299841403961182
(PID.TID 0000.0001)          No. starts:          20
(PID.TID 0000.0001)           No. stops:          20
(PID.TID 0000.0001)   Seconds in section "BLOCKING_EXCHANGES  [FORWARD_STEP]":
(PID.TID 0000.0001)           User time:  0.75000000000000000
(PID.TID 0000.0001)         System time:   0.0000000000000000
(PID.TID 0000.0001)     Wall clock time:  0.73161935806274414
(PID.TID 0000.0001)          No. starts:          40
(PID.TID 0000.0001)           No. stops:          40
(PID.TID 0000.0001)   Seconds in section "THERMODYNAMICS      [FORWARD_STEP]":
(PID.TID 0000.0001)           User time:   21.659999999999982
(PID.TID 0000.0001)         System time:   0.0000000000000000
(PID.TID 0000.0001)     Wall clock time:   21.687803983688354
(PID.TID 0000.0001)          No. starts:          20
(PID.TID 0000.0001)           No. stops:          20
(PID.TID 0000.0001)   Seconds in section "TRC_CORRECTION_STEP [FORWARD_STEP]":
(PID.TID 0000.0001)           User time:  0.32000000000000739
(PID.TID 0000.0001)         System time:   0.0000000000000000
(PID.TID 0000.0001)     Wall clock time:  0.34218072891235352
(PID.TID 0000.0001)          No. starts:          20
(PID.TID 0000.0001)           No. stops:          20
(PID.TID 0000.0001)   Seconds in section "DO_STATEVARS_TAVE   [FORWARD_STEP]":
(PID.TID 0000.0001)           User time:   0.0000000000000000
(PID.TID 0000.0001)         System time:   0.0000000000000000
(PID.TID 0000.0001)     Wall clock time:  1.96933746337890625E-004
(PID.TID 0000.0001)          No. starts:          20
(PID.TID 0000.0001)           No. stops:          20
(PID.TID 0000.0001)   Seconds in section "MONITOR             [FORWARD_STEP]":
(PID.TID 0000.0001)           User time:   6.6400000000000006
(PID.TID 0000.0001)         System time:   0.0000000000000000
(PID.TID 0000.0001)     Wall clock time:   6.6541733741760254
(PID.TID 0000.0001)          No. starts:          20
(PID.TID 0000.0001)           No. stops:          20
(PID.TID 0000.0001)   Seconds in section "DO_THE_MODEL_IO     [FORWARD_STEP]":
(PID.TID 0000.0001)           User time:  0.14000000000000057
(PID.TID 0000.0001)         System time:  2.99999999999999989E-002
(PID.TID 0000.0001)     Wall clock time:  0.17131757736206055
(PID.TID 0000.0001)          No. starts:          20
(PID.TID 0000.0001)           No. stops:          20
(PID.TID 0000.0001)   Seconds in section "DO_WRITE_PICKUP     [FORWARD_STEP]":
(PID.TID 0000.0001)           User time:  0.10999999999999943
(PID.TID 0000.0001)         System time:  2.99999999999999989E-002
(PID.TID 0000.0001)     Wall clock time:  0.12690401077270508
(PID.TID 0000.0001)          No. starts:          20
(PID.TID 0000.0001)           No. stops:          20
(PID.TID 0000.0001) // ======================================================
(PID.TID 0000.0001) // Tile <-> Tile communication statistics
(PID.TID 0000.0001) // ======================================================
(PID.TID 0000.0001) // o Tile number: 000001
(PID.TID 0000.0001) //         No. X exchanges =              0
(PID.TID 0000.0001) //            Max. X spins =              0
(PID.TID 0000.0001) //            Min. X spins =     1000000000
(PID.TID 0000.0001) //          Total. X spins =              0
(PID.TID 0000.0001) //            Avg. X spins =       0.00E+00
(PID.TID 0000.0001) //         No. Y exchanges =              0
(PID.TID 0000.0001) //            Max. Y spins =              0
(PID.TID 0000.0001) //            Min. Y spins =     1000000000
(PID.TID 0000.0001) //          Total. Y spins =              0
(PID.TID 0000.0001) //            Avg. Y spins =       0.00E+00
(PID.TID 0000.0001) // o Tile number: 000002
(PID.TID 0000.0001) //         No. X exchanges =              0
(PID.TID 0000.0001) //            Max. X spins =              0
(PID.TID 0000.0001) //            Min. X spins =     1000000000
(PID.TID 0000.0001) //          Total. X spins =              0
(PID.TID 0000.0001) //            Avg. X spins =       0.00E+00
(PID.TID 0000.0001) //         No. Y exchanges =              0
(PID.TID 0000.0001) //            Max. Y spins =              0
(PID.TID 0000.0001) //            Min. Y spins =     1000000000
(PID.TID 0000.0001) //          Total. Y spins =              0
(PID.TID 0000.0001) //            Avg. Y spins =       0.00E+00
(PID.TID 0000.0001) // o Tile number: 000003
(PID.TID 0000.0001) //         No. X exchanges =              0
(PID.TID 0000.0001) //            Max. X spins =              0
(PID.TID 0000.0001) //            Min. X spins =     1000000000
(PID.TID 0000.0001) //          Total. X spins =              0
(PID.TID 0000.0001) //            Avg. X spins =       0.00E+00
(PID.TID 0000.0001) //         No. Y exchanges =              0
(PID.TID 0000.0001) //            Max. Y spins =              0
(PID.TID 0000.0001) //            Min. Y spins =     1000000000
(PID.TID 0000.0001) //          Total. Y spins =              0
(PID.TID 0000.0001) //            Avg. Y spins =       0.00E+00
(PID.TID 0000.0001) // o Tile number: 000004
(PID.TID 0000.0001) //         No. X exchanges =              0
(PID.TID 0000.0001) //            Max. X spins =              0
(PID.TID 0000.0001) //            Min. X spins =     1000000000
(PID.TID 0000.0001) //          Total. X spins =              0
(PID.TID 0000.0001) //            Avg. X spins =       0.00E+00
(PID.TID 0000.0001) //         No. Y exchanges =              0
(PID.TID 0000.0001) //            Max. Y spins =              0
(PID.TID 0000.0001) //            Min. Y spins =     1000000000
(PID.TID 0000.0001) //          Total. Y spins =              0
(PID.TID 0000.0001) //            Avg. Y spins =       0.00E+00
(PID.TID 0000.0001) // o Tile number: 000005
(PID.TID 0000.0001) //         No. X exchanges =              0
(PID.TID 0000.0001) //            Max. X spins =              0
(PID.TID 0000.0001) //            Min. X spins =     1000000000
(PID.TID 0000.0001) //          Total. X spins =              0
(PID.TID 0000.0001) //            Avg. X spins =       0.00E+00
(PID.TID 0000.0001) //         No. Y exchanges =              0
(PID.TID 0000.0001) //            Max. Y spins =              0
(PID.TID 0000.0001) //            Min. Y spins =     1000000000
(PID.TID 0000.0001) //          Total. Y spins =              0
(PID.TID 0000.0001) //            Avg. Y spins =       0.00E+00
(PID.TID 0000.0001) // o Tile number: 000006
(PID.TID 0000.0001) //         No. X exchanges =              0
(PID.TID 0000.0001) //            Max. X spins =              0
(PID.TID 0000.0001) //            Min. X spins =     1000000000
(PID.TID 0000.0001) //          Total. X spins =              0
(PID.TID 0000.0001) //            Avg. X spins =       0.00E+00
(PID.TID 0000.0001) //         No. Y exchanges =              0
(PID.TID 0000.0001) //            Max. Y spins =              0
(PID.TID 0000.0001) //            Min. Y spins =     1000000000
(PID.TID 0000.0001) //          Total. Y spins =              0
(PID.TID 0000.0001) //            Avg. Y spins =       0.00E+00
(PID.TID 0000.0001) // o Tile number: 000007
(PID.TID 0000.0001) //         No. X exchanges =              0
(PID.TID 0000.0001) //            Max. X spins =              0
(PID.TID 0000.0001) //            Min. X spins =     1000000000
(PID.TID 0000.0001) //          Total. X spins =              0
(PID.TID 0000.0001) //            Avg. X spins =       0.00E+00
(PID.TID 0000.0001) //         No. Y exchanges =              0
(PID.TID 0000.0001) //            Max. Y spins =              0
(PID.TID 0000.0001) //            Min. Y spins =     1000000000
(PID.TID 0000.0001) //          Total. Y spins =              0
(PID.TID 0000.0001) //            Avg. Y spins =       0.00E+00
(PID.TID 0000.0001) // o Tile number: 000008
(PID.TID 0000.0001) //         No. X exchanges =              0
(PID.TID 0000.0001) //            Max. X spins =              0
(PID.TID 0000.0001) //            Min. X spins =     1000000000
(PID.TID 0000.0001) //          Total. X spins =              0
(PID.TID 0000.0001) //            Avg. X spins =       0.00E+00
(PID.TID 0000.0001) //         No. Y exchanges =              0
(PID.TID 0000.0001) //            Max. Y spins =              0
(PID.TID 0000.0001) //            Min. Y spins =     1000000000
(PID.TID 0000.0001) //          Total. Y spins =              0
(PID.TID 0000.0001) //            Avg. Y spins =       0.00E+00
(PID.TID 0000.0001) // o Tile number: 000009
(PID.TID 0000.0001) //         No. X exchanges =              0
(PID.TID 0000.0001) //            Max. X spins =              0
(PID.TID 0000.0001) //            Min. X spins =     1000000000
(PID.TID 0000.0001) //          Total. X spins =              0
(PID.TID 0000.0001) //            Avg. X spins =       0.00E+00
(PID.TID 0000.0001) //         No. Y exchanges =              0
(PID.TID 0000.0001) //            Max. Y spins =              0
(PID.TID 0000.0001) //            Min. Y spins =     1000000000
(PID.TID 0000.0001) //          Total. Y spins =              0
(PID.TID 0000.0001) //            Avg. Y spins =       0.00E+00
(PID.TID 0000.0001) // o Tile number: 000010
(PID.TID 0000.0001) //         No. X exchanges =              0
(PID.TID 0000.0001) //            Max. X spins =              0
(PID.TID 0000.0001) //            Min. X spins =     1000000000
(PID.TID 0000.0001) //          Total. X spins =              0
(PID.TID 0000.0001) //            Avg. X spins =       0.00E+00
(PID.TID 0000.0001) //         No. Y exchanges =              0
(PID.TID 0000.0001) //            Max. Y spins =              0
(PID.TID 0000.0001) //            Min. Y spins =     1000000000
(PID.TID 0000.0001) //          Total. Y spins =              0
(PID.TID 0000.0001) //            Avg. Y spins =       0.00E+00
(PID.TID 0000.0001) // o Tile number: 000011
(PID.TID 0000.0001) //         No. X exchanges =              0
(PID.TID 0000.0001) //            Max. X spins =              0
(PID.TID 0000.0001) //            Min. X spins =     1000000000
(PID.TID 0000.0001) //          Total. X spins =              0
(PID.TID 0000.0001) //            Avg. X spins =       0.00E+00
(PID.TID 0000.0001) //         No. Y exchanges =              0
(PID.TID 0000.0001) //            Max. Y spins =              0
(PID.TID 0000.0001) //            Min. Y spins =     1000000000
(PID.TID 0000.0001) //          Total. Y spins =              0
(PID.TID 0000.0001) //            Avg. Y spins =       0.00E+00
(PID.TID 0000.0001) // o Tile number: 000012
(PID.TID 0000.0001) //         No. X exchanges =              0
(PID.TID 0000.0001) //            Max. X spins =              0
(PID.TID 0000.0001) //            Min. X spins =     1000000000
(PID.TID 0000.0001) //          Total. X spins =              0
(PID.TID 0000.0001) //            Avg. X spins =       0.00E+00
(PID.TID 0000.0001) //         No. Y exchanges =              0
(PID.TID 0000.0001) //            Max. Y spins =              0
(PID.TID 0000.0001) //            Min. Y spins =     1000000000
(PID.TID 0000.0001) //          Total. Y spins =              0
(PID.TID 0000.0001) //            Avg. Y spins =       0.00E+00
(PID.TID 0000.0001) // o Tile number: 000013
(PID.TID 0000.0001) //         No. X exchanges =              0
(PID.TID 0000.0001) //            Max. X spins =              0
(PID.TID 0000.0001) //            Min. X spins =     1000000000
(PID.TID 0000.0001) //          Total. X spins =              0
(PID.TID 0000.0001) //            Avg. X spins =       0.00E+00
(PID.TID 0000.0001) //         No. Y exchanges =              0
(PID.TID 0000.0001) //            Max. Y spins =              0
(PID.TID 0000.0001) //            Min. Y spins =     1000000000
(PID.TID 0000.0001) //          Total. Y spins =              0
(PID.TID 0000.0001) //            Avg. Y spins =       0.00E+00
(PID.TID 0000.0001) // o Tile number: 000014
(PID.TID 0000.0001) //         No. X exchanges =              0
(PID.TID 0000.0001) //            Max. X spins =              0
(PID.TID 0000.0001) //            Min. X spins =     1000000000
(PID.TID 0000.0001) //          Total. X spins =              0
(PID.TID 0000.0001) //            Avg. X spins =       0.00E+00
(PID.TID 0000.0001) //         No. Y exchanges =              0
(PID.TID 0000.0001) //            Max. Y spins =              0
(PID.TID 0000.0001) //            Min. Y spins =     1000000000
(PID.TID 0000.0001) //          Total. Y spins =              0
(PID.TID 0000.0001) //            Avg. Y spins =       0.00E+00
(PID.TID 0000.0001) // o Tile number: 000015
(PID.TID 0000.0001) //         No. X exchanges =              0
(PID.TID 0000.0001) //            Max. X spins =              0
(PID.TID 0000.0001) //            Min. X spins =     1000000000
(PID.TID 0000.0001) //          Total. X spins =              0
(PID.TID 0000.0001) //            Avg. X spins =       0.00E+00
(PID.TID 0000.0001) //         No. Y exchanges =              0
(PID.TID 0000.0001) //            Max. Y spins =              0
(PID.TID 0000.0001) //            Min. Y spins =     1000000000
(PID.TID 0000.0001) //          Total. Y spins =              0
(PID.TID 0000.0001) //            Avg. Y spins =       0.00E+00
(PID.TID 0000.0001) // o Tile number: 000016
(PID.TID 0000.0001) //         No. X exchanges =              0
(PID.TID 0000.0001) //            Max. X spins =              0
(PID.TID 0000.0001) //            Min. X spins =     1000000000
(PID.TID 0000.0001) //          Total. X spins =              0
(PID.TID 0000.0001) //            Avg. X spins =       0.00E+00
(PID.TID 0000.0001) //         No. Y exchanges =              0
(PID.TID 0000.0001) //            Max. Y spins =              0
(PID.TID 0000.0001) //            Min. Y spins =     1000000000
(PID.TID 0000.0001) //          Total. Y spins =              0
(PID.TID 0000.0001) //            Avg. Y spins =       0.00E+00
(PID.TID 0000.0001) // o Tile number: 000017
(PID.TID 0000.0001) //         No. X exchanges =              0
(PID.TID 0000.0001) //            Max. X spins =              0
(PID.TID 0000.0001) //            Min. X spins =     1000000000
(PID.TID 0000.0001) //          Total. X spins =              0
(PID.TID 0000.0001) //            Avg. X spins =       0.00E+00
(PID.TID 0000.0001) //         No. Y exchanges =              0
(PID.TID 0000.0001) //            Max. Y spins =              0
(PID.TID 0000.0001) //            Min. Y spins =     1000000000
(PID.TID 0000.0001) //          Total. Y spins =              0
(PID.TID 0000.0001) //            Avg. Y spins =       0.00E+00
(PID.TID 0000.0001) // o Tile number: 000018
(PID.TID 0000.0001) //         No. X exchanges =              0
(PID.TID 0000.0001) //            Max. X spins =              0
(PID.TID 0000.0001) //            Min. X spins =     1000000000
(PID.TID 0000.0001) //          Total. X spins =              0
(PID.TID 0000.0001) //            Avg. X spins =       0.00E+00
(PID.TID 0000.0001) //         No. Y exchanges =              0
(PID.TID 0000.0001) //            Max. Y spins =              0
(PID.TID 0000.0001) //            Min. Y spins =     1000000000
(PID.TID 0000.0001) //          Total. Y spins =              0
(PID.TID 0000.0001) //            Avg. Y spins =       0.00E+00
(PID.TID 0000.0001) // o Tile number: 000019
(PID.TID 0000.0001) //         No. X exchanges =              0
(PID.TID 0000.0001) //            Max. X spins =              0
(PID.TID 0000.0001) //            Min. X spins =     1000000000
(PID.TID 0000.0001) //          Total. X spins =              0
(PID.TID 0000.0001) //            Avg. X spins =       0.00E+00
(PID.TID 0000.0001) //         No. Y exchanges =              0
(PID.TID 0000.0001) //            Max. Y spins =              0
(PID.TID 0000.0001) //            Min. Y spins =     1000000000
(PID.TID 0000.0001) //          Total. Y spins =              0
(PID.TID 0000.0001) //            Avg. Y spins =       0.00E+00
(PID.TID 0000.0001) // o Tile number: 000020
(PID.TID 0000.0001) //         No. X exchanges =              0
(PID.TID 0000.0001) //            Max. X spins =              0
(PID.TID 0000.0001) //            Min. X spins =     1000000000
(PID.TID 0000.0001) //          Total. X spins =              0
(PID.TID 0000.0001) //            Avg. X spins =       0.00E+00
(PID.TID 0000.0001) //         No. Y exchanges =              0
(PID.TID 0000.0001) //            Max. Y spins =              0
(PID.TID 0000.0001) //            Min. Y spins =     1000000000
(PID.TID 0000.0001) //          Total. Y spins =              0
(PID.TID 0000.0001) //            Avg. Y spins =       0.00E+00
(PID.TID 0000.0001) // o Tile number: 000021
(PID.TID 0000.0001) //         No. X exchanges =              0
(PID.TID 0000.0001) //            Max. X spins =              0
(PID.TID 0000.0001) //            Min. X spins =     1000000000
(PID.TID 0000.0001) //          Total. X spins =              0
(PID.TID 0000.0001) //            Avg. X spins =       0.00E+00
(PID.TID 0000.0001) //         No. Y exchanges =              0
(PID.TID 0000.0001) //            Max. Y spins =              0
(PID.TID 0000.0001) //            Min. Y spins =     1000000000
(PID.TID 0000.0001) //          Total. Y spins =              0
(PID.TID 0000.0001) //            Avg. Y spins =       0.00E+00
(PID.TID 0000.0001) // o Tile number: 000022
(PID.TID 0000.0001) //         No. X exchanges =              0
(PID.TID 0000.0001) //            Max. X spins =              0
(PID.TID 0000.0001) //            Min. X spins =     1000000000
(PID.TID 0000.0001) //          Total. X spins =              0
(PID.TID 0000.0001) //            Avg. X spins =       0.00E+00
(PID.TID 0000.0001) //         No. Y exchanges =              0
(PID.TID 0000.0001) //            Max. Y spins =              0
(PID.TID 0000.0001) //            Min. Y spins =     1000000000
(PID.TID 0000.0001) //          Total. Y spins =              0
(PID.TID 0000.0001) //            Avg. Y spins =       0.00E+00
(PID.TID 0000.0001) // o Tile number: 000023
(PID.TID 0000.0001) //         No. X exchanges =              0
(PID.TID 0000.0001) //            Max. X spins =              0
(PID.TID 0000.0001) //            Min. X spins =     1000000000
(PID.TID 0000.0001) //          Total. X spins =              0
(PID.TID 0000.0001) //            Avg. X spins =       0.00E+00
(PID.TID 0000.0001) //         No. Y exchanges =              0
(PID.TID 0000.0001) //            Max. Y spins =              0
(PID.TID 0000.0001) //            Min. Y spins =     1000000000
(PID.TID 0000.0001) //          Total. Y spins =              0
(PID.TID 0000.0001) //            Avg. Y spins =       0.00E+00
(PID.TID 0000.0001) // o Tile number: 000024
(PID.TID 0000.0001) //         No. X exchanges =              0
(PID.TID 0000.0001) //            Max. X spins =              0
(PID.TID 0000.0001) //            Min. X spins =     1000000000
(PID.TID 0000.0001) //          Total. X spins =              0
(PID.TID 0000.0001) //            Avg. X spins =       0.00E+00
(PID.TID 0000.0001) //         No. Y exchanges =              0
(PID.TID 0000.0001) //            Max. Y spins =              0
(PID.TID 0000.0001) //            Min. Y spins =     1000000000
(PID.TID 0000.0001) //          Total. Y spins =              0
(PID.TID 0000.0001) //            Avg. Y spins =       0.00E+00
(PID.TID 0000.0001) // o Thread number: 000001
(PID.TID 0000.0001) //            No. barriers =          13998
(PID.TID 0000.0001) //      Max. barrier spins =              1
(PID.TID 0000.0001) //      Min. barrier spins =              1
(PID.TID 0000.0001) //     Total barrier spins =          13998
(PID.TID 0000.0001) //      Avg. barrier spins =       1.00E+00
PROGRAM MAIN: Execution ended Normally
