(PID.TID 0000.0001) 
(PID.TID 0000.0001) // ======================================================
(PID.TID 0000.0001) //                      MITgcm UV
(PID.TID 0000.0001) //                      =========
(PID.TID 0000.0001) // ======================================================
(PID.TID 0000.0001) // execution environment starting up...
(PID.TID 0000.0001) 
(PID.TID 0000.0001) // MITgcmUV version:  checkpoint62y
(PID.TID 0000.0001) // Build user:        jmc
(PID.TID 0000.0001) // Build host:        baudelaire
(PID.TID 0000.0001) // Build date:        Wed Jun  8 02:19:49 EDT 2011
(PID.TID 0000.0001) 
(PID.TID 0000.0001) // =======================================================
(PID.TID 0000.0001) // Execution Environment parameter file "eedata"
(PID.TID 0000.0001) // =======================================================
(PID.TID 0000.0001) ># Example "eedata" file
(PID.TID 0000.0001) ># Lines beginning "#" are comments
(PID.TID 0000.0001) ># nTx - No. threads per process in X
(PID.TID 0000.0001) ># nTy - No. threads per process in Y
(PID.TID 0000.0001) > &EEPARMS
(PID.TID 0000.0001) > nTx=1,
(PID.TID 0000.0001) > nTy=1,
(PID.TID 0000.0001) > /
(PID.TID 0000.0001) ># Note: Some systems use & as the
(PID.TID 0000.0001) ># namelist terminator. Other systems
(PID.TID 0000.0001) ># use a / character (as shown here).
(PID.TID 0000.0001) 
(PID.TID 0000.0001) // =======================================================
(PID.TID 0000.0001) // Computational Grid Specification ( see files "SIZE.h" )
(PID.TID 0000.0001) //                                  ( and "eedata"       )
(PID.TID 0000.0001) // =======================================================
(PID.TID 0000.0001)      nPx =    1 ; /* No. processes in X */
(PID.TID 0000.0001)      nPy =    1 ; /* No. processes in Y */
(PID.TID 0000.0001)      nSx =    1 ; /* No. tiles in X per process */
(PID.TID 0000.0001)      nSy =    1 ; /* No. tiles in Y per process */
(PID.TID 0000.0001)      sNx =   64 ; /* Tile size in X */
(PID.TID 0000.0001)      sNy =   64 ; /* Tile size in Y */
(PID.TID 0000.0001)      OLx =    2 ; /* Tile overlap distance in X */
(PID.TID 0000.0001)      OLy =    2 ; /* Tile overlap distance in Y */
(PID.TID 0000.0001)      nTx =    1 ; /* No. threads in X per process */
(PID.TID 0000.0001)      nTy =    1 ; /* No. threads in Y per process */
(PID.TID 0000.0001)       Nr =    8 ; /* No. levels in the vertical   */
(PID.TID 0000.0001)       Nx =   64 ; /* Total domain size in X ( = nPx*nSx*sNx ) */
(PID.TID 0000.0001)       Ny =   64 ; /* Total domain size in Y ( = nPy*nSy*sNy ) */
(PID.TID 0000.0001)   nTiles =    1 ; /* Total no. tiles per process ( = nSx*nSy ) */
(PID.TID 0000.0001)   nProcs =    1 ; /* Total no. processes ( = nPx*nPy ) */
(PID.TID 0000.0001) nThreads =    1 ; /* Total no. threads per process ( = nTx*nTy ) */
(PID.TID 0000.0001) usingMPI =    F ; /* Flag used to control whether MPI is in use */
(PID.TID 0000.0001)                   /*  note: To execute a program with MPI calls */
(PID.TID 0000.0001)                   /*  it must be launched appropriately e.g     */
(PID.TID 0000.0001)                   /*  "mpirun -np 64 ......"                    */
(PID.TID 0000.0001) useCoupler=    F ;/* Flag used to control communications with   */
(PID.TID 0000.0001)                   /*  other model components, through a coupler */
(PID.TID 0000.0001) debugMode =    F ; /* print debug msg. (sequence of S/R calls)  */
(PID.TID 0000.0001) printMapIncludesZeros=    F ; /* print zeros in Std.Output maps */
(PID.TID 0000.0001) maxLengthPrt1D=   65 /* maxLength of 1D array printed to StdOut */
(PID.TID 0000.0001) 
(PID.TID 0000.0001) // ======================================================
(PID.TID 0000.0001) // Mapping of tiles to threads
(PID.TID 0000.0001) // ======================================================
(PID.TID 0000.0001) // -o- Thread   1, tiles (   1:   1,   1:   1)
(PID.TID 0000.0001) 
(PID.TID 0000.0001) // ======================================================
(PID.TID 0000.0001) // Tile <-> Tile connectvity table
(PID.TID 0000.0001) // ======================================================
(PID.TID 0000.0001) // Tile number: 000001 (process no. = 000001)
(PID.TID 0000.0001) //        WEST: Tile = 000001, Process = 000001, Comm = put
(PID.TID 0000.0001) //                bi = 000001, bj = 000001
(PID.TID 0000.0001) //        EAST: Tile = 000001, Process = 000001, Comm = put
(PID.TID 0000.0001) //                bi = 000001, bj = 000001
(PID.TID 0000.0001) //       SOUTH: Tile = 000001, Process = 000001, Comm = put
(PID.TID 0000.0001) //                bi = 000001, bj = 000001
(PID.TID 0000.0001) //       NORTH: Tile = 000001, Process = 000001, Comm = put
(PID.TID 0000.0001) //                bi = 000001, bj = 000001
(PID.TID 0000.0001) 
(PID.TID 0000.0001)  INI_PARMS: opening model parameter file "data"
(PID.TID 0000.0001)  OPEN_COPY_DATA_FILE: opening file data
(PID.TID 0000.0001) // =======================================================
(PID.TID 0000.0001) // Parameter file "data"
(PID.TID 0000.0001) // =======================================================
(PID.TID 0000.0001) ># Model parameters
(PID.TID 0000.0001) ># Continuous equation parameters
(PID.TID 0000.0001) > &PARM01
(PID.TID 0000.0001) > tRef=20.,16.,12.,10., 9., 8., 7., 6.,
(PID.TID 0000.0001) > sRef=35.,35.,35.,35.,35.,35.,35.,35.,
(PID.TID 0000.0001) > viscAz=1.E-4,
(PID.TID 0000.0001) > viscAh=1.E1,
(PID.TID 0000.0001) > no_slip_sides=.FALSE.,
(PID.TID 0000.0001) > no_slip_bottom=.TRUE.,
(PID.TID 0000.0001) > diffKhT=0.E0,
(PID.TID 0000.0001) > diffKzT=0.E-5,
(PID.TID 0000.0001) > rotationPeriod=86400.,
(PID.TID 0000.0001) > beta=1.E-11,
(PID.TID 0000.0001) > eosType='LINEAR',
(PID.TID 0000.0001) > tAlpha=2.E-4,
(PID.TID 0000.0001) > sBeta =0.,
(PID.TID 0000.0001) > gravity=9.81,
(PID.TID 0000.0001) > rigidLid=.FALSE.,
(PID.TID 0000.0001) > implicitFreeSurface=.TRUE.,
(PID.TID 0000.0001) > readBinaryPrec=32,
(PID.TID 0000.0001) ># extras...
(PID.TID 0000.0001) > implicitDiffusion=.true.,
(PID.TID 0000.0001) > implicitViscosity=.true.,
(PID.TID 0000.0001) > vectorInvariantMomentum=.TRUE.,
(PID.TID 0000.0001) > staggerTimeStep=.TRUE.,
(PID.TID 0000.0001) > multiDimAdvection=.FALSE.,
(PID.TID 0000.0001) > tempAdvScheme=30,
(PID.TID 0000.0001) > saltAdvScheme=30,
(PID.TID 0000.0001) > writeBinaryPrec=32,
(PID.TID 0000.0001) > /
(PID.TID 0000.0001) ># Elliptic solver parameters
(PID.TID 0000.0001) > &PARM02
(PID.TID 0000.0001) > cg2dMaxIters=500,
(PID.TID 0000.0001) > cg2dTargetResidual=1.E-8,
(PID.TID 0000.0001) > /
(PID.TID 0000.0001) ># Time stepping parameters
(PID.TID 0000.0001) > &PARM03
(PID.TID 0000.0001) > startTime=0.,
(PID.TID 0000.0001) > endTime=21600.,
(PID.TID 0000.0001) > deltaTmom=1200.0,
(PID.TID 0000.0001) > deltaTtracer=1200.0,
(PID.TID 0000.0001) > dumpInitAndLast=.TRUE.,
(PID.TID 0000.0001) > abEps=0.1,
(PID.TID 0000.0001) > pChkptFreq=0.0,
(PID.TID 0000.0001) > chkptFreq=0.0,
(PID.TID 0000.0001) > dumpFreq=2628000.0,
(PID.TID 0000.0001) >#monitorFreq=432000.,
(PID.TID 0000.0001) > monitorFreq=3600.,
(PID.TID 0000.0001) > monitorSelect=1,
(PID.TID 0000.0001) > /
(PID.TID 0000.0001) ># Gridding parameters
(PID.TID 0000.0001) > &PARM04
(PID.TID 0000.0001) > usingSphericalPolarGrid=.TRUE.,
(PID.TID 0000.0001) > ygOrigin=25.,
(PID.TID 0000.0001) > delX=64*0.25,
(PID.TID 0000.0001) > delY=64*0.25,
(PID.TID 0000.0001) > delZ=500.,500.,500.,500.,500.,500.,500.,500.,
(PID.TID 0000.0001) > /
(PID.TID 0000.0001) > &PARM05
(PID.TID 0000.0001) > bathyFile='topog.box',
(PID.TID 0000.0001) > uVelInitFile=   'Uini.bin',
(PID.TID 0000.0001) > vVelInitFile=   'Vini.bin',
(PID.TID 0000.0001) >#hydrogThetaFile=,
(PID.TID 0000.0001) >#hydrogSaltFile=,
(PID.TID 0000.0001) >#zonalWindFile=,
(PID.TID 0000.0001) >#meridWindFile=,
(PID.TID 0000.0001) > /
(PID.TID 0000.0001) 
(PID.TID 0000.0001)  INI_PARMS ; starts to read PARM01
(PID.TID 0000.0001)  INI_PARMS ; read PARM01 : OK
(PID.TID 0000.0001)  INI_PARMS ; starts to read PARM02
(PID.TID 0000.0001)  INI_PARMS ; read PARM02 : OK
(PID.TID 0000.0001)  INI_PARMS ; starts to read PARM03
(PID.TID 0000.0001)  INI_PARMS ; read PARM03 : OK
(PID.TID 0000.0001)  INI_PARMS ; starts to read PARM04
(PID.TID 0000.0001)  INI_PARMS ; read PARM04 : OK
(PID.TID 0000.0001)  INI_PARMS ; starts to read PARM05
(PID.TID 0000.0001)  INI_PARMS ; read PARM05 : OK
(PID.TID 0000.0001)  INI_PARMS: finished reading file "data"
(PID.TID 0000.0001)  PACKAGES_BOOT: opening data.pkg
(PID.TID 0000.0001)  OPEN_COPY_DATA_FILE: opening file data.pkg
(PID.TID 0000.0001) // =======================================================
(PID.TID 0000.0001) // Parameter file "data.pkg"
(PID.TID 0000.0001) // =======================================================
(PID.TID 0000.0001) ># Packages
(PID.TID 0000.0001) > &PACKAGES
(PID.TID 0000.0001) > useECCO=.TRUE.,
(PID.TID 0000.0001) > useOBCS=.TRUE.,
(PID.TID 0000.0001) > useEXF=.TRUE.,
(PID.TID 0000.0001) > useDiagnostics=.TRUE.,
(PID.TID 0000.0001) > useGrdchk = .TRUE.,
(PID.TID 0000.0001) > /
(PID.TID 0000.0001) 
(PID.TID 0000.0001)  PACKAGES_BOOT: finished reading data.pkg
(PID.TID 0000.0001) CAL_READPARMS: opening data.cal
(PID.TID 0000.0001)  OPEN_COPY_DATA_FILE: opening file data.cal
(PID.TID 0000.0001) // =======================================================
(PID.TID 0000.0001) // Parameter file "data.cal"
(PID.TID 0000.0001) // =======================================================
(PID.TID 0000.0001) ># *******************
(PID.TID 0000.0001) ># Calendar Parameters
(PID.TID 0000.0001) ># *******************
(PID.TID 0000.0001) > &CAL_NML
(PID.TID 0000.0001) > TheCalendar='gregorian',
(PID.TID 0000.0001) ># TheCalendar='model',
(PID.TID 0000.0001) > startDate_1=20070101,
(PID.TID 0000.0001) > startDate_2= 000000,
(PID.TID 0000.0001) > /
(PID.TID 0000.0001) 
(PID.TID 0000.0001) CAL_READPARMS: finished reading data.cal
(PID.TID 0000.0001) 
(PID.TID 0000.0001) // =======================================================
(PID.TID 0000.0001) // Calendar configuration >>> START <<<
(PID.TID 0000.0001) // =======================================================
(PID.TID 0000.0001) 
(PID.TID 0000.0001) Calendar version: 0.2.0
(PID.TID 0000.0001) 
(PID.TID 0000.0001) startTime =   /* Start time of the model integration [s] */
(PID.TID 0000.0001)                 0.000000000000000E+00
(PID.TID 0000.0001)     ;
(PID.TID 0000.0001) endTime =   /* End time of the model integration [s] */
(PID.TID 0000.0001)                 2.160000000000000E+04
(PID.TID 0000.0001)     ;
(PID.TID 0000.0001) deltatclock =   /* Time interval for a model forward step [s] */
(PID.TID 0000.0001)                 1.200000000000000E+03
(PID.TID 0000.0001)     ;
(PID.TID 0000.0001) usingGregorianCalendar =  /* Calendar Type: Gregorian Calendar */
(PID.TID 0000.0001)                   T
(PID.TID 0000.0001)     ;
(PID.TID 0000.0001) usingJulianCalendar =  /* Calendar Type: Julian Calendar */
(PID.TID 0000.0001)                   F
(PID.TID 0000.0001)     ;
(PID.TID 0000.0001) usingModelCalendar =  /* Calendar Type: Model Calendar */
(PID.TID 0000.0001)                   F
(PID.TID 0000.0001)     ;
(PID.TID 0000.0001) usingNoCalendar =  /* Calendar Type: No Calendar */
(PID.TID 0000.0001)                   F
(PID.TID 0000.0001)     ;
(PID.TID 0000.0001) modelstartdate (YYYYMMDD) =   /* Model start date YYYY-MM-DD  */
(PID.TID 0000.0001)                20070101
(PID.TID 0000.0001)     ;
(PID.TID 0000.0001) modelstartdate (HHMMSS) =   /* Model start date HH-MM-SS  */
(PID.TID 0000.0001)                       0
(PID.TID 0000.0001)     ;
(PID.TID 0000.0001) modelenddate (YYYYMMDD) =   /* Model end date YYYY-MM-DD  */
(PID.TID 0000.0001)                20070101
(PID.TID 0000.0001)     ;
(PID.TID 0000.0001) modelenddate (HHMMSS) =   /* Model end date HH-MM-SS  */
(PID.TID 0000.0001)                   60000
(PID.TID 0000.0001)     ;
(PID.TID 0000.0001) intyears = /* Number of calendar years affected by the integration */
(PID.TID 0000.0001)                       1
(PID.TID 0000.0001)     ;
(PID.TID 0000.0001) intmonths= /* Number of calendar months affected by the integration */
(PID.TID 0000.0001)                       1
(PID.TID 0000.0001)     ;
(PID.TID 0000.0001) intdays = /* Number of calendar days affected by the integration */
(PID.TID 0000.0001)                       1
(PID.TID 0000.0001)     ;
(PID.TID 0000.0001) 
(PID.TID 0000.0001) // =======================================================
(PID.TID 0000.0001) // Calendar configuration  >>> END <<<
(PID.TID 0000.0001) // =======================================================
(PID.TID 0000.0001) 
(PID.TID 0000.0001) EXF_READPARMS: opening data.exf
(PID.TID 0000.0001)  OPEN_COPY_DATA_FILE: opening file data.exf
(PID.TID 0000.0001) // =======================================================
(PID.TID 0000.0001) // Parameter file "data.exf"
(PID.TID 0000.0001) // =======================================================
(PID.TID 0000.0001) ># *********************
(PID.TID 0000.0001) ># External Forcing Data
(PID.TID 0000.0001) ># *********************
(PID.TID 0000.0001) > &EXF_NML_01
(PID.TID 0000.0001) >#
(PID.TID 0000.0001) > useExfCheckRange = .FALSE.,
(PID.TID 0000.0001) > exf_iprec         = 32,
(PID.TID 0000.0001) > exf_monFreq=0.,
(PID.TID 0000.0001) > /
(PID.TID 0000.0001) >#
(PID.TID 0000.0001) > &EXF_NML_02
(PID.TID 0000.0001) >#
(PID.TID 0000.0001) >#
(PID.TID 0000.0001) > /
(PID.TID 0000.0001) >#
(PID.TID 0000.0001) > &EXF_NML_03
(PID.TID 0000.0001) >#
(PID.TID 0000.0001) >#
(PID.TID 0000.0001) > /
(PID.TID 0000.0001) >#
(PID.TID 0000.0001) > &EXF_NML_04
(PID.TID 0000.0001) >#
(PID.TID 0000.0001) >#
(PID.TID 0000.0001) > /
(PID.TID 0000.0001) >#
(PID.TID 0000.0001) > &EXF_NML_OBCS
(PID.TID 0000.0001) >#
(PID.TID 0000.0001) > obcsNstartdate1     = 20061231,
(PID.TID 0000.0001) > obcsNstartdate2     = 00000,
(PID.TID 0000.0001) > obcsNperiod         = 00.0,
(PID.TID 0000.0001) >#
(PID.TID 0000.0001) > obcsSstartdate1     = 20061231,
(PID.TID 0000.0001) > obcsSstartdate2     = 00000,
(PID.TID 0000.0001) > obcsSperiod         = 00.0,
(PID.TID 0000.0001) >#
(PID.TID 0000.0001) > obcsWstartdate1     = 20061231,
(PID.TID 0000.0001) > obcsWstartdate2     = 00000,
(PID.TID 0000.0001) > obcsWperiod         = 00.0,
(PID.TID 0000.0001) >#
(PID.TID 0000.0001) > obcsEstartdate1     = 20061231,
(PID.TID 0000.0001) > obcsEstartdate2     = 00000,
(PID.TID 0000.0001) > obcsEperiod         = 00.0,
(PID.TID 0000.0001) >#
(PID.TID 0000.0001) > /
(PID.TID 0000.0001) 
(PID.TID 0000.0001) EXF_READPARMS: reading EXF_NML_01
(PID.TID 0000.0001) EXF_READPARMS: reading EXF_NML_02
(PID.TID 0000.0001) EXF_READPARMS: reading EXF_NML_03
(PID.TID 0000.0001) EXF_READPARMS: reading EXF_NML_04
(PID.TID 0000.0001) EXF_READPARMS: reading EXF_NML_OBCS
(PID.TID 0000.0001) EXF_READPARMS: finished reading data.exf
(PID.TID 0000.0001)  OBCS_READPARMS: opening data.obcs
(PID.TID 0000.0001)  OPEN_COPY_DATA_FILE: opening file data.obcs
(PID.TID 0000.0001) // =======================================================
(PID.TID 0000.0001) // Parameter file "data.obcs"
(PID.TID 0000.0001) // =======================================================
(PID.TID 0000.0001) ># ***************
(PID.TID 0000.0001) ># Open boundaries
(PID.TID 0000.0001) ># ***************
(PID.TID 0000.0001) > &OBCS_PARM01
(PID.TID 0000.0001) > OB_Jnorth=   64*64,
(PID.TID 0000.0001) > OB_Jsouth=   64*1,
(PID.TID 0000.0001) > OB_Iwest=    64*1,
(PID.TID 0000.0001) > OB_Ieast=    64*64,
(PID.TID 0000.0001) >
(PID.TID 0000.0001) >#
(PID.TID 0000.0001) > useOrlanskiNorth=.FALSE.,
(PID.TID 0000.0001) > useOBCSsponge=.TRUE.,
(PID.TID 0000.0001) > useOBCSbalance=.FALSE.,
(PID.TID 0000.0001) > useOBCSprescribe=.TRUE.,
(PID.TID 0000.0001) >#
(PID.TID 0000.0001) > OBNuFile='Unbc.bin',
(PID.TID 0000.0001) > OBNvFile='Vnbc.bin',
(PID.TID 0000.0001) > OBNtFile='Tnbc.bin',
(PID.TID 0000.0001) > OBNsFile='Snbc.bin',
(PID.TID 0000.0001) >#
(PID.TID 0000.0001) > OBSuFile='Usbc.bin',
(PID.TID 0000.0001) > OBSvFile='Vsbc.bin',
(PID.TID 0000.0001) > OBStFile='Tsbc.bin',
(PID.TID 0000.0001) > OBSsFile='Ssbc.bin',
(PID.TID 0000.0001) >#
(PID.TID 0000.0001) > OBWuFile='Uwbc.bin',
(PID.TID 0000.0001) > OBWvFile='Vwbc.bin',
(PID.TID 0000.0001) > OBWtFile='Twbc.bin',
(PID.TID 0000.0001) > OBWsFile='Swbc.bin',
(PID.TID 0000.0001) >#
(PID.TID 0000.0001) > OBEuFile='Uebc.bin',
(PID.TID 0000.0001) > OBEvFile='Vebc.bin',
(PID.TID 0000.0001) > OBEtFile='Tebc.bin',
(PID.TID 0000.0001) > OBEsFile='Sebc.bin',
(PID.TID 0000.0001) >#
(PID.TID 0000.0001) > /
(PID.TID 0000.0001) >
(PID.TID 0000.0001) ># *****************************************
(PID.TID 0000.0001) ># Orlanski Boundary Condition Parameters.
(PID.TID 0000.0001) ># *****************************************
(PID.TID 0000.0001) > &OBCS_PARM02
(PID.TID 0000.0001) ># cvelTimeScale = 2000.,
(PID.TID 0000.0001) > /
(PID.TID 0000.0001) >
(PID.TID 0000.0001) ># *****************************************
(PID.TID 0000.0001) ># Sponge Layer Parameters.
(PID.TID 0000.0001) ># *****************************************
(PID.TID 0000.0001) > &OBCS_PARM03
(PID.TID 0000.0001) > Urelaxobcsinner=432000.E0,
(PID.TID 0000.0001) > Urelaxobcsbound=43200.E0,
(PID.TID 0000.0001) > Vrelaxobcsinner=432000.E0,
(PID.TID 0000.0001) > Vrelaxobcsbound=43200.E0,
(PID.TID 0000.0001) > spongeThickness=08,
(PID.TID 0000.0001) > /
(PID.TID 0000.0001) >
(PID.TID 0000.0001) 
(PID.TID 0000.0001)  OBCS_READPARMS: finished reading data.obcs
(PID.TID 0000.0001)  Northern OB global indices : OB_Jnorth =
(PID.TID 0000.0001)    64 @       64                            /* I =  1: 64 */
(PID.TID 0000.0001)  Southern OB global indices : OB_Jsouth =
(PID.TID 0000.0001)    64 @        1                            /* I =  1: 64 */
(PID.TID 0000.0001)  Eastern  OB global indices : OB_Ieast =
(PID.TID 0000.0001)    64 @       64                            /* J =  1: 64 */
(PID.TID 0000.0001)  Western  OB global indices : OB_Iwest =
(PID.TID 0000.0001)    64 @        1                            /* J =  1: 64 */
(PID.TID 0000.0001) 
(PID.TID 0000.0001) OPTIM_READPARMS: opening data.optim
(PID.TID 0000.0001)  OPEN_COPY_DATA_FILE: opening file data.optim
(PID.TID 0000.0001) // =======================================================
(PID.TID 0000.0001) // Parameter file "data.optim"
(PID.TID 0000.0001) // =======================================================
(PID.TID 0000.0001) ># ********************************
(PID.TID 0000.0001) ># Off-line optimization parameters
(PID.TID 0000.0001) ># ********************************
(PID.TID 0000.0001) > &OPTIM
(PID.TID 0000.0001) > optimcycle=0,
(PID.TID 0000.0001) > numiter=1,
(PID.TID 0000.0001) > nfunc=3,
(PID.TID 0000.0001) > fmin=30.0,
(PID.TID 0000.0001) > iprint=10,
(PID.TID 0000.0001) > nupdate=4,
(PID.TID 0000.0001) > /
(PID.TID 0000.0001) 
(PID.TID 0000.0001) OPTIM_READPARMS: finished reading data.optim
(PID.TID 0000.0001) CTRL_READPARMS: opening data.ctrl
(PID.TID 0000.0001)  OPEN_COPY_DATA_FILE: opening file data.ctrl
(PID.TID 0000.0001) // =======================================================
(PID.TID 0000.0001) // Parameter file "data.ctrl"
(PID.TID 0000.0001) // =======================================================
(PID.TID 0000.0001) ># *********************
(PID.TID 0000.0001) ># ECCO controlvariables
(PID.TID 0000.0001) ># *********************
(PID.TID 0000.0001) > &CTRL_NML
(PID.TID 0000.0001) >## doMainPack   =  .TRUE.,
(PID.TID 0000.0001) >## doMainUnpack =  .TRUE.,
(PID.TID 0000.0001) > doinitxx = .TRUE.,
(PID.TID 0000.0001) > doPackDiag = .FALSE.,
(PID.TID 0000.0001) > doZscalePack = .FALSE.,
(PID.TID 0000.0001) > delZexp = 1.,
(PID.TID 0000.0001) ># doSinglePrecTapelev = .TRUE.,
(PID.TID 0000.0001) >#
(PID.TID 0000.0001) > xx_obcsnstartdate1 = 20070101,
(PID.TID 0000.0001) > xx_obcsnstartdate2 =    00000,
(PID.TID 0000.0001) > xx_obcsnperiod     =      0.0,
(PID.TID 0000.0001) > xx_obcsn_file = 'xx_obcsn',
(PID.TID 0000.0001) >#
(PID.TID 0000.0001) > xx_obcssstartdate1 = 20070101,
(PID.TID 0000.0001) > xx_obcssstartdate2 =    00000,
(PID.TID 0000.0001) > xx_obcssperiod     =      0.0,
(PID.TID 0000.0001) > xx_obcss_file = 'xx_obcss',
(PID.TID 0000.0001) >#
(PID.TID 0000.0001) > xx_obcswstartdate1 = 20070101,
(PID.TID 0000.0001) > xx_obcswstartdate2 =   00000,
(PID.TID 0000.0001) > xx_obcswperiod     =     0.0,
(PID.TID 0000.0001) > xx_obcsw_file = 'xx_obcsw',
(PID.TID 0000.0001) >#
(PID.TID 0000.0001) > xx_obcsestartdate1 = 20070101,
(PID.TID 0000.0001) > xx_obcsestartdate2 =    00000,
(PID.TID 0000.0001) > xx_obcseperiod     =      0.0,
(PID.TID 0000.0001) > xx_obcse_file = 'xx_obcse',
(PID.TID 0000.0001) > /
(PID.TID 0000.0001) >#
(PID.TID 0000.0001) ># *********************
(PID.TID 0000.0001) ># names for ctrl_pack/unpack
(PID.TID 0000.0001) ># *********************
(PID.TID 0000.0001) > &CTRL_PACKNAMES
(PID.TID 0000.0001) > ctrlname = 'ecco_ctrl',
(PID.TID 0000.0001) > costname = 'ecco_cost',
(PID.TID 0000.0001) > /
(PID.TID 0000.0001) 
(PID.TID 0000.0001) CTRL_READPARMS: finished reading data.ctrl
(PID.TID 0000.0001) COST_READPARMS: opening data.cost
(PID.TID 0000.0001)  OPEN_COPY_DATA_FILE: opening file data.cost
(PID.TID 0000.0001) // =======================================================
(PID.TID 0000.0001) // Parameter file "data.cost"
(PID.TID 0000.0001) // =======================================================
(PID.TID 0000.0001) ># ******************
(PID.TID 0000.0001) ># cost function
(PID.TID 0000.0001) ># ******************
(PID.TID 0000.0001) > &COST_NML
(PID.TID 0000.0001) > /
(PID.TID 0000.0001) 
(PID.TID 0000.0001) COST_READPARMS: finished reading data.cost
(PID.TID 0000.0001) GRDCHK_READPARMS: opening data.grdchk
(PID.TID 0000.0001)  OPEN_COPY_DATA_FILE: opening file data.grdchk
(PID.TID 0000.0001) // =======================================================
(PID.TID 0000.0001) // Parameter file "data.grdchk"
(PID.TID 0000.0001) // =======================================================
(PID.TID 0000.0001) >
(PID.TID 0000.0001) ># *******************
(PID.TID 0000.0001) ># ECCO gradient check
(PID.TID 0000.0001) ># *******************
(PID.TID 0000.0001) > &GRDCHK_NML
(PID.TID 0000.0001) > grdchk_eps       = 1.d-4,
(PID.TID 0000.0001) ># nbeg             = 4,
(PID.TID 0000.0001) > iGloPos          = 1,
(PID.TID 0000.0001) > jGloPos          = 32,
(PID.TID 0000.0001) > kGloPos          = 4,
(PID.TID 0000.0001) > nstep            = 1,
(PID.TID 0000.0001) > nend             = 4,
(PID.TID 0000.0001) > grdchkvarindex   = 13,
(PID.TID 0000.0001) > /
(PID.TID 0000.0001) 
(PID.TID 0000.0001) GRDCHK_READPARMS: finished reading data.grdchk
(PID.TID 0000.0001) 
(PID.TID 0000.0001) // =======================================================
(PID.TID 0000.0001) // Gradient check configuration  >>> START <<<
(PID.TID 0000.0001) // =======================================================
(PID.TID 0000.0001) 
(PID.TID 0000.0001)   eps:                              0.100E-03
(PID.TID 0000.0001)   First location:                           0
(PID.TID 0000.0001)   Last location:                            4
(PID.TID 0000.0001)   Increment:                                1
(PID.TID 0000.0001) 
(PID.TID 0000.0001) // =======================================================
(PID.TID 0000.0001) // Gradient check configuration  >>> END <<<
(PID.TID 0000.0001) // =======================================================
(PID.TID 0000.0001) 
(PID.TID 0000.0001) ECCO_READPARMS: opening data.ecco
(PID.TID 0000.0001)  OPEN_COPY_DATA_FILE: opening file data.ecco
(PID.TID 0000.0001) // =======================================================
(PID.TID 0000.0001) // Parameter file "data.ecco"
(PID.TID 0000.0001) // =======================================================
(PID.TID 0000.0001) ># ******************
(PID.TID 0000.0001) ># ECCO cost function
(PID.TID 0000.0001) ># ******************
(PID.TID 0000.0001) > &ECCO_COST_NML
(PID.TID 0000.0001) > data_errfile    = 'data.err',
(PID.TID 0000.0001) > tbarfile        = 'tbar',
(PID.TID 0000.0001) >#
(PID.TID 0000.0001) > temp0errfile    = 'errorTtot.err',
(PID.TID 0000.0001) >#  temperrfile     = 'errorTtot.err',
(PID.TID 0000.0001) > tdatfile        = 'FinalThetaObs.bin',
(PID.TID 0000.0001) >#
(PID.TID 0000.0001) >#
(PID.TID 0000.0001) > mult_temp0  = 1.0,
(PID.TID 0000.0001) > mult_temp   = 1.0,
(PID.TID 0000.0001) > mult_obcsn  = 1.0,
(PID.TID 0000.0001) > mult_obcss  = 1.0,
(PID.TID 0000.0001) > mult_obcsw  = 1.0,
(PID.TID 0000.0001) > mult_obcse  = 1.0,
(PID.TID 0000.0001) >#
(PID.TID 0000.0001) > cost_iprec  = 32,
(PID.TID 0000.0001) > cost_yftype = 'RL',
(PID.TID 0000.0001) > /
(PID.TID 0000.0001) 
(PID.TID 0000.0001) ECCO_READPARMS: finished reading #1: ecco_cost_nml
(PID.TID 0000.0001) ECCO_READPARMS: start assigning cost dates
(PID.TID 0000.0001) ECCO_READPARMS: end assigning cost dates
(PID.TID 0000.0001) ECCO_READPARMS: done
(PID.TID 0000.0001)  DIAGNOSTICS_READPARMS: opening data.diagnostics
(PID.TID 0000.0001)  OPEN_COPY_DATA_FILE: opening file data.diagnostics
(PID.TID 0000.0001) // =======================================================
(PID.TID 0000.0001) // Parameter file "data.diagnostics"
(PID.TID 0000.0001) // =======================================================
(PID.TID 0000.0001) ># Diagnostic Package Choices
(PID.TID 0000.0001) >#-----------------
(PID.TID 0000.0001) ># for each output-stream:
(PID.TID 0000.0001) >#  filename(n) : prefix of the output file name (only 8.c long) for outp.stream n
(PID.TID 0000.0001) >#  frequency(n):< 0 : write snap-shot output every |frequency| seconds
(PID.TID 0000.0001) >#               > 0 : write time-average output every frequency seconds
(PID.TID 0000.0001) >#  timePhase(n)     : write at time = timePhase + multiple of |frequency|
(PID.TID 0000.0001) >#  levels(:,n) : list of levels to write to file (Notes: declared as REAL)
(PID.TID 0000.0001) >#                 when this entry is missing, select all common levels of this list
(PID.TID 0000.0001) >#  fields(:,n) : list of diagnostics fields (8.c) (see "available_diagnostics.log"
(PID.TID 0000.0001) >#                 file for the list of all available diag. in this particular config)
(PID.TID 0000.0001) >#-----------------
(PID.TID 0000.0001) > &diagnostics_list
(PID.TID 0000.0001) ># diag_mnc     = .FALSE.,
(PID.TID 0000.0001) ># do not specify levels => all levels are selected
(PID.TID 0000.0001) >#---
(PID.TID 0000.0001) >#  frequency(1) = 864000.0,
(PID.TID 0000.0001) >#   fields(1,1) = 'DRHODR  ',
(PID.TID 0000.0001) >#   filename(1) = 'dRhodz_5',
(PID.TID 0000.0001) >#---
(PID.TID 0000.0001) > /
(PID.TID 0000.0001) >#
(PID.TID 0000.0001) ># Parameter for Diagnostics of per level statistics:
(PID.TID 0000.0001) >#-----------------
(PID.TID 0000.0001) ># for each output-stream:
(PID.TID 0000.0001) >#  stat_fname(n) : prefix of the output file name (only 8.c long) for outp.stream n
(PID.TID 0000.0001) >#  stat_freq(n):< 0 : write snap-shot output every |stat_freq| seconds
(PID.TID 0000.0001) >#               > 0 : write time-average output every stat_freq seconds
(PID.TID 0000.0001) >#  stat_phase(n)    : write at time = stat_phase + multiple of |stat_freq|
(PID.TID 0000.0001) >#  stat_region(:,n) : list of "regions" (default: 1 region only=global)
(PID.TID 0000.0001) >#  stat_fields(:,n) : list of diagnostics fields (8.c) (see "available_diagnostics.log"
(PID.TID 0000.0001) >#                 file for the list of all available diag. in this particular config)
(PID.TID 0000.0001) >#-----------------
(PID.TID 0000.0001) > &DIAG_STATIS_PARMS
(PID.TID 0000.0001) ># an example just to check the agreement with MONITOR output:
(PID.TID 0000.0001) ># stat_fields(1,1)= 'ETAN    ','UVEL    ','VVEL    ','WVEL    ', 'THETA   ',
(PID.TID 0000.0001) >#    stat_fname(1)= 'dynStDiag',
(PID.TID 0000.0001) >#     stat_freq(1)= -864000.,
(PID.TID 0000.0001) >#    stat_phase(1)= 0.,
(PID.TID 0000.0001) > /
(PID.TID 0000.0001) 
(PID.TID 0000.0001) S/R DIAGNOSTICS_READPARMS, read namelist "diagnostics_list": start
(PID.TID 0000.0001) S/R DIAGNOSTICS_READPARMS, read namelist "diagnostics_list": OK
(PID.TID 0000.0001) S/R DIAGNOSTICS_READPARMS, read namelist "DIAG_STATIS_PARMS": start
(PID.TID 0000.0001) S/R DIAGNOSTICS_READPARMS, read namelist "DIAG_STATIS_PARMS": OK
(PID.TID 0000.0001) -----------------------------------------------------
(PID.TID 0000.0001)  DIAGNOSTICS_READPARMS: active diagnostics summary:
(PID.TID 0000.0001) -----------------------------------------------------
(PID.TID 0000.0001) -----------------------------------------------------
(PID.TID 0000.0001)  DIAGNOSTICS_READPARMS: statistics diags. summary:
(PID.TID 0000.0001) -----------------------------------------------------
(PID.TID 0000.0001) 
(PID.TID 0000.0001) SET_PARMS: done
(PID.TID 0000.0001) Enter INI_VERTICAL_GRID: setInterFDr=    T ; setCenterDr=    F
(PID.TID 0000.0001) %MON XC_max                       =   1.5875000000000E+01
(PID.TID 0000.0001) %MON XC_min                       =   1.2500000000000E-01
(PID.TID 0000.0001) %MON XC_mean                      =   8.0000000000000E+00
(PID.TID 0000.0001) %MON XC_sd                        =   4.6182383004778E+00
(PID.TID 0000.0001) %MON XG_max                       =   1.5750000000000E+01
(PID.TID 0000.0001) %MON XG_min                       =   0.0000000000000E+00
(PID.TID 0000.0001) %MON XG_mean                      =   7.8750000000000E+00
(PID.TID 0000.0001) %MON XG_sd                        =   4.6182383004778E+00
(PID.TID 0000.0001) %MON DXC_max                      =   2.5164565846439E+04
(PID.TID 0000.0001) %MON DXC_min                      =   2.1016408153767E+04
(PID.TID 0000.0001) %MON DXC_mean                     =   2.3234669796800E+04
(PID.TID 0000.0001) %MON DXC_sd                       =   1.2196670107312E+03
(PID.TID 0000.0001) %MON DXF_max                      =   2.5164565846439E+04
(PID.TID 0000.0001) %MON DXF_min                      =   2.1016408153767E+04
(PID.TID 0000.0001) %MON DXF_mean                     =   2.3234669796800E+04
(PID.TID 0000.0001) %MON DXF_sd                       =   1.2196670107312E+03
(PID.TID 0000.0001) %MON DXG_max                      =   2.5190252460503E+04
(PID.TID 0000.0001) %MON DXG_min                      =   2.1056040215949E+04
(PID.TID 0000.0001) %MON DXG_mean                     =   2.3267533068028E+04
(PID.TID 0000.0001) %MON DXG_sd                       =   1.2155846267781E+03
(PID.TID 0000.0001) %MON DXV_max                      =   2.5190252460503E+04
(PID.TID 0000.0001) %MON DXV_min                      =   2.1056040215949E+04
(PID.TID 0000.0001) %MON DXV_mean                     =   2.3267533068028E+04
(PID.TID 0000.0001) %MON DXV_sd                       =   1.2155846267781E+03
(PID.TID 0000.0001) %MON YC_max                       =   4.0875000000000E+01
(PID.TID 0000.0001) %MON YC_min                       =   2.5125000000000E+01
(PID.TID 0000.0001) %MON YC_mean                      =   3.3000000000000E+01
(PID.TID 0000.0001) %MON YC_sd                        =   4.6182383004778E+00
(PID.TID 0000.0001) %MON YG_max                       =   4.0750000000000E+01
(PID.TID 0000.0001) %MON YG_min                       =   2.5000000000000E+01
(PID.TID 0000.0001) %MON YG_mean                      =   3.2875000000000E+01
(PID.TID 0000.0001) %MON YG_sd                        =   4.6182383004778E+00
(PID.TID 0000.0001) %MON DYC_max                      =   2.7794368338010E+04
(PID.TID 0000.0001) %MON DYC_min                      =   2.7794368338010E+04
(PID.TID 0000.0001) %MON DYC_mean                     =   2.7794368338008E+04
(PID.TID 0000.0001) %MON DYC_sd                       =   1.8117134459317E-09
(PID.TID 0000.0001) %MON DYF_max                      =   2.7794368338010E+04
(PID.TID 0000.0001) %MON DYF_min                      =   2.7794368338010E+04
(PID.TID 0000.0001) %MON DYF_mean                     =   2.7794368338008E+04
(PID.TID 0000.0001) %MON DYF_sd                       =   1.8117134459317E-09
(PID.TID 0000.0001) %MON DYG_max                      =   2.7794368338010E+04
(PID.TID 0000.0001) %MON DYG_min                      =   2.7794368338010E+04
(PID.TID 0000.0001) %MON DYG_mean                     =   2.7794368338008E+04
(PID.TID 0000.0001) %MON DYG_sd                       =   1.8117134459317E-09
(PID.TID 0000.0001) %MON DYU_max                      =   2.7794368338010E+04
(PID.TID 0000.0001) %MON DYU_min                      =   2.7794368338010E+04
(PID.TID 0000.0001) %MON DYU_mean                     =   2.7794368338008E+04
(PID.TID 0000.0001) %MON DYU_sd                       =   1.8117134459317E-09
(PID.TID 0000.0001) %MON RA_max                       =   6.9943265735959E+08
(PID.TID 0000.0001) %MON RA_min                       =   5.8413732598622E+08
(PID.TID 0000.0001) %MON RA_mean                      =   6.4579245825328E+08
(PID.TID 0000.0001) %MON RA_sd                        =   3.3899847254083E+07
(PID.TID 0000.0001) %MON RAW_max                      =   6.9943265735959E+08
(PID.TID 0000.0001) %MON RAW_min                      =   5.8413732598622E+08
(PID.TID 0000.0001) %MON RAW_mean                     =   6.4579245825328E+08
(PID.TID 0000.0001) %MON RAW_sd                       =   3.3899847254083E+07
(PID.TID 0000.0001) %MON RAS_max                      =   7.0014660000591E+08
(PID.TID 0000.0001) %MON RAS_min                      =   5.8523887324667E+08
(PID.TID 0000.0001) %MON RAS_mean                     =   6.4670587139401E+08
(PID.TID 0000.0001) %MON RAS_sd                       =   3.3786380060803E+07
(PID.TID 0000.0001) %MON RAZ_max                      =   7.0014660000591E+08
(PID.TID 0000.0001) %MON RAZ_min                      =   5.8523887324667E+08
(PID.TID 0000.0001) %MON RAZ_mean                     =   6.4670587139401E+08
(PID.TID 0000.0001) %MON RAZ_sd                       =   3.3786380060803E+07
(PID.TID 0000.0001) %MON AngleCS_max                  =   1.0000000000000E+00
(PID.TID 0000.0001) %MON AngleCS_min                  =   1.0000000000000E+00
(PID.TID 0000.0001) %MON AngleCS_mean                 =   1.0000000000000E+00
(PID.TID 0000.0001) %MON AngleCS_sd                   =   0.0000000000000E+00
(PID.TID 0000.0001) %MON AngleSN_max                  =   0.0000000000000E+00
(PID.TID 0000.0001) %MON AngleSN_min                  =   0.0000000000000E+00
(PID.TID 0000.0001) %MON AngleSN_mean                 =   0.0000000000000E+00
(PID.TID 0000.0001) %MON AngleSN_sd                   =   0.0000000000000E+00
(PID.TID 0000.0001) GAD_INIT_FIXED: GAD_OlMinSize=  2  0  1
(PID.TID 0000.0001) 
(PID.TID 0000.0001) // ===================================
(PID.TID 0000.0001) // GAD parameters :
(PID.TID 0000.0001) // ===================================
(PID.TID 0000.0001) tempAdvScheme =   /* Temp. Horiz.Advection scheme selector */
(PID.TID 0000.0001)                      30
(PID.TID 0000.0001)     ;
(PID.TID 0000.0001) tempVertAdvScheme =   /* Temp. Vert. Advection scheme selector */
(PID.TID 0000.0001)                      30
(PID.TID 0000.0001)     ;
(PID.TID 0000.0001) tempMultiDimAdvec =   /* use Muti-Dim Advec method for Temp */
(PID.TID 0000.0001)                   F
(PID.TID 0000.0001)     ;
(PID.TID 0000.0001) tempSOM_Advection = /* use 2nd Order Moment Advection for Temp */
(PID.TID 0000.0001)                   F
(PID.TID 0000.0001)     ;
(PID.TID 0000.0001) AdamsBashforthGt = /* apply Adams-Bashforth extrapolation on Gt */
(PID.TID 0000.0001)                   F
(PID.TID 0000.0001)     ;
(PID.TID 0000.0001) AdamsBashforth_T = /* apply Adams-Bashforth extrapolation on Temp */
(PID.TID 0000.0001)                   F
(PID.TID 0000.0001)     ;
(PID.TID 0000.0001) saltAdvScheme =   /* Salt. Horiz.advection scheme selector */
(PID.TID 0000.0001)                      30
(PID.TID 0000.0001)     ;
(PID.TID 0000.0001) saltVertAdvScheme =   /* Salt. Vert. Advection scheme selector */
(PID.TID 0000.0001)                      30
(PID.TID 0000.0001)     ;
(PID.TID 0000.0001) saltMultiDimAdvec =   /* use Muti-Dim Advec method for Salt */
(PID.TID 0000.0001)                   F
(PID.TID 0000.0001)     ;
(PID.TID 0000.0001) saltSOM_Advection = /* use 2nd Order Moment Advection for Salt */
(PID.TID 0000.0001)                   F
(PID.TID 0000.0001)     ;
(PID.TID 0000.0001) AdamsBashforthGs = /* apply Adams-Bashforth extrapolation on Gs */
(PID.TID 0000.0001)                   F
(PID.TID 0000.0001)     ;
(PID.TID 0000.0001) AdamsBashforth_S = /* apply Adams-Bashforth extrapolation on Salt */
(PID.TID 0000.0001)                   F
(PID.TID 0000.0001)     ;
(PID.TID 0000.0001) // ===================================
(PID.TID 0000.0001) 
(PID.TID 0000.0001) // =======================================================
(PID.TID 0000.0001) // External forcing configuration >>> START <<<
(PID.TID 0000.0001) // =======================================================
(PID.TID 0000.0001) 
(PID.TID 0000.0001)  EXF general parameters:
(PID.TID 0000.0001) 
(PID.TID 0000.0001) exf_yftype =  /* ? */
(PID.TID 0000.0001)               'RL'
(PID.TID 0000.0001)     ;
(PID.TID 0000.0001) exf_iprec = /* exf file precision */
(PID.TID 0000.0001)                      32
(PID.TID 0000.0001)     ;
(PID.TID 0000.0001) useExfYearlyFields = /* add extension _YEAR to input file names */
(PID.TID 0000.0001)                   F
(PID.TID 0000.0001)     ;
(PID.TID 0000.0001) twoDigitYear = /* use 2-digit year extension */
(PID.TID 0000.0001)                   F
(PID.TID 0000.0001)     ;
(PID.TID 0000.0001) exf_verbose = /* print more messages to STDOUT */
(PID.TID 0000.0001)                   F
(PID.TID 0000.0001)     ;
(PID.TID 0000.0001) useExfCheckRange = /* check for fields range */
(PID.TID 0000.0001)                   F
(PID.TID 0000.0001)     ;
(PID.TID 0000.0001) exf_monFreq = /* EXF monitor frequency [ s ] */
(PID.TID 0000.0001)                 0.000000000000000E+00
(PID.TID 0000.0001)     ;
(PID.TID 0000.0001) repeatPeriod = /* period for cycling forcing dataset [ s ] */
(PID.TID 0000.0001)                 0.000000000000000E+00
(PID.TID 0000.0001)     ;
(PID.TID 0000.0001) climTempFreeze= /* Minimum climatological temperature [deg.C] */
(PID.TID 0000.0001)                -1.900000000000000E+00
(PID.TID 0000.0001)     ;
(PID.TID 0000.0001) windStressMax = /* Maximum absolute windstress [ Pa ] */
(PID.TID 0000.0001)                 2.000000000000000E+00
(PID.TID 0000.0001)     ;
(PID.TID 0000.0001) stressIsOnCgrid = /* set u,v_stress on Arakawa C-grid */
(PID.TID 0000.0001)                   F
(PID.TID 0000.0001)     ;
(PID.TID 0000.0001) cen2kel = /* conversion of deg. Centigrade to Kelvin [K] */
(PID.TID 0000.0001)                 2.731500000000000E+02
(PID.TID 0000.0001)     ;
(PID.TID 0000.0001) gravity_mks= /* gravitational acceleration [m/s^2] */
(PID.TID 0000.0001)                 9.810000000000000E+00
(PID.TID 0000.0001)     ;
(PID.TID 0000.0001) atmrho =  /* mean atmospheric density [kg/m^3] */
(PID.TID 0000.0001)                 1.200000000000000E+00
(PID.TID 0000.0001)     ;
(PID.TID 0000.0001) atmcp =  /* mean atmospheric specific heat [J/kg/K] */
(PID.TID 0000.0001)                 1.005000000000000E+03
(PID.TID 0000.0001)     ;
(PID.TID 0000.0001) flamb =  /* latent heat of evaporation [J/kg] */
(PID.TID 0000.0001)                 2.500000000000000E+06
(PID.TID 0000.0001)     ;
(PID.TID 0000.0001) flami =  /* latent heat of pure-ice melting [J/kg] */
(PID.TID 0000.0001)                 3.340000000000000E+05
(PID.TID 0000.0001)     ;
(PID.TID 0000.0001) cvapor_fac = /* const. for Saturation calculation [?] */
(PID.TID 0000.0001)                 6.403800000000000E+05
(PID.TID 0000.0001)     ;
(PID.TID 0000.0001) cvapor_exp = /* const. for Saturation calculation [?] */
(PID.TID 0000.0001)                 5.107400000000000E+03
(PID.TID 0000.0001)     ;
(PID.TID 0000.0001) cvapor_fac_ice= /* const. for Saturation calculation [?] */
(PID.TID 0000.0001)                 1.163780000000000E+07
(PID.TID 0000.0001)     ;
(PID.TID 0000.0001) cvapor_exp_ice= /* const. for Saturation calculation [?] */
(PID.TID 0000.0001)                 5.897800000000000E+03
(PID.TID 0000.0001)     ;
(PID.TID 0000.0001) humid_fac = /* humidity coef. in virtual temp. [(kg/kg)^-1] */
(PID.TID 0000.0001)                 6.060000000000000E-01
(PID.TID 0000.0001)     ;
(PID.TID 0000.0001) gamma_blk = /* adiabatic lapse rate [?] */
(PID.TID 0000.0001)                 1.000000000000000E-02
(PID.TID 0000.0001)     ;
(PID.TID 0000.0001) saltsat = /* reduction of Qsat over salty water [-] */
(PID.TID 0000.0001)                 9.800000000000000E-01
(PID.TID 0000.0001)     ;
(PID.TID 0000.0001) noNegativeEvap = /* prevent negative Evaporation */
(PID.TID 0000.0001)                   F
(PID.TID 0000.0001)     ;
(PID.TID 0000.0001) sstExtrapol = /* extrapolation coeff from lev. 1 & 2 to surf [-] */
(PID.TID 0000.0001)                 0.000000000000000E+00
(PID.TID 0000.0001)     ;
(PID.TID 0000.0001) cDrag_1 = /* coef used in drag calculation [?] */
(PID.TID 0000.0001)                 2.700000000000000E-03
(PID.TID 0000.0001)     ;
(PID.TID 0000.0001) cDrag_2 = /* coef used in drag calculation [?] */
(PID.TID 0000.0001)                 1.420000000000000E-04
(PID.TID 0000.0001)     ;
(PID.TID 0000.0001) cDrag_3 = /* coef used in drag calculation [?] */
(PID.TID 0000.0001)                 7.640000000000000E-05
(PID.TID 0000.0001)     ;
(PID.TID 0000.0001) cStanton_1 = /* coef used in Stanton number calculation [?] */
(PID.TID 0000.0001)                 3.270000000000000E-02
(PID.TID 0000.0001)     ;
(PID.TID 0000.0001) cStanton_2 = /* coef used in Stanton number calculation [?] */
(PID.TID 0000.0001)                 1.800000000000000E-02
(PID.TID 0000.0001)     ;
(PID.TID 0000.0001) cDalton = /* coef used in Dalton number calculation [?] */
(PID.TID 0000.0001)                 3.460000000000000E-02
(PID.TID 0000.0001)     ;
(PID.TID 0000.0001) exf_scal_BulkCdn= /* Drag coefficient scaling factor [-] */
(PID.TID 0000.0001)                 1.000000000000000E+00
(PID.TID 0000.0001)     ;
(PID.TID 0000.0001) zolmin = /* minimum stability parameter [?] */
(PID.TID 0000.0001)                -1.000000000000000E+02
(PID.TID 0000.0001)     ;
(PID.TID 0000.0001) psim_fac = /* coef used in turbulent fluxes calculation [-] */
(PID.TID 0000.0001)                 5.000000000000000E+00
(PID.TID 0000.0001)     ;
(PID.TID 0000.0001) zref =  /* reference height [ m ] */
(PID.TID 0000.0001)                 1.000000000000000E+01
(PID.TID 0000.0001)     ;
(PID.TID 0000.0001) hu =  /* height of mean wind [ m ] */
(PID.TID 0000.0001)                 1.000000000000000E+01
(PID.TID 0000.0001)     ;
(PID.TID 0000.0001) ht =  /* height of mean temperature [ m ] */
(PID.TID 0000.0001)                 2.000000000000000E+00
(PID.TID 0000.0001)     ;
(PID.TID 0000.0001) hq =  /* height of mean spec.humidity [ m ] */
(PID.TID 0000.0001)                 2.000000000000000E+00
(PID.TID 0000.0001)     ;
(PID.TID 0000.0001) uMin = /* minimum wind speed [m/s] */
(PID.TID 0000.0001)                 5.000000000000000E-01
(PID.TID 0000.0001)     ;
(PID.TID 0000.0001) useStabilityFct_overIce= /* transfert Coeffs over sea-ice depend on stability */
(PID.TID 0000.0001)                   F
(PID.TID 0000.0001)     ;
(PID.TID 0000.0001) exf_iceCd = /* drag coefficient over sea-ice (fixed) [-] */
(PID.TID 0000.0001)                 1.630000000000000E-03
(PID.TID 0000.0001)     ;
(PID.TID 0000.0001) exf_iceCe = /* transfert coeff. over sea-ice, for Evap (fixed) [-] */
(PID.TID 0000.0001)                 1.630000000000000E-03
(PID.TID 0000.0001)     ;
(PID.TID 0000.0001) exf_iceCh = /* transfert coeff. over sea-ice, Sens.Heat.(fixed)[-] */
(PID.TID 0000.0001)                 1.630000000000000E-03
(PID.TID 0000.0001)     ;
(PID.TID 0000.0001) exf_albedo =  /* Sea-water albedo [-] */
(PID.TID 0000.0001)                 1.000000000000000E-01
(PID.TID 0000.0001)     ;
(PID.TID 0000.0001) useExfZenAlbedo = /* Sea-water albedo varies with zenith angle */
(PID.TID 0000.0001)                   F
(PID.TID 0000.0001)     ;
(PID.TID 0000.0001) select_ZenAlbedo = /* Sea-water albedo computation method */
(PID.TID 0000.0001)                       0
(PID.TID 0000.0001)     ;
(PID.TID 0000.0001) useExfZenIncoming = /* compute incoming solar radiation */
(PID.TID 0000.0001)                   F
(PID.TID 0000.0001)     ;
(PID.TID 0000.0001) ocean_emissivity = /* longwave ocean-surface emissivity [-] */
(PID.TID 0000.0001)                 9.700176366843034E-01
(PID.TID 0000.0001)     ;
(PID.TID 0000.0001) ice_emissivity = /* longwave seaice emissivity [-] */
(PID.TID 0000.0001)                 9.500000000000000E-01
(PID.TID 0000.0001)     ;
(PID.TID 0000.0001) snow_emissivity = /* longwave snow  emissivity [-] */
(PID.TID 0000.0001)                 9.500000000000000E-01
(PID.TID 0000.0001)     ;
(PID.TID 0000.0001) 
(PID.TID 0000.0001)  EXF main CPP flags:
(PID.TID 0000.0001) 
(PID.TID 0000.0001) // ALLOW_ATM_TEMP:                 NOT defined
(PID.TID 0000.0001) // ALLOW_ATM_WIND:                 NOT defined
(PID.TID 0000.0001) // ALLOW_DOWNWARD_RADIATION:       NOT defined
(PID.TID 0000.0001) // ALLOW_BULKFORMULAE:             NOT defined
(PID.TID 0000.0001) 
(PID.TID 0000.0001)    Zonal wind stress forcing starts at                   0.
(PID.TID 0000.0001)    Zonal wind stress forcing period is                   0.
(PID.TID 0000.0001)    Zonal wind stress forcing is read from file:
(PID.TID 0000.0001)    >>    <<
(PID.TID 0000.0001) 
(PID.TID 0000.0001)    Meridional wind stress forcing starts at              0.
(PID.TID 0000.0001)    Meridional wind stress forcing period is              0.
(PID.TID 0000.0001)    Meridional wind stress forcing is read from file:
(PID.TID 0000.0001)    >>    <<
(PID.TID 0000.0001) 
(PID.TID 0000.0001)    Heat flux forcing starts at                          0.
(PID.TID 0000.0001)    Heat flux forcing period is                           0.
(PID.TID 0000.0001)    Heat flux forcing is read from file:
(PID.TID 0000.0001)    >>    <<
(PID.TID 0000.0001) 
(PID.TID 0000.0001)    Salt flux forcing starts at                           0.
(PID.TID 0000.0001)    Salt flux forcing period is                           0.
(PID.TID 0000.0001)    Salt flux forcing is read from file:
(PID.TID 0000.0001)    >>    <<
(PID.TID 0000.0001) 
(PID.TID 0000.0001)    Net shortwave flux forcing starts at                0.
(PID.TID 0000.0001)    Net shortwave flux forcing period is                0.
(PID.TID 0000.0001)    Net shortwave flux forcing is read from file:
(PID.TID 0000.0001)    >>    <<
(PID.TID 0000.0001) 
(PID.TID 0000.0001) // EXF_READ_EVAP:                  NOT defined
(PID.TID 0000.0001) 
(PID.TID 0000.0001) // ALLOW_RUNOFF:                   NOT defined
(PID.TID 0000.0001) 
(PID.TID 0000.0001)    Atmospheric pressure forcing starts at                0.
(PID.TID 0000.0001)    Atmospheric pressure forcing period is                0.
(PID.TID 0000.0001)    Atmospheric pressureforcing is read from file:
(PID.TID 0000.0001)    >>    <<
(PID.TID 0000.0001) 
(PID.TID 0000.0001) // =======================================================
(PID.TID 0000.0001) // External forcing configuration  >>> END <<<
(PID.TID 0000.0001) // =======================================================
(PID.TID 0000.0001) 
(PID.TID 0000.0001) 
(PID.TID 0000.0001) // =======================================================
(PID.TID 0000.0001) // External forcing climatology configuration >>> START <<<
(PID.TID 0000.0001) // =======================================================
(PID.TID 0000.0001) 
(PID.TID 0000.0001) // ALLOW_CLIMSST_RELAXATION:       NOT defined
(PID.TID 0000.0001) // ALLOW_CLIMSSS_RELAXATION:       NOT defined
(PID.TID 0000.0001) 
(PID.TID 0000.0001) // =======================================================
(PID.TID 0000.0001) // External forcing climatology configuration  >>> END <<<
(PID.TID 0000.0001) // =======================================================
(PID.TID 0000.0001) 
(PID.TID 0000.0001)  OPEN_COPY_DATA_FILE: opening file data.err
(PID.TID 0000.0001) // =======================================================
(PID.TID 0000.0001) // Parameter file "data.err"
(PID.TID 0000.0001) // =======================================================
(PID.TID 0000.0001) >1, 0.0001
(PID.TID 0000.0001) >0.50000, 0.100000, 0.1
(PID.TID 0000.0001) >0.50000, 0.100000, 0.1
(PID.TID 0000.0001) >0.50000, 0.100000, 0.1
(PID.TID 0000.0001) >0.50000, 0.100000, 0.1
(PID.TID 0000.0001) >0.50000, 0.100000, 0.1
(PID.TID 0000.0001) >0.50000, 0.100000, 0.1
(PID.TID 0000.0001) >0.50000, 0.100000, 0.1
(PID.TID 0000.0001) >0.50000, 0.100000, 0.1
(PID.TID 0000.0001) 
(PID.TID 0000.0001) 
(PID.TID 0000.0001) // =======================================================
(PID.TID 0000.0001) // ECCO cost function configuration  >>> START <<<
(PID.TID 0000.0001) // =======================================================
(PID.TID 0000.0001) 
(PID.TID 0000.0001)   Multipliers for the indivdual cost function contributions:
(PID.TID 0000.0001) 
(PID.TID 0000.0001)   Net heat flux:                 0.000E+00
(PID.TID 0000.0001)   Salt flux:                     0.000E+00
(PID.TID 0000.0001)   Zonal wind stress:             0.000E+00
(PID.TID 0000.0001)   Meridional wind stress:        0.000E+00
(PID.TID 0000.0001)   Mean sea surface height:       0.000E+00
(PID.TID 0000.0001)   Sea surface height anomalies:  0.100E+01
(PID.TID 0000.0001)   Temperature Lev.:              0.100E+01
(PID.TID 0000.0001)   Salinity Lev.:                 0.000E+00
(PID.TID 0000.0001)   Temperature ini.:              0.100E+01
(PID.TID 0000.0001)   Salinity ini.:                 0.000E+00
(PID.TID 0000.0001)   Sea level ini.:                0.000E+00
(PID.TID 0000.0001)   zonal velocity ini.:           0.000E+00
(PID.TID 0000.0001)   merid velocity ini.:           0.000E+00
(PID.TID 0000.0001)   TMI Sea surface temperature:   0.000E+00
(PID.TID 0000.0001)   Sea surface temperature:       0.000E+00
(PID.TID 0000.0001)   Sea surface salinity:         0.000E+00
(PID.TID 0000.0001)   CTD temperature:               0.000E+00
(PID.TID 0000.0001)   CTD salinity:                  0.000E+00
(PID.TID 0000.0001)   CTD clim temperature:          0.000E+00
(PID.TID 0000.0001)   CTD clim salinity:             0.000E+00
(PID.TID 0000.0001)   XBT Temperature:               0.000E+00
(PID.TID 0000.0001)   ARGO Temperature:               0.000E+00
(PID.TID 0000.0001)   ARGO Salt:                      0.000E+00
(PID.TID 0000.0001)   drifter velocities:            0.000E+00
(PID.TID 0000.0001)   drift between last and 1st year: 0.000E+00
(PID.TID 0000.0001)   drift between last and 1st year: 0.000E+00
(PID.TID 0000.0001)   Ageostrophic bdy flow:         0.000E+00
(PID.TID 0000.0001)   OB North:                      0.100E+01
(PID.TID 0000.0001)   OB South:                      0.100E+01
(PID.TID 0000.0001)   OB West:                       0.100E+01
(PID.TID 0000.0001)   OB East:                       0.100E+01
(PID.TID 0000.0001) 
(PID.TID 0000.0001) 
(PID.TID 0000.0001)   Temperature data are read from: FinalThetaObs.bin
(PID.TID 0000.0001)   Salinity data are read from:
(PID.TID 0000.0001) ctrl-wet 1:    nvarlength =        40960
(PID.TID 0000.0001) ctrl-wet 2: surface wet C =         4096
(PID.TID 0000.0001) ctrl-wet 3: surface wet W =         4096
(PID.TID 0000.0001) ctrl-wet 4: surface wet S =         4096
(PID.TID 0000.0001) ctrl-wet 4a:surface wet V =            0
(PID.TID 0000.0001) ctrl-wet 5: 3D wet points =        32768
(PID.TID 0000.0001) ctrl-wet 6: no recs for i =     1           1
(PID.TID 0000.0001) ctrl-wet 6: no recs for i =     2           0
(PID.TID 0000.0001) ctrl-wet 6: no recs for i =     3           0
(PID.TID 0000.0001) ctrl-wet 6: no recs for i =     4           0
(PID.TID 0000.0001) ctrl-wet 6: no recs for i =     5           0
(PID.TID 0000.0001) ctrl-wet 6: no recs for i =     6           0
(PID.TID 0000.0001) ctrl-wet 6: no recs for i =     7           0
(PID.TID 0000.0001) ctrl-wet 6: no recs for i =     8           0
(PID.TID 0000.0001) ctrl-wet 6: no recs for i =     9           0
(PID.TID 0000.0001) ctrl-wet 6: no recs for i =    10           0
(PID.TID 0000.0001) ctrl-wet 6: no recs for i =    11           4
(PID.TID 0000.0001) ctrl-wet 6: no recs for i =    12           4
(PID.TID 0000.0001) ctrl-wet 6: no recs for i =    13           4
(PID.TID 0000.0001) ctrl-wet 6: no recs for i =    14           4
(PID.TID 0000.0001) ctrl-wet 6: no recs for i =    15           0
(PID.TID 0000.0001) ctrl-wet 6: no recs for i =    16           0
(PID.TID 0000.0001) ctrl-wet 6: no recs for i =    17           0
(PID.TID 0000.0001) ctrl-wet 6: no recs for i =    18           0
(PID.TID 0000.0001) ctrl-wet 6: no recs for i =    19           0
(PID.TID 0000.0001) ctrl-wet 6: no recs for i =    20           0
(PID.TID 0000.0001) ctrl-wet 6: no recs for i =    21           0
(PID.TID 0000.0001) ctrl-wet 6: no recs for i =    22           0
(PID.TID 0000.0001) ctrl-wet 6: no recs for i =    23           0
(PID.TID 0000.0001) ctrl-wet 6: no recs for i =    24           0
(PID.TID 0000.0001) ctrl-wet 6: no recs for i =    25           0
(PID.TID 0000.0001) ctrl-wet 6: no recs for i =    26           0
(PID.TID 0000.0001) ctrl-wet 6: no recs for i =    27           0
(PID.TID 0000.0001) ctrl-wet 6: no recs for i =    28           0
(PID.TID 0000.0001) ctrl-wet 6: no recs for i =    29           0
(PID.TID 0000.0001) ctrl-wet 6: no recs for i =    30           0
(PID.TID 0000.0001) ctrl-wet 6: no recs for i =    31           0
(PID.TID 0000.0001) ctrl-wet 6: no recs for i =    32           0
(PID.TID 0000.0001) ctrl-wet 6: no recs for i =    33           0
(PID.TID 0000.0001) ctrl-wet 6: no recs for i =    34           0
(PID.TID 0000.0001) ctrl-wet 6: no recs for i =    35           0
(PID.TID 0000.0001) ctrl-wet 6: no recs for i =    36           0
(PID.TID 0000.0001) ctrl-wet 6: no recs for i =    37           0
(PID.TID 0000.0001) ctrl-wet 6: no recs for i =    38           0
(PID.TID 0000.0001) ctrl-wet 6: no recs for i =    39           0
(PID.TID 0000.0001) ctrl-wet 6: no recs for i =    40           0
(PID.TID 0000.0001) ctrl-wet 6: no recs for i =    41           0
(PID.TID 0000.0001) ctrl-wet 6: no recs for i =    42           0
(PID.TID 0000.0001) ctrl-wet 6: no recs for i =    43           0
(PID.TID 0000.0001) ctrl-wet 6: no recs for i =    44           0
(PID.TID 0000.0001) ctrl-wet 6: no recs for i =    45           0
(PID.TID 0000.0001) ctrl-wet 6: no recs for i =    46           0
(PID.TID 0000.0001) ctrl-wet 6: no recs for i =    47           0
(PID.TID 0000.0001) ctrl-wet 6: no recs for i =    48           0
(PID.TID 0000.0001) ctrl-wet 6: no recs for i =    49           0
(PID.TID 0000.0001) ctrl-wet 6: no recs for i =    50           0
(PID.TID 0000.0001) ctrl-wet 6: no recs for i =    51           0
(PID.TID 0000.0001) ctrl-wet 6: no recs for i =    52           0
(PID.TID 0000.0001) ctrl-wet 6: no recs for i =    53           0
(PID.TID 0000.0001) ctrl-wet 6: no recs for i =    54           0
(PID.TID 0000.0001) ctrl-wet 6: no recs for i =    55           0
(PID.TID 0000.0001) ctrl-wet 6: no recs for i =    56           0
(PID.TID 0000.0001) ctrl-wet 6: no recs for i =    57           0
(PID.TID 0000.0001) ctrl-wet 6: no recs for i =    58           0
(PID.TID 0000.0001) ctrl-wet 6: no recs for i =    59           0
(PID.TID 0000.0001) ctrl-wet 6: no recs for i =    60           0
(PID.TID 0000.0001) ctrl-wet 7: flux         65536
(PID.TID 0000.0001) ctrl-wet 8: atmos        65536
(PID.TID 0000.0001) ctrl-wet 9: surface wet obcsn =           64        64        64        64
(PID.TID 0000.0001) ctrl-wet 10: surface wet obcss =           64        64        64        64
(PID.TID 0000.0001) ctrl-wet 11: surface wet obcsw =           64        64        64        64
(PID.TID 0000.0001) ctrl-wet 12: surface wet obcse =           64        64        64        64
(PID.TID 0000.0001) ctrl-wet -------------------------------------------------
(PID.TID 0000.0001) ctrl-wet 13: global nvarlength for Nr =    8       40960
(PID.TID 0000.0001) ctrl-wet -------------------------------------------------
(PID.TID 0000.0001) ctrl-wet 14: global nWet C/S/W/V k=    1        4096        4096        4096           0
(PID.TID 0000.0001) ctrl-wet 14: global nWet C/S/W/V k=    2        4096        4096        4096           0
(PID.TID 0000.0001) ctrl-wet 14: global nWet C/S/W/V k=    3        4096        4096        4096           0
(PID.TID 0000.0001) ctrl-wet 14: global nWet C/S/W/V k=    4        4096        4096        4096           0
(PID.TID 0000.0001) ctrl-wet 14: global nWet C/S/W/V k=    5        4096        4096        4096           0
(PID.TID 0000.0001) ctrl-wet 14: global nWet C/S/W/V k=    6        4096        4096        4096           0
(PID.TID 0000.0001) ctrl-wet 14: global nWet C/S/W/V k=    7        4096        4096        4096           0
(PID.TID 0000.0001) ctrl-wet 14: global nWet C/S/W/V k=    8        4096        4096        4096           0
(PID.TID 0000.0001) ctrl-wet -------------------------------------------------
(PID.TID 0000.0001) ctrl-wet 15a: global obcsN T,S,U,V k=    1          64          64          64          64
(PID.TID 0000.0001) ctrl-wet 15b: global obcsS T,S,U,V k=    1          64          64          64          64
(PID.TID 0000.0001) ctrl-wet 15c: global obcsW T,S,U,V k=    1          64          64          64          64
(PID.TID 0000.0001) ctrl-wet 15d: global obcsE T,S,U,V k=    1          64          64          64          64
(PID.TID 0000.0001) ctrl-wet 15a: global obcsN T,S,U,V k=    2          64          64          64          64
(PID.TID 0000.0001) ctrl-wet 15b: global obcsS T,S,U,V k=    2          64          64          64          64
(PID.TID 0000.0001) ctrl-wet 15c: global obcsW T,S,U,V k=    2          64          64          64          64
(PID.TID 0000.0001) ctrl-wet 15d: global obcsE T,S,U,V k=    2          64          64          64          64
(PID.TID 0000.0001) ctrl-wet 15a: global obcsN T,S,U,V k=    3          64          64          64          64
(PID.TID 0000.0001) ctrl-wet 15b: global obcsS T,S,U,V k=    3          64          64          64          64
(PID.TID 0000.0001) ctrl-wet 15c: global obcsW T,S,U,V k=    3          64          64          64          64
(PID.TID 0000.0001) ctrl-wet 15d: global obcsE T,S,U,V k=    3          64          64          64          64
(PID.TID 0000.0001) ctrl-wet 15a: global obcsN T,S,U,V k=    4          64          64          64          64
(PID.TID 0000.0001) ctrl-wet 15b: global obcsS T,S,U,V k=    4          64          64          64          64
(PID.TID 0000.0001) ctrl-wet 15c: global obcsW T,S,U,V k=    4          64          64          64          64
(PID.TID 0000.0001) ctrl-wet 15d: global obcsE T,S,U,V k=    4          64          64          64          64
(PID.TID 0000.0001) ctrl-wet 15a: global obcsN T,S,U,V k=    5          64          64          64          64
(PID.TID 0000.0001) ctrl-wet 15b: global obcsS T,S,U,V k=    5          64          64          64          64
(PID.TID 0000.0001) ctrl-wet 15c: global obcsW T,S,U,V k=    5          64          64          64          64
(PID.TID 0000.0001) ctrl-wet 15d: global obcsE T,S,U,V k=    5          64          64          64          64
(PID.TID 0000.0001) ctrl-wet 15a: global obcsN T,S,U,V k=    6          64          64          64          64
(PID.TID 0000.0001) ctrl-wet 15b: global obcsS T,S,U,V k=    6          64          64          64          64
(PID.TID 0000.0001) ctrl-wet 15c: global obcsW T,S,U,V k=    6          64          64          64          64
(PID.TID 0000.0001) ctrl-wet 15d: global obcsE T,S,U,V k=    6          64          64          64          64
(PID.TID 0000.0001) ctrl-wet 15a: global obcsN T,S,U,V k=    7          64          64          64          64
(PID.TID 0000.0001) ctrl-wet 15b: global obcsS T,S,U,V k=    7          64          64          64          64
(PID.TID 0000.0001) ctrl-wet 15c: global obcsW T,S,U,V k=    7          64          64          64          64
(PID.TID 0000.0001) ctrl-wet 15d: global obcsE T,S,U,V k=    7          64          64          64          64
(PID.TID 0000.0001) ctrl-wet 15a: global obcsN T,S,U,V k=    8          64          64          64          64
(PID.TID 0000.0001) ctrl-wet 15b: global obcsS T,S,U,V k=    8          64          64          64          64
(PID.TID 0000.0001) ctrl-wet 15c: global obcsW T,S,U,V k=    8          64          64          64          64
(PID.TID 0000.0001) ctrl-wet 15d: global obcsE T,S,U,V k=    8          64          64          64          64
(PID.TID 0000.0001) ctrl-wet -------------------------------------------------
(PID.TID 0000.0001) ctrl-wet 16a: global SUM(K) obcsN T,S,U,V          512         512         512         512
(PID.TID 0000.0001) ctrl-wet 16b: global SUM(K) obcsS T,S,U,V          512         512         512         512
(PID.TID 0000.0001) ctrl-wet 16c: global SUM(K) obcsW T,S,U,V          512         512         512         512
(PID.TID 0000.0001) ctrl-wet 16d: global SUM(K) obcsE T,S,U,V          512         512         512         512
(PID.TID 0000.0001) ctrl-wet -------------------------------------------------
(PID.TID 0000.0001) ctrl_init: no. of control variables:            5
(PID.TID 0000.0001) ctrl_init: control vector length:           40960
(PID.TID 0000.0001) ------------------------------------------------------------
(PID.TID 0000.0001) DIAGNOSTICS_SET_LEVELS: done
(PID.TID 0000.0001)  Total Nb of available Diagnostics: ndiagt=   180
(PID.TID 0000.0001)  write list of available Diagnostics to file: available_diagnostics.log
(PID.TID 0000.0001)   space allocated for all diagnostics:       0 levels
(PID.TID 0000.0001) DIAGNOSTICS_SET_POINTERS: done
(PID.TID 0000.0001) ------------------------------------------------------------
(PID.TID 0000.0001) DIAGSTATS_SET_REGIONS: define no region
(PID.TID 0000.0001) ------------------------------------------------------------
(PID.TID 0000.0001)   space allocated for all stats-diags:       0 levels
(PID.TID 0000.0001) DIAGSTATS_SET_POINTERS: done
(PID.TID 0000.0001) ------------------------------------------------------------
(PID.TID 0000.0001) %MON fCori_max                    =   9.5180214213275E-05
(PID.TID 0000.0001) %MON fCori_min                    =   6.1754768397872E-05
(PID.TID 0000.0001) %MON fCori_mean                   =   7.8957462017158E-05
(PID.TID 0000.0001) %MON fCori_sd                     =   9.8155346684319E-06
(PID.TID 0000.0001) %MON fCoriG_max                   =   9.4940057541481E-05
(PID.TID 0000.0001) %MON fCoriG_min                   =   6.1467334553587E-05
(PID.TID 0000.0001) %MON fCoriG_mean                  =   7.8692019555312E-05
(PID.TID 0000.0001) %MON fCoriG_sd                    =   9.8293922008013E-06
(PID.TID 0000.0001) %MON fCoriCos_max                 =   1.3168270981915E-04
(PID.TID 0000.0001) %MON fCoriCos_min                 =   1.0997597150061E-04
(PID.TID 0000.0001) %MON fCoriCos_mean                =   1.2158382939194E-04
(PID.TID 0000.0001) %MON fCoriCos_sd                  =   6.3823496113618E-06
(PID.TID 0000.0001) INI_CG2D: CG2D normalisation factor =  1.8974682031179044E-04
(PID.TID 0000.0001) 
(PID.TID 0000.0001) // =======================================================
(PID.TID 0000.0001) // Model configuration
(PID.TID 0000.0001) // =======================================================
(PID.TID 0000.0001) //
(PID.TID 0000.0001) // "Physical" paramters ( PARM01 in namelist )
(PID.TID 0000.0001) //
(PID.TID 0000.0001) buoyancyRelation = /* Type of relation to get Buoyancy */
(PID.TID 0000.0001)               'OCEANIC'
(PID.TID 0000.0001)     ;
(PID.TID 0000.0001) fluidIsAir   =  /* fluid major constituent is Air */
(PID.TID 0000.0001)                   F
(PID.TID 0000.0001)     ;
(PID.TID 0000.0001) fluidIsWater =  /* fluid major constituent is Water */
(PID.TID 0000.0001)                   T
(PID.TID 0000.0001)     ;
(PID.TID 0000.0001) usingPCoords =  /* use p (or p*) vertical coordinate */
(PID.TID 0000.0001)                   F
(PID.TID 0000.0001)     ;
(PID.TID 0000.0001) usingZCoords =  /* use z (or z*) vertical coordinate */
(PID.TID 0000.0001)                   T
(PID.TID 0000.0001)     ;
(PID.TID 0000.0001) tRef =   /* Reference temperature profile ( oC or K ) */
(PID.TID 0000.0001)                 2.000000000000000E+01,      /* K =  1 */
(PID.TID 0000.0001)                 1.600000000000000E+01,      /* K =  2 */
(PID.TID 0000.0001)                 1.200000000000000E+01,      /* K =  3 */
(PID.TID 0000.0001)                 1.000000000000000E+01,      /* K =  4 */
(PID.TID 0000.0001)                 9.000000000000000E+00,      /* K =  5 */
(PID.TID 0000.0001)                 8.000000000000000E+00,      /* K =  6 */
(PID.TID 0000.0001)                 7.000000000000000E+00,      /* K =  7 */
(PID.TID 0000.0001)                 6.000000000000000E+00       /* K =  8 */
(PID.TID 0000.0001)     ;
(PID.TID 0000.0001) sRef =   /* Reference salinity profile ( psu ) */
(PID.TID 0000.0001)     8 @  3.500000000000000E+01              /* K =  1:  8 */
(PID.TID 0000.0001)     ;
(PID.TID 0000.0001) viscAh  =   /* Lateral eddy viscosity ( m^2/s ) */
(PID.TID 0000.0001)                 1.000000000000000E+01
(PID.TID 0000.0001)     ;
(PID.TID 0000.0001) viscAhMax = /* Maximum lateral eddy viscosity ( m^2/s ) */
(PID.TID 0000.0001)                 1.000000000000000E+21
(PID.TID 0000.0001)     ;
(PID.TID 0000.0001) viscAhGrid = /* Grid dependent lateral eddy viscosity ( non-dim. ) */
(PID.TID 0000.0001)                 0.000000000000000E+00
(PID.TID 0000.0001)     ;
(PID.TID 0000.0001) useFullLeith = /* Use Full Form of Leith Viscosity on/off flag*/
(PID.TID 0000.0001)                   F
(PID.TID 0000.0001)     ;
(PID.TID 0000.0001) useStrainTensionVisc= /* Use StrainTension Form of Viscous Operator flag*/
(PID.TID 0000.0001)                   F
(PID.TID 0000.0001)     ;
(PID.TID 0000.0001) useAreaViscLength = /* Use area for visc length instead of geom. mean*/
(PID.TID 0000.0001)                   F
(PID.TID 0000.0001)     ;
(PID.TID 0000.0001) viscC2leith = /* Leith harmonic visc. factor (on grad(vort),non-dim.) */
(PID.TID 0000.0001)                 0.000000000000000E+00
(PID.TID 0000.0001)     ;
(PID.TID 0000.0001) viscC2leithD = /* Leith harmonic viscosity factor (on grad(div),non-dim.)*/
(PID.TID 0000.0001)                 0.000000000000000E+00
(PID.TID 0000.0001)     ;
(PID.TID 0000.0001) viscC2smag = /* Smagorinsky harmonic viscosity factor (non-dim.) */
(PID.TID 0000.0001)                 0.000000000000000E+00
(PID.TID 0000.0001)     ;
(PID.TID 0000.0001) viscA4  =   /* Lateral biharmonic viscosity ( m^4/s ) */
(PID.TID 0000.0001)                 0.000000000000000E+00
(PID.TID 0000.0001)     ;
(PID.TID 0000.0001) viscA4Max = /* Maximum biharmonic viscosity ( m^2/s ) */
(PID.TID 0000.0001)                 1.000000000000000E+21
(PID.TID 0000.0001)     ;
(PID.TID 0000.0001) viscA4Grid = /* Grid dependent biharmonic viscosity ( non-dim. ) */
(PID.TID 0000.0001)                 0.000000000000000E+00
(PID.TID 0000.0001)     ;
(PID.TID 0000.0001) viscC4leith = /* Leith biharm viscosity factor (on grad(vort), non-dim.)*/
(PID.TID 0000.0001)                 0.000000000000000E+00
(PID.TID 0000.0001)     ;
(PID.TID 0000.0001) viscC4leithD = /* Leith biharm viscosity factor (on grad(div), non-dim.) */
(PID.TID 0000.0001)                 0.000000000000000E+00
(PID.TID 0000.0001)     ;
(PID.TID 0000.0001) viscC4Smag = /* Smagorinsky biharm viscosity factor (non-dim) */
(PID.TID 0000.0001)                 0.000000000000000E+00
(PID.TID 0000.0001)     ;
(PID.TID 0000.0001) no_slip_sides =  /* Viscous BCs: No-slip sides */
(PID.TID 0000.0001)                   F
(PID.TID 0000.0001)     ;
(PID.TID 0000.0001) sideDragFactor = /* side-drag scaling factor (non-dim) */
(PID.TID 0000.0001)                 2.000000000000000E+00
(PID.TID 0000.0001)     ;
(PID.TID 0000.0001) viscArNr = /* vertical profile of vertical viscosity ( m^2/s )*/
(PID.TID 0000.0001)     8 @  1.000000000000000E-04              /* K =  1:  8 */
(PID.TID 0000.0001)     ;
(PID.TID 0000.0001) no_slip_bottom =  /* Viscous BCs: No-slip bottom */
(PID.TID 0000.0001)                   T
(PID.TID 0000.0001)     ;
(PID.TID 0000.0001) bottomDragLinear = /* linear bottom-drag coefficient ( m/s ) */
(PID.TID 0000.0001)                 0.000000000000000E+00
(PID.TID 0000.0001)     ;
(PID.TID 0000.0001) bottomDragQuadratic = /* quadratic bottom-drag coefficient (-) */
(PID.TID 0000.0001)                 0.000000000000000E+00
(PID.TID 0000.0001)     ;
(PID.TID 0000.0001) diffKhT =   /* Laplacian diffusion of heat laterally ( m^2/s ) */
(PID.TID 0000.0001)                 0.000000000000000E+00
(PID.TID 0000.0001)     ;
(PID.TID 0000.0001) diffK4T =   /* Biharmonic diffusion of heat laterally ( m^4/s ) */
(PID.TID 0000.0001)                 0.000000000000000E+00
(PID.TID 0000.0001)     ;
(PID.TID 0000.0001) diffKhS =   /* Laplacian diffusion of salt laterally ( m^2/s ) */
(PID.TID 0000.0001)                 0.000000000000000E+00
(PID.TID 0000.0001)     ;
(PID.TID 0000.0001) diffK4S =   /* Biharmonic diffusion of salt laterally ( m^4/s ) */
(PID.TID 0000.0001)                 0.000000000000000E+00
(PID.TID 0000.0001)     ;
(PID.TID 0000.0001) diffKrNrT = /* vertical profile of vertical diffusion of Temp ( m^2/s )*/
(PID.TID 0000.0001)     8 @  0.000000000000000E+00              /* K =  1:  8 */
(PID.TID 0000.0001)     ;
(PID.TID 0000.0001) diffKrNrS = /* vertical profile of vertical diffusion of Salt ( m^2/s )*/
(PID.TID 0000.0001)     8 @  0.000000000000000E+00              /* K =  1:  8 */
(PID.TID 0000.0001)     ;
(PID.TID 0000.0001) diffKrBL79surf = /* Surface diffusion for Bryan and Lewis 79 ( m^2/s ) */
(PID.TID 0000.0001)                 0.000000000000000E+00
(PID.TID 0000.0001)     ;
(PID.TID 0000.0001) diffKrBL79deep = /* Deep diffusion for Bryan and Lewis 1979 ( m^2/s ) */
(PID.TID 0000.0001)                 0.000000000000000E+00
(PID.TID 0000.0001)     ;
(PID.TID 0000.0001) diffKrBL79scl = /* Depth scale for Bryan and Lewis 1979 ( m ) */
(PID.TID 0000.0001)                 2.000000000000000E+02
(PID.TID 0000.0001)     ;
(PID.TID 0000.0001) diffKrBL79Ho = /* Turning depth for Bryan and Lewis 1979 ( m ) */
(PID.TID 0000.0001)                -2.000000000000000E+03
(PID.TID 0000.0001)     ;
(PID.TID 0000.0001) ivdc_kappa = /* Implicit Vertical Diffusivity for Convection ( m^2/s) */
(PID.TID 0000.0001)                 0.000000000000000E+00
(PID.TID 0000.0001)     ;
(PID.TID 0000.0001) hMixCriteria=  /* Criteria for mixed-layer diagnostic */
(PID.TID 0000.0001)                -8.000000000000000E-01
(PID.TID 0000.0001)     ;
(PID.TID 0000.0001) dRhoSmall =  /* Parameter for mixed-layer diagnostic */
(PID.TID 0000.0001)                 1.000000000000000E-06
(PID.TID 0000.0001)     ;
(PID.TID 0000.0001) hMixSmooth=  /* Smoothing parameter for mixed-layer diagnostic */
(PID.TID 0000.0001)                 0.000000000000000E+00
(PID.TID 0000.0001)     ;
(PID.TID 0000.0001) eosType =  /* Type of Equation of State */
(PID.TID 0000.0001)               'LINEAR'
(PID.TID 0000.0001)     ;
(PID.TID 0000.0001) tAlpha =   /* Linear EOS thermal expansion coefficient ( 1/oC ) */
(PID.TID 0000.0001)                 2.000000000000000E-04
(PID.TID 0000.0001)     ;
(PID.TID 0000.0001) sBeta =   /* Linear EOS haline contraction coefficient ( 1/psu ) */
(PID.TID 0000.0001)                 0.000000000000000E+00
(PID.TID 0000.0001)     ;
(PID.TID 0000.0001) rhonil =   /* Reference density ( kg/m^3 ) */
(PID.TID 0000.0001)                 9.998000000000000E+02
(PID.TID 0000.0001)     ;
(PID.TID 0000.0001) rhoConst =   /* Reference density ( kg/m^3 ) */
(PID.TID 0000.0001)                 9.998000000000000E+02
(PID.TID 0000.0001)     ;
(PID.TID 0000.0001) rhoFacC = /* normalized Reference density @ cell-Center (-) */
(PID.TID 0000.0001)     8 @  1.000000000000000E+00              /* K =  1:  8 */
(PID.TID 0000.0001)     ;
(PID.TID 0000.0001) rhoFacF = /* normalized Reference density @ W-Interface (-) */
(PID.TID 0000.0001)     9 @  1.000000000000000E+00              /* K =  1:  9 */
(PID.TID 0000.0001)     ;
(PID.TID 0000.0001) rhoConstFresh =   /* Reference density ( kg/m^3 ) */
(PID.TID 0000.0001)                 9.998000000000000E+02
(PID.TID 0000.0001)     ;
(PID.TID 0000.0001) gravity =   /* Gravitational acceleration ( m/s^2 ) */
(PID.TID 0000.0001)                 9.810000000000000E+00
(PID.TID 0000.0001)     ;
(PID.TID 0000.0001) gBaro =   /* Barotropic gravity ( m/s^2 ) */
(PID.TID 0000.0001)                 9.810000000000000E+00
(PID.TID 0000.0001)     ;
(PID.TID 0000.0001) rotationPeriod =   /* Rotation Period ( s ) */
(PID.TID 0000.0001)                 8.640000000000000E+04
(PID.TID 0000.0001)     ;
(PID.TID 0000.0001) omega =   /* Angular velocity ( rad/s ) */
(PID.TID 0000.0001)                 7.272205216643040E-05
(PID.TID 0000.0001)     ;
(PID.TID 0000.0001) f0 =   /* Reference coriolis parameter ( 1/s ) */
(PID.TID 0000.0001)                 1.000000000000000E-04
(PID.TID 0000.0001)     ;
(PID.TID 0000.0001) beta =   /* Beta ( 1/(m.s) ) */
(PID.TID 0000.0001)                 9.999999999999999E-12
(PID.TID 0000.0001)     ;
(PID.TID 0000.0001) fPrime =   /* Second coriolis parameter ( 1/s ) */
(PID.TID 0000.0001)                 0.000000000000000E+00
(PID.TID 0000.0001)     ;
(PID.TID 0000.0001) rigidLid =   /* Rigid lid on/off flag */
(PID.TID 0000.0001)                   F
(PID.TID 0000.0001)     ;
(PID.TID 0000.0001) implicitFreeSurface =   /* Implicit free surface on/off flag */
(PID.TID 0000.0001)                   T
(PID.TID 0000.0001)     ;
(PID.TID 0000.0001) freeSurfFac =   /* Implicit free surface factor */
(PID.TID 0000.0001)                 1.000000000000000E+00
(PID.TID 0000.0001)     ;
(PID.TID 0000.0001) implicSurfPress =  /* Surface Pressure implicit factor (0-1)*/
(PID.TID 0000.0001)                 1.000000000000000E+00
(PID.TID 0000.0001)     ;
(PID.TID 0000.0001) implicDiv2Dflow =  /* Barot. Flow Div. implicit factor (0-1)*/
(PID.TID 0000.0001)                 1.000000000000000E+00
(PID.TID 0000.0001)     ;
(PID.TID 0000.0001) exactConserv =  /* Exact Volume Conservation on/off flag*/
(PID.TID 0000.0001)                   F
(PID.TID 0000.0001)     ;
(PID.TID 0000.0001) linFSConserveTr = /* Tracer correction for Lin Free Surface on/off flag*/
(PID.TID 0000.0001)                   F
(PID.TID 0000.0001)     ;
(PID.TID 0000.0001) uniformLin_PhiSurf = /* use uniform Bo_surf on/off flag*/
(PID.TID 0000.0001)                   T
(PID.TID 0000.0001)     ;
(PID.TID 0000.0001) hFacMin =   /* minimum partial cell factor (hFac) */
(PID.TID 0000.0001)                 1.000000000000000E+00
(PID.TID 0000.0001)     ;
(PID.TID 0000.0001) hFacMinDr = /* minimum partial cell thickness ( m) */
(PID.TID 0000.0001)                 1.000000000000000E+00
(PID.TID 0000.0001)     ;
(PID.TID 0000.0001) nonlinFreeSurf = /* Non-linear Free Surf. options (-1,0,1,2,3)*/
(PID.TID 0000.0001)                       0
(PID.TID 0000.0001)      -1,0= Off ; 1,2,3= On, 2=+rescale gU,gV, 3=+update cg2d solv.
(PID.TID 0000.0001)     ;
(PID.TID 0000.0001) hFacInf =   /* lower threshold for hFac (nonlinFreeSurf only)*/
(PID.TID 0000.0001)                 2.000000000000000E-01
(PID.TID 0000.0001)     ;
(PID.TID 0000.0001) hFacSup =   /* upper threshold for hFac (nonlinFreeSurf only)*/
(PID.TID 0000.0001)                 2.000000000000000E+00
(PID.TID 0000.0001)     ;
(PID.TID 0000.0001) select_rStar = /* r* Vertical coord. options (=0 r coord.; >0 uses r*)*/
(PID.TID 0000.0001)                       0
(PID.TID 0000.0001)     ;
(PID.TID 0000.0001) selectAddFluid = /* option for mass source/sink of fluid (=0: off) */
(PID.TID 0000.0001)                       0
(PID.TID 0000.0001)     ;
(PID.TID 0000.0001) useRealFreshWaterFlux = /* Real Fresh Water Flux on/off flag*/
(PID.TID 0000.0001)                   F
(PID.TID 0000.0001)     ;
(PID.TID 0000.0001) temp_EvPrRn = /* Temp. of Evap/Prec/R (UNSET=use local T)(oC)*/
(PID.TID 0000.0001)                 1.234567000000000E+05
(PID.TID 0000.0001)     ;
(PID.TID 0000.0001) salt_EvPrRn = /* Salin. of Evap/Prec/R (UNSET=use local S)(psu)*/
(PID.TID 0000.0001)                 0.000000000000000E+00
(PID.TID 0000.0001)     ;
(PID.TID 0000.0001) temp_addMass = /* Temp. of addMass array (UNSET=use local T)(oC)*/
(PID.TID 0000.0001)                 1.234567000000000E+05
(PID.TID 0000.0001)     ;
(PID.TID 0000.0001) salt_addMass = /* Salin. of addMass array (UNSET=use local S)(psu)*/
(PID.TID 0000.0001)                 0.000000000000000E+00
(PID.TID 0000.0001)     ;
(PID.TID 0000.0001) convertFW2Salt = /* convert F.W. Flux to Salt Flux (-1=use local S)(psu)*/
(PID.TID 0000.0001)                 3.500000000000000E+01
(PID.TID 0000.0001)     ;
(PID.TID 0000.0001) use3Dsolver = /* use 3-D pressure solver on/off flag */
(PID.TID 0000.0001)                   F
(PID.TID 0000.0001)     ;
(PID.TID 0000.0001) nonHydrostatic =  /* Non-Hydrostatic on/off flag */
(PID.TID 0000.0001)                   F
(PID.TID 0000.0001)     ;
(PID.TID 0000.0001) nh_Am2 = /* Non-Hydrostatic terms scaling factor */
(PID.TID 0000.0001)                 1.000000000000000E+00
(PID.TID 0000.0001)     ;
(PID.TID 0000.0001) implicitNHPress = /* Non-Hyd Pressure implicit factor (0-1)*/
(PID.TID 0000.0001)                 1.000000000000000E+00
(PID.TID 0000.0001)     ;
(PID.TID 0000.0001) selectNHfreeSurf = /* Non-Hyd (free-)Surface option */
(PID.TID 0000.0001)                       0
(PID.TID 0000.0001)     ;
(PID.TID 0000.0001) quasiHydrostatic = /* Quasi-Hydrostatic on/off flag */
(PID.TID 0000.0001)                   F
(PID.TID 0000.0001)     ;
(PID.TID 0000.0001) momStepping =  /* Momentum equation on/off flag */
(PID.TID 0000.0001)                   T
(PID.TID 0000.0001)     ;
(PID.TID 0000.0001) vectorInvariantMomentum= /* Vector-Invariant Momentum on/off */
(PID.TID 0000.0001)                   T
(PID.TID 0000.0001)     ;
(PID.TID 0000.0001) momAdvection =  /* Momentum advection on/off flag */
(PID.TID 0000.0001)                   T
(PID.TID 0000.0001)     ;
(PID.TID 0000.0001) momViscosity =  /* Momentum viscosity on/off flag */
(PID.TID 0000.0001)                   T
(PID.TID 0000.0001)     ;
(PID.TID 0000.0001) momImplVertAdv= /* Momentum implicit vert. advection on/off*/
(PID.TID 0000.0001)                   F
(PID.TID 0000.0001)     ;
(PID.TID 0000.0001) implicitViscosity = /* Implicit viscosity on/off flag */
(PID.TID 0000.0001)                   T
(PID.TID 0000.0001)     ;
(PID.TID 0000.0001) metricTerms =  /* metric-Terms on/off flag */
(PID.TID 0000.0001)                   T
(PID.TID 0000.0001)     ;
(PID.TID 0000.0001) useNHMTerms = /* Non-Hydrostatic Metric-Terms on/off */
(PID.TID 0000.0001)                   F
(PID.TID 0000.0001)     ;
(PID.TID 0000.0001) selectCoriMap = /* Coriolis Map options (0,1,2,3)*/
(PID.TID 0000.0001)                       2
(PID.TID 0000.0001)     0= f-Plane ; 1= Beta-Plane ; 2= Spherical ; 3= read from file
(PID.TID 0000.0001)     ;
(PID.TID 0000.0001) use3dCoriolis = /* 3-D Coriolis on/off flag */
(PID.TID 0000.0001)                   F
(PID.TID 0000.0001)     ;
(PID.TID 0000.0001) useCoriolis =  /* Coriolis on/off flag */
(PID.TID 0000.0001)                   T
(PID.TID 0000.0001)     ;
(PID.TID 0000.0001) useCDscheme =  /* CD scheme on/off flag */
(PID.TID 0000.0001)                   F
(PID.TID 0000.0001)     ;
(PID.TID 0000.0001) useEnergyConservingCoriolis= /* Flx-Form Coriolis scheme flag */
(PID.TID 0000.0001)                   F
(PID.TID 0000.0001)     ;
(PID.TID 0000.0001) useJamartWetPoints= /* Coriolis WetPoints method flag */
(PID.TID 0000.0001)                   F
(PID.TID 0000.0001)     ;
(PID.TID 0000.0001) useJamartMomAdv= /* V.I Non-linear terms Jamart flag */
(PID.TID 0000.0001)                   F
(PID.TID 0000.0001)     ;
(PID.TID 0000.0001) useAbsVorticity= /* V.I Works with f+zeta in Coriolis */
(PID.TID 0000.0001)                   F
(PID.TID 0000.0001)     ;
(PID.TID 0000.0001) selectVortScheme= /* V.I Scheme selector for Vorticity-Term */
(PID.TID 0000.0001)                       1
(PID.TID 0000.0001)    = 0 : enstrophy (Shallow-Water Eq.) conserving scheme by Sadourny, JAS 75
(PID.TID 0000.0001)    = 1 : same as 0 with modified hFac
(PID.TID 0000.0001)    = 2 : energy conserving scheme (used by Sadourny in JAS 75 paper)
(PID.TID 0000.0001)    = 3 : energy (general) and enstrophy (2D, nonDiv.) conserving scheme
(PID.TID 0000.0001)          from Sadourny (Burridge & Haseler, ECMWF Rep.4, 1977)
(PID.TID 0000.0001)     ;
(PID.TID 0000.0001) upwindVorticity= /* V.I Upwind bias vorticity flag */
(PID.TID 0000.0001)                   F
(PID.TID 0000.0001)     ;
(PID.TID 0000.0001) highOrderVorticity= /* V.I High order vort. advect. flag */
(PID.TID 0000.0001)                   F
(PID.TID 0000.0001)     ;
(PID.TID 0000.0001) upwindShear= /* V.I Upwind vertical Shear advection flag */
(PID.TID 0000.0001)                   F
(PID.TID 0000.0001)     ;
(PID.TID 0000.0001) selectKEscheme= /* V.I Kinetic Energy scheme selector */
(PID.TID 0000.0001)                       0
(PID.TID 0000.0001)     ;
(PID.TID 0000.0001) momForcing =  /* Momentum forcing on/off flag */
(PID.TID 0000.0001)                   T
(PID.TID 0000.0001)     ;
(PID.TID 0000.0001) momPressureForcing =  /* Momentum pressure term on/off flag */
(PID.TID 0000.0001)                   T
(PID.TID 0000.0001)     ;
(PID.TID 0000.0001) implicitIntGravWave= /* Implicit Internal Gravity Wave flag */
(PID.TID 0000.0001)                   F
(PID.TID 0000.0001)     ;
(PID.TID 0000.0001) staggerTimeStep =   /* Stagger time stepping on/off flag */
(PID.TID 0000.0001)                   T
(PID.TID 0000.0001)     ;
(PID.TID 0000.0001) multiDimAdvection =   /* enable/disable Multi-Dim Advection */
(PID.TID 0000.0001)                   F
(PID.TID 0000.0001)     ;
(PID.TID 0000.0001) useMultiDimAdvec =   /* Multi-Dim Advection is/is-not used */
(PID.TID 0000.0001)                   F
(PID.TID 0000.0001)     ;
(PID.TID 0000.0001) implicitDiffusion = /* Implicit Diffusion on/off flag */
(PID.TID 0000.0001)                   T
(PID.TID 0000.0001)     ;
(PID.TID 0000.0001) tempStepping =  /* Temperature equation on/off flag */
(PID.TID 0000.0001)                   T
(PID.TID 0000.0001)     ;
(PID.TID 0000.0001) tempAdvection=  /* Temperature advection on/off flag */
(PID.TID 0000.0001)                   T
(PID.TID 0000.0001)     ;
(PID.TID 0000.0001) tempImplVertAdv = /* Temp. implicit vert. advection on/off */
(PID.TID 0000.0001)                   F
(PID.TID 0000.0001)     ;
(PID.TID 0000.0001) tempForcing  =  /* Temperature forcing on/off flag */
(PID.TID 0000.0001)                   T
(PID.TID 0000.0001)     ;
(PID.TID 0000.0001) tempIsActiveTr = /* Temp. is a dynamically Active Tracer */
(PID.TID 0000.0001)                   T
(PID.TID 0000.0001)     ;
(PID.TID 0000.0001) saltStepping =  /* Salinity equation on/off flag */
(PID.TID 0000.0001)                   T
(PID.TID 0000.0001)     ;
(PID.TID 0000.0001) saltAdvection=  /* Salinity advection on/off flag */
(PID.TID 0000.0001)                   T
(PID.TID 0000.0001)     ;
(PID.TID 0000.0001) saltImplVertAdv = /* Sali. implicit vert. advection on/off */
(PID.TID 0000.0001)                   F
(PID.TID 0000.0001)     ;
(PID.TID 0000.0001) saltForcing  =  /* Salinity forcing on/off flag */
(PID.TID 0000.0001)                   T
(PID.TID 0000.0001)     ;
(PID.TID 0000.0001) saltIsActiveTr = /* Salt  is a dynamically Active Tracer */
(PID.TID 0000.0001)                   F
(PID.TID 0000.0001)     ;
(PID.TID 0000.0001)  readBinaryPrec = /* Precision used for reading binary files */
(PID.TID 0000.0001)                      32
(PID.TID 0000.0001)     ;
(PID.TID 0000.0001) writeBinaryPrec = /* Precision used for writing binary files */
(PID.TID 0000.0001)                      32
(PID.TID 0000.0001)     ;
(PID.TID 0000.0001)  globalFiles = /* write "global" (=not per tile) files */
(PID.TID 0000.0001)                   F
(PID.TID 0000.0001)     ;
(PID.TID 0000.0001)  useSingleCpuIO = /* only master MPI process does I/O */
(PID.TID 0000.0001)                   F
(PID.TID 0000.0001)     ;
(PID.TID 0000.0001) /* debLev[*]  : level of debug & auxiliary message printing */
(PID.TID 0000.0001) debLevZero =  0 ; /* level of disabled aux. msg printing */
(PID.TID 0000.0001)    debLevA =  1 ; /* level of minimum  aux. msg printing */
(PID.TID 0000.0001)    debLevB =  2 ; /* level of low aux. print (report read-file opening)*/
(PID.TID 0000.0001)    debLevC =  3 ; /* level of moderate debug prt (most pkgs debug msg) */
(PID.TID 0000.0001)    debLevD =  4 ; /* level of enhanced debug prt (add DEBUG_STATS prt) */
(PID.TID 0000.0001)    debLevE =  5 ; /* level of extensive debug printing */
(PID.TID 0000.0001) debugLevel =  /* select debug printing level */
(PID.TID 0000.0001)                       1
(PID.TID 0000.0001)     ;
(PID.TID 0000.0001) //
(PID.TID 0000.0001) // Elliptic solver(s) paramters ( PARM02 in namelist )
(PID.TID 0000.0001) //
(PID.TID 0000.0001) cg2dMaxIters =   /* Upper limit on 2d con. grad iterations  */
(PID.TID 0000.0001)                     500
(PID.TID 0000.0001)     ;
(PID.TID 0000.0001) cg2dChkResFreq =   /* 2d con. grad convergence test frequency */
(PID.TID 0000.0001)                       1
(PID.TID 0000.0001)     ;
(PID.TID 0000.0001) cg2dTargetResidual =   /* 2d con. grad target residual  */
(PID.TID 0000.0001)                 1.000000000000000E-08
(PID.TID 0000.0001)     ;
(PID.TID 0000.0001) cg2dTargetResWunit =   /* CG2d target residual [W units] */
(PID.TID 0000.0001)                -1.000000000000000E+00
(PID.TID 0000.0001)     ;
(PID.TID 0000.0001) cg2dPreCondFreq =   /* Freq. for updating cg2d preconditioner */
(PID.TID 0000.0001)                       1
(PID.TID 0000.0001)     ;
(PID.TID 0000.0001) useSRCGSolver =  /* use single reduction CG solver(s) */
(PID.TID 0000.0001)                   F
(PID.TID 0000.0001)     ;
(PID.TID 0000.0001) printResidualFreq = /* Freq. for printing CG residual */
(PID.TID 0000.0001)                       0
(PID.TID 0000.0001)     ;
(PID.TID 0000.0001) //
(PID.TID 0000.0001) // Time stepping paramters ( PARM03 in namelist )
(PID.TID 0000.0001) //
(PID.TID 0000.0001) deltaTmom =   /* Momentum equation timestep ( s ) */
(PID.TID 0000.0001)                 1.200000000000000E+03
(PID.TID 0000.0001)     ;
(PID.TID 0000.0001) deltaTfreesurf = /* FreeSurface equation timestep ( s ) */
(PID.TID 0000.0001)                 1.200000000000000E+03
(PID.TID 0000.0001)     ;
(PID.TID 0000.0001) dTtracerLev =  /* Tracer equation timestep ( s ) */
(PID.TID 0000.0001)     8 @  1.200000000000000E+03              /* K =  1:  8 */
(PID.TID 0000.0001)     ;
(PID.TID 0000.0001) deltaTClock  =   /* Model clock timestep ( s ) */
(PID.TID 0000.0001)                 1.200000000000000E+03
(PID.TID 0000.0001)     ;
(PID.TID 0000.0001) cAdjFreq =   /* Convective adjustment interval ( s ) */
(PID.TID 0000.0001)                 0.000000000000000E+00
(PID.TID 0000.0001)     ;
(PID.TID 0000.0001) momForcingOutAB = /* =1: take Momentum Forcing out of Adams-Bash. stepping */
(PID.TID 0000.0001)                       0
(PID.TID 0000.0001)     ;
(PID.TID 0000.0001) tracForcingOutAB = /* =1: take T,S,pTr Forcing out of Adams-Bash. stepping */
(PID.TID 0000.0001)                       0
(PID.TID 0000.0001)     ;
(PID.TID 0000.0001) momDissip_In_AB = /* put Dissipation Tendency in Adams-Bash. stepping */
(PID.TID 0000.0001)                   T
(PID.TID 0000.0001)     ;
(PID.TID 0000.0001) doAB_onGtGs = /* apply AB on Tendencies (rather than on T,S)*/
(PID.TID 0000.0001)                   T
(PID.TID 0000.0001)     ;
(PID.TID 0000.0001) abEps =   /* Adams-Bashforth-2 stabilizing weight */
(PID.TID 0000.0001)                 1.000000000000000E-01
(PID.TID 0000.0001)     ;
(PID.TID 0000.0001) pickupStrictlyMatch= /* stop if pickup do not strictly match */
(PID.TID 0000.0001)                   T
(PID.TID 0000.0001)     ;
(PID.TID 0000.0001) nIter0   =   /* Run starting timestep number */
(PID.TID 0000.0001)                       0
(PID.TID 0000.0001)     ;
(PID.TID 0000.0001) nTimeSteps = /* Number of timesteps */
(PID.TID 0000.0001)                      18
(PID.TID 0000.0001)     ;
(PID.TID 0000.0001) nEndIter =   /* Run ending timestep number */
(PID.TID 0000.0001)                      18
(PID.TID 0000.0001)     ;
(PID.TID 0000.0001) baseTime =   /* Model base time ( s ) */
(PID.TID 0000.0001)                 0.000000000000000E+00
(PID.TID 0000.0001)     ;
(PID.TID 0000.0001) startTime =  /* Run start time ( s ) */
(PID.TID 0000.0001)                 0.000000000000000E+00
(PID.TID 0000.0001)     ;
(PID.TID 0000.0001) endTime  =   /* Integration ending time ( s ) */
(PID.TID 0000.0001)                 2.160000000000000E+04
(PID.TID 0000.0001)     ;
(PID.TID 0000.0001) pChkPtFreq = /* Permanent restart/pickup file interval ( s ) */
(PID.TID 0000.0001)                 0.000000000000000E+00
(PID.TID 0000.0001)     ;
(PID.TID 0000.0001) chkPtFreq  = /* Rolling restart/pickup file interval ( s ) */
(PID.TID 0000.0001)                 0.000000000000000E+00
(PID.TID 0000.0001)     ;
(PID.TID 0000.0001) pickup_write_mdsio =   /* Model IO flag. */
(PID.TID 0000.0001)                   T
(PID.TID 0000.0001)     ;
(PID.TID 0000.0001) pickup_read_mdsio =   /* Model IO flag. */
(PID.TID 0000.0001)                   T
(PID.TID 0000.0001)     ;
(PID.TID 0000.0001) pickup_write_immed =   /* Model IO flag. */
(PID.TID 0000.0001)                   F
(PID.TID 0000.0001)     ;
(PID.TID 0000.0001) writePickupAtEnd =   /* Model IO flag. */
(PID.TID 0000.0001)                   T
(PID.TID 0000.0001)     ;
(PID.TID 0000.0001) dumpFreq =   /* Model state write out interval ( s ). */
(PID.TID 0000.0001)                 2.628000000000000E+06
(PID.TID 0000.0001)     ;
(PID.TID 0000.0001) dumpInitAndLast= /* write out Initial & Last iter. model state */
(PID.TID 0000.0001)                   T
(PID.TID 0000.0001)     ;
(PID.TID 0000.0001) snapshot_mdsio =   /* Model IO flag. */
(PID.TID 0000.0001)                   T
(PID.TID 0000.0001)     ;
(PID.TID 0000.0001) monitorFreq =   /* Monitor output interval ( s ). */
(PID.TID 0000.0001)                 3.600000000000000E+03
(PID.TID 0000.0001)     ;
(PID.TID 0000.0001) monitorSelect = /* select group of variables to monitor */
(PID.TID 0000.0001)                       1
(PID.TID 0000.0001)     ;
(PID.TID 0000.0001) monitor_stdio =   /* Model IO flag. */
(PID.TID 0000.0001)                   T
(PID.TID 0000.0001)     ;
(PID.TID 0000.0001) externForcingPeriod =   /* forcing period (s) */
(PID.TID 0000.0001)                 0.000000000000000E+00
(PID.TID 0000.0001)     ;
(PID.TID 0000.0001) externForcingCycle =   /* period of the cyle (s). */
(PID.TID 0000.0001)                 0.000000000000000E+00
(PID.TID 0000.0001)     ;
(PID.TID 0000.0001) tauThetaClimRelax =   /* relaxation time scale (s) */
(PID.TID 0000.0001)                 0.000000000000000E+00
(PID.TID 0000.0001)     ;
(PID.TID 0000.0001) tauSaltClimRelax =   /* relaxation time scale (s) */
(PID.TID 0000.0001)                 0.000000000000000E+00
(PID.TID 0000.0001)     ;
(PID.TID 0000.0001) latBandClimRelax =   /* max. Lat. where relaxation */
(PID.TID 0000.0001)                 1.800000000000000E+02
(PID.TID 0000.0001)     ;
(PID.TID 0000.0001) //
(PID.TID 0000.0001) // Gridding paramters ( PARM04 in namelist )
(PID.TID 0000.0001) //
(PID.TID 0000.0001) usingCartesianGrid = /* Cartesian coordinates flag ( True/False ) */
(PID.TID 0000.0001)                   F
(PID.TID 0000.0001)     ;
(PID.TID 0000.0001) usingCylindricalGrid = /* Cylindrical coordinates flag ( True/False ) */
(PID.TID 0000.0001)                   F
(PID.TID 0000.0001)     ;
(PID.TID 0000.0001) usingSphericalPolarGrid = /* Spherical coordinates flag ( True/False ) */
(PID.TID 0000.0001)                   T
(PID.TID 0000.0001)     ;
(PID.TID 0000.0001) usingCurvilinearGrid = /* Curvilinear coordinates flag ( True/False ) */
(PID.TID 0000.0001)                   F
(PID.TID 0000.0001)     ;
(PID.TID 0000.0001) selectSigmaCoord = /* Hybrid-Sigma Vert. Coordinate option */
(PID.TID 0000.0001)                       0
(PID.TID 0000.0001)     ;
(PID.TID 0000.0001) Ro_SeaLevel = /* r(1) ( units of r ==  m ) */
(PID.TID 0000.0001)                 0.000000000000000E+00
(PID.TID 0000.0001)     ;
(PID.TID 0000.0001) rSigmaBnd = /* r/sigma transition ( units of r ==  m ) */
(PID.TID 0000.0001)                 1.234567000000000E+05
(PID.TID 0000.0001)     ;
(PID.TID 0000.0001) rkSign =   /* index orientation relative to vertical coordinate */
(PID.TID 0000.0001)                -1.000000000000000E+00
(PID.TID 0000.0001)     ;
(PID.TID 0000.0001) gravitySign = /* gravity orientation relative to vertical coordinate */
(PID.TID 0000.0001)                -1.000000000000000E+00
(PID.TID 0000.0001)     ;
(PID.TID 0000.0001) mass2rUnit = /* convert mass per unit area [kg/m2] to r-units [m] */
(PID.TID 0000.0001)                 1.000200040008002E-03
(PID.TID 0000.0001)     ;
(PID.TID 0000.0001) rUnit2mass = /* convert r-units [m] to mass per unit area [kg/m2] */
(PID.TID 0000.0001)                 9.998000000000000E+02
(PID.TID 0000.0001)     ;
(PID.TID 0000.0001) drC =   /* C spacing ( units of r ) */
(PID.TID 0000.0001)                 2.500000000000000E+02,      /* K =  1 */
(PID.TID 0000.0001)     7 @  5.000000000000000E+02              /* K =  2:  8 */
(PID.TID 0000.0001)     ;
(PID.TID 0000.0001) drF =   /* W spacing ( units of r ) */
(PID.TID 0000.0001)     8 @  5.000000000000000E+02              /* K =  1:  8 */
(PID.TID 0000.0001)     ;
(PID.TID 0000.0001) delX = /* U spacing ( m - cartesian, degrees - spherical ) */
(PID.TID 0000.0001)    64 @  2.500000000000000E-01              /* I =  1: 64 */
(PID.TID 0000.0001)     ;
(PID.TID 0000.0001) delY = /* V spacing ( m - cartesian, degrees - spherical ) */
(PID.TID 0000.0001)    64 @  2.500000000000000E-01              /* J =  1: 64 */
(PID.TID 0000.0001)     ;
(PID.TID 0000.0001) xgOrigin = /* X-axis origin of West  edge (cartesian: m, lat-lon: deg.) */
(PID.TID 0000.0001)                 0.000000000000000E+00
(PID.TID 0000.0001)     ;
(PID.TID 0000.0001) ygOrigin = /* Y-axis origin of South edge (cartesian: m, lat-lon: deg.) */
(PID.TID 0000.0001)                 2.500000000000000E+01
(PID.TID 0000.0001)     ;
(PID.TID 0000.0001) rSphere =  /* Radius ( ignored - cartesian, m - spherical ) */
(PID.TID 0000.0001)                 6.370000000000000E+06
(PID.TID 0000.0001)     ;
(PID.TID 0000.0001) deepAtmosphere = /* Deep/Shallow Atmosphere flag (True/False) */
(PID.TID 0000.0001)                   F
(PID.TID 0000.0001)     ;
(PID.TID 0000.0001) xC =  /* xC(:,1,:,1) : P-point X coord ( deg. or m if cartesian) */
(PID.TID 0000.0001)                 1.250000000000000E-01,      /* I =  1 */
(PID.TID 0000.0001)                 3.750000000000000E-01,      /* I =  2 */
(PID.TID 0000.0001)                 6.250000000000000E-01,      /* I =  3 */
(PID.TID 0000.0001)                 8.750000000000000E-01,      /* I =  4 */
(PID.TID 0000.0001)                 1.125000000000000E+00,      /* I =  5 */
(PID.TID 0000.0001)                 1.375000000000000E+00,      /* I =  6 */
(PID.TID 0000.0001)                 1.625000000000000E+00,      /* I =  7 */
(PID.TID 0000.0001)                 1.875000000000000E+00,      /* I =  8 */
(PID.TID 0000.0001)                 2.125000000000000E+00,      /* I =  9 */
(PID.TID 0000.0001)                 2.375000000000000E+00,      /* I = 10 */
(PID.TID 0000.0001)                 2.625000000000000E+00,      /* I = 11 */
(PID.TID 0000.0001)                 2.875000000000000E+00,      /* I = 12 */
(PID.TID 0000.0001)                 3.125000000000000E+00,      /* I = 13 */
(PID.TID 0000.0001)                 3.375000000000000E+00,      /* I = 14 */
(PID.TID 0000.0001)                 3.625000000000000E+00,      /* I = 15 */
(PID.TID 0000.0001)                 3.875000000000000E+00,      /* I = 16 */
(PID.TID 0000.0001)                 4.125000000000000E+00,      /* I = 17 */
(PID.TID 0000.0001)                 4.375000000000000E+00,      /* I = 18 */
(PID.TID 0000.0001)                 4.625000000000000E+00,      /* I = 19 */
(PID.TID 0000.0001)                 4.875000000000000E+00,      /* I = 20 */
(PID.TID 0000.0001)                 5.125000000000000E+00,      /* I = 21 */
(PID.TID 0000.0001)                 5.375000000000000E+00,      /* I = 22 */
(PID.TID 0000.0001)                 5.625000000000000E+00,      /* I = 23 */
(PID.TID 0000.0001)                 5.875000000000000E+00,      /* I = 24 */
(PID.TID 0000.0001)                 6.125000000000000E+00,      /* I = 25 */
(PID.TID 0000.0001)                 6.375000000000000E+00,      /* I = 26 */
(PID.TID 0000.0001)                 6.625000000000000E+00,      /* I = 27 */
(PID.TID 0000.0001)                 6.875000000000000E+00,      /* I = 28 */
(PID.TID 0000.0001)                 7.125000000000000E+00,      /* I = 29 */
(PID.TID 0000.0001)                 7.375000000000000E+00,      /* I = 30 */
(PID.TID 0000.0001)                 7.625000000000000E+00,      /* I = 31 */
(PID.TID 0000.0001)                 7.875000000000000E+00,      /* I = 32 */
(PID.TID 0000.0001)                 8.125000000000000E+00,      /* I = 33 */
(PID.TID 0000.0001)                 8.375000000000000E+00,      /* I = 34 */
(PID.TID 0000.0001)                 8.625000000000000E+00,      /* I = 35 */
(PID.TID 0000.0001)                 8.875000000000000E+00,      /* I = 36 */
(PID.TID 0000.0001)                 9.125000000000000E+00,      /* I = 37 */
(PID.TID 0000.0001)                 9.375000000000000E+00,      /* I = 38 */
(PID.TID 0000.0001)                 9.625000000000000E+00,      /* I = 39 */
(PID.TID 0000.0001)                 9.875000000000000E+00,      /* I = 40 */
(PID.TID 0000.0001)                 1.012500000000000E+01,      /* I = 41 */
(PID.TID 0000.0001)                 1.037500000000000E+01,      /* I = 42 */
(PID.TID 0000.0001)                 1.062500000000000E+01,      /* I = 43 */
(PID.TID 0000.0001)                 1.087500000000000E+01,      /* I = 44 */
(PID.TID 0000.0001)                 1.112500000000000E+01,      /* I = 45 */
(PID.TID 0000.0001)                 1.137500000000000E+01,      /* I = 46 */
(PID.TID 0000.0001)                 1.162500000000000E+01,      /* I = 47 */
(PID.TID 0000.0001)                 1.187500000000000E+01,      /* I = 48 */
(PID.TID 0000.0001)                 1.212500000000000E+01,      /* I = 49 */
(PID.TID 0000.0001)                 1.237500000000000E+01,      /* I = 50 */
(PID.TID 0000.0001)                 1.262500000000000E+01,      /* I = 51 */
(PID.TID 0000.0001)                 1.287500000000000E+01,      /* I = 52 */
(PID.TID 0000.0001)                 1.312500000000000E+01,      /* I = 53 */
(PID.TID 0000.0001)                 1.337500000000000E+01,      /* I = 54 */
(PID.TID 0000.0001)                 1.362500000000000E+01,      /* I = 55 */
(PID.TID 0000.0001)                 1.387500000000000E+01,      /* I = 56 */
(PID.TID 0000.0001)                 1.412500000000000E+01,      /* I = 57 */
(PID.TID 0000.0001)                 1.437500000000000E+01,      /* I = 58 */
(PID.TID 0000.0001)                 1.462500000000000E+01,      /* I = 59 */
(PID.TID 0000.0001)                 1.487500000000000E+01,      /* I = 60 */
(PID.TID 0000.0001)                 1.512500000000000E+01,      /* I = 61 */
(PID.TID 0000.0001)                 1.537500000000000E+01,      /* I = 62 */
(PID.TID 0000.0001)                 1.562500000000000E+01,      /* I = 63 */
(PID.TID 0000.0001)                 1.587500000000000E+01       /* I = 64 */
(PID.TID 0000.0001)     ;
(PID.TID 0000.0001) yC =  /* yC(1,:,1,:) : P-point Y coord ( deg. or m if cartesian) */
(PID.TID 0000.0001)                 2.512500000000000E+01,      /* J =  1 */
(PID.TID 0000.0001)                 2.537500000000000E+01,      /* J =  2 */
(PID.TID 0000.0001)                 2.562500000000000E+01,      /* J =  3 */
(PID.TID 0000.0001)                 2.587500000000000E+01,      /* J =  4 */
(PID.TID 0000.0001)                 2.612500000000000E+01,      /* J =  5 */
(PID.TID 0000.0001)                 2.637500000000000E+01,      /* J =  6 */
(PID.TID 0000.0001)                 2.662500000000000E+01,      /* J =  7 */
(PID.TID 0000.0001)                 2.687500000000000E+01,      /* J =  8 */
(PID.TID 0000.0001)                 2.712500000000000E+01,      /* J =  9 */
(PID.TID 0000.0001)                 2.737500000000000E+01,      /* J = 10 */
(PID.TID 0000.0001)                 2.762500000000000E+01,      /* J = 11 */
(PID.TID 0000.0001)                 2.787500000000000E+01,      /* J = 12 */
(PID.TID 0000.0001)                 2.812500000000000E+01,      /* J = 13 */
(PID.TID 0000.0001)                 2.837500000000000E+01,      /* J = 14 */
(PID.TID 0000.0001)                 2.862500000000000E+01,      /* J = 15 */
(PID.TID 0000.0001)                 2.887500000000000E+01,      /* J = 16 */
(PID.TID 0000.0001)                 2.912500000000000E+01,      /* J = 17 */
(PID.TID 0000.0001)                 2.937500000000000E+01,      /* J = 18 */
(PID.TID 0000.0001)                 2.962500000000000E+01,      /* J = 19 */
(PID.TID 0000.0001)                 2.987500000000000E+01,      /* J = 20 */
(PID.TID 0000.0001)                 3.012500000000000E+01,      /* J = 21 */
(PID.TID 0000.0001)                 3.037500000000000E+01,      /* J = 22 */
(PID.TID 0000.0001)                 3.062500000000000E+01,      /* J = 23 */
(PID.TID 0000.0001)                 3.087500000000000E+01,      /* J = 24 */
(PID.TID 0000.0001)                 3.112500000000000E+01,      /* J = 25 */
(PID.TID 0000.0001)                 3.137500000000000E+01,      /* J = 26 */
(PID.TID 0000.0001)                 3.162500000000000E+01,      /* J = 27 */
(PID.TID 0000.0001)                 3.187500000000000E+01,      /* J = 28 */
(PID.TID 0000.0001)                 3.212500000000000E+01,      /* J = 29 */
(PID.TID 0000.0001)                 3.237500000000000E+01,      /* J = 30 */
(PID.TID 0000.0001)                 3.262500000000000E+01,      /* J = 31 */
(PID.TID 0000.0001)                 3.287500000000000E+01,      /* J = 32 */
(PID.TID 0000.0001)                 3.312500000000000E+01,      /* J = 33 */
(PID.TID 0000.0001)                 3.337500000000000E+01,      /* J = 34 */
(PID.TID 0000.0001)                 3.362500000000000E+01,      /* J = 35 */
(PID.TID 0000.0001)                 3.387500000000000E+01,      /* J = 36 */
(PID.TID 0000.0001)                 3.412500000000000E+01,      /* J = 37 */
(PID.TID 0000.0001)                 3.437500000000000E+01,      /* J = 38 */
(PID.TID 0000.0001)                 3.462500000000000E+01,      /* J = 39 */
(PID.TID 0000.0001)                 3.487500000000000E+01,      /* J = 40 */
(PID.TID 0000.0001)                 3.512500000000000E+01,      /* J = 41 */
(PID.TID 0000.0001)                 3.537500000000000E+01,      /* J = 42 */
(PID.TID 0000.0001)                 3.562500000000000E+01,      /* J = 43 */
(PID.TID 0000.0001)                 3.587500000000000E+01,      /* J = 44 */
(PID.TID 0000.0001)                 3.612500000000000E+01,      /* J = 45 */
(PID.TID 0000.0001)                 3.637500000000000E+01,      /* J = 46 */
(PID.TID 0000.0001)                 3.662500000000000E+01,      /* J = 47 */
(PID.TID 0000.0001)                 3.687500000000000E+01,      /* J = 48 */
(PID.TID 0000.0001)                 3.712500000000000E+01,      /* J = 49 */
(PID.TID 0000.0001)                 3.737500000000000E+01,      /* J = 50 */
(PID.TID 0000.0001)                 3.762500000000000E+01,      /* J = 51 */
(PID.TID 0000.0001)                 3.787500000000000E+01,      /* J = 52 */
(PID.TID 0000.0001)                 3.812500000000000E+01,      /* J = 53 */
(PID.TID 0000.0001)                 3.837500000000000E+01,      /* J = 54 */
(PID.TID 0000.0001)                 3.862500000000000E+01,      /* J = 55 */
(PID.TID 0000.0001)                 3.887500000000000E+01,      /* J = 56 */
(PID.TID 0000.0001)                 3.912500000000000E+01,      /* J = 57 */
(PID.TID 0000.0001)                 3.937500000000000E+01,      /* J = 58 */
(PID.TID 0000.0001)                 3.962500000000000E+01,      /* J = 59 */
(PID.TID 0000.0001)                 3.987500000000000E+01,      /* J = 60 */
(PID.TID 0000.0001)                 4.012500000000000E+01,      /* J = 61 */
(PID.TID 0000.0001)                 4.037500000000000E+01,      /* J = 62 */
(PID.TID 0000.0001)                 4.062500000000000E+01,      /* J = 63 */
(PID.TID 0000.0001)                 4.087500000000000E+01       /* J = 64 */
(PID.TID 0000.0001)     ;
(PID.TID 0000.0001) rcoord = /* P-point R coordinate (  units of r ) */
(PID.TID 0000.0001)                -2.500000000000000E+02,      /* K =  1 */
(PID.TID 0000.0001)                -7.500000000000000E+02,      /* K =  2 */
(PID.TID 0000.0001)                -1.250000000000000E+03,      /* K =  3 */
(PID.TID 0000.0001)                -1.750000000000000E+03,      /* K =  4 */
(PID.TID 0000.0001)                -2.250000000000000E+03,      /* K =  5 */
(PID.TID 0000.0001)                -2.750000000000000E+03,      /* K =  6 */
(PID.TID 0000.0001)                -3.250000000000000E+03,      /* K =  7 */
(PID.TID 0000.0001)                -3.750000000000000E+03       /* K =  8 */
(PID.TID 0000.0001)     ;
(PID.TID 0000.0001) rF =   /* W-Interf. R coordinate (  units of r ) */
(PID.TID 0000.0001)                 0.000000000000000E+00,      /* K =  1 */
(PID.TID 0000.0001)                -5.000000000000000E+02,      /* K =  2 */
(PID.TID 0000.0001)                -1.000000000000000E+03,      /* K =  3 */
(PID.TID 0000.0001)                -1.500000000000000E+03,      /* K =  4 */
(PID.TID 0000.0001)                -2.000000000000000E+03,      /* K =  5 */
(PID.TID 0000.0001)                -2.500000000000000E+03,      /* K =  6 */
(PID.TID 0000.0001)                -3.000000000000000E+03,      /* K =  7 */
(PID.TID 0000.0001)                -3.500000000000000E+03,      /* K =  8 */
(PID.TID 0000.0001)                -4.000000000000000E+03       /* K =  9 */
(PID.TID 0000.0001)     ;
(PID.TID 0000.0001) deepFacC = /* deep-model grid factor @ cell-Center (-) */
(PID.TID 0000.0001)     8 @  1.000000000000000E+00              /* K =  1:  8 */
(PID.TID 0000.0001)     ;
(PID.TID 0000.0001) deepFacF = /* deep-model grid factor @ W-Interface (-) */
(PID.TID 0000.0001)     9 @  1.000000000000000E+00              /* K =  1:  9 */
(PID.TID 0000.0001)     ;
(PID.TID 0000.0001) rVel2wUnit = /* convert units: rVel -> wSpeed (=1 if z-coord)*/
(PID.TID 0000.0001)     9 @  1.000000000000000E+00              /* K =  1:  9 */
(PID.TID 0000.0001)     ;
(PID.TID 0000.0001) wUnit2rVel = /* convert units: wSpeed -> rVel (=1 if z-coord)*/
(PID.TID 0000.0001)     9 @  1.000000000000000E+00              /* K =  1:  9 */
(PID.TID 0000.0001)     ;
(PID.TID 0000.0001) dBdrRef = /* Vertical grad. of reference buoyancy [(m/s/r)^2] */
(PID.TID 0000.0001)                 0.000000000000000E+00,      /* K =  1 */
(PID.TID 0000.0001)     2 @  1.569600000000000E-05,             /* K =  2:  3 */
(PID.TID 0000.0001)                 7.848000000000000E-06,      /* K =  4 */
(PID.TID 0000.0001)     4 @  3.924000000000000E-06              /* K =  5:  8 */
(PID.TID 0000.0001)     ;
(PID.TID 0000.0001) rotateGrid = /* use rotated grid ( True/False ) */
(PID.TID 0000.0001)                   F
(PID.TID 0000.0001)     ;
(PID.TID 0000.0001) phiEuler = /* Euler angle, rotation about original z-coordinate [rad] */
(PID.TID 0000.0001)                 0.000000000000000E+00
(PID.TID 0000.0001)     ;
(PID.TID 0000.0001) thetaEuler = /* Euler angle, rotation about new x-coordinate [rad] */
(PID.TID 0000.0001)                 0.000000000000000E+00
(PID.TID 0000.0001)     ;
(PID.TID 0000.0001) psiEuler = /* Euler angle, rotation about new z-coordinate [rad] */
(PID.TID 0000.0001)                 0.000000000000000E+00
(PID.TID 0000.0001)     ;
(PID.TID 0000.0001) dxF =  /* dxF(:,1,:,1) ( units: m ) */
(PID.TID 0000.0001)    64 @  2.516456584643870E+04              /* I =  1: 64 */
(PID.TID 0000.0001)     ;
(PID.TID 0000.0001) dxF =  /* dxF(1,:,1,:) ( units: m ) */
(PID.TID 0000.0001)                 2.516456584643870E+04,      /* J =  1 */
(PID.TID 0000.0001)                 2.511283341791677E+04,      /* J =  2 */
(PID.TID 0000.0001)                 2.506062287724593E+04,      /* J =  3 */
(PID.TID 0000.0001)                 2.500793521843962E+04,      /* J =  4 */
(PID.TID 0000.0001)                 2.495477144459491E+04,      /* J =  5 */
(PID.TID 0000.0001)                 2.490113256787343E+04,      /* J =  6 */
(PID.TID 0000.0001)                 2.484701960948206E+04,      /* J =  7 */
(PID.TID 0000.0001)                 2.479243359965354E+04,      /* J =  8 */
(PID.TID 0000.0001)                 2.473737557762680E+04,      /* J =  9 */
(PID.TID 0000.0001)                 2.468184659162722E+04,      /* J = 10 */
(PID.TID 0000.0001)                 2.462584769884665E+04,      /* J = 11 */
(PID.TID 0000.0001)                 2.456937996542330E+04,      /* J = 12 */
(PID.TID 0000.0001)                 2.451244446642140E+04,      /* J = 13 */
(PID.TID 0000.0001)                 2.445504228581079E+04,      /* J = 14 */
(PID.TID 0000.0001)                 2.439717451644624E+04,      /* J = 15 */
(PID.TID 0000.0001)                 2.433884226004667E+04,      /* J = 16 */
(PID.TID 0000.0001)                 2.428004662717415E+04,      /* J = 17 */
(PID.TID 0000.0001)                 2.422078873721278E+04,      /* J = 18 */
(PID.TID 0000.0001)                 2.416106971834737E+04,      /* J = 19 */
(PID.TID 0000.0001)                 2.410089070754197E+04,      /* J = 20 */
(PID.TID 0000.0001)                 2.404025285051817E+04,      /* J = 21 */
(PID.TID 0000.0001)                 2.397915730173338E+04,      /* J = 22 */
(PID.TID 0000.0001)                 2.391760522435877E+04,      /* J = 23 */
(PID.TID 0000.0001)                 2.385559779025718E+04,      /* J = 24 */
(PID.TID 0000.0001)                 2.379313617996076E+04,      /* J = 25 */
(PID.TID 0000.0001)                 2.373022158264854E+04,      /* J = 26 */
(PID.TID 0000.0001)                 2.366685519612378E+04,      /* J = 27 */
(PID.TID 0000.0001)                 2.360303822679111E+04,      /* J = 28 */
(PID.TID 0000.0001)                 2.353877188963365E+04,      /* J = 29 */
(PID.TID 0000.0001)                 2.347405740818982E+04,      /* J = 30 */
(PID.TID 0000.0001)                 2.340889601453007E+04,      /* J = 31 */
(PID.TID 0000.0001)                 2.334328894923340E+04,      /* J = 32 */
(PID.TID 0000.0001)                 2.327723746136375E+04,      /* J = 33 */
(PID.TID 0000.0001)                 2.321074280844627E+04,      /* J = 34 */
(PID.TID 0000.0001)                 2.314380625644327E+04,      /* J = 35 */
(PID.TID 0000.0001)                 2.307642907973023E+04,      /* J = 36 */
(PID.TID 0000.0001)                 2.300861256107146E+04,      /* J = 37 */
(PID.TID 0000.0001)                 2.294035799159574E+04,      /* J = 38 */
(PID.TID 0000.0001)                 2.287166667077167E+04,      /* J = 39 */
(PID.TID 0000.0001)                 2.280253990638299E+04,      /* J = 40 */
(PID.TID 0000.0001)                 2.273297901450364E+04,      /* J = 41 */
(PID.TID 0000.0001)                 2.266298531947274E+04,      /* J = 42 */
(PID.TID 0000.0001)                 2.259256015386935E+04,      /* J = 43 */
(PID.TID 0000.0001)                 2.252170485848710E+04,      /* J = 44 */
(PID.TID 0000.0001)                 2.245042078230868E+04,      /* J = 45 */
(PID.TID 0000.0001)                 2.237870928248015E+04,      /* J = 46 */
(PID.TID 0000.0001)                 2.230657172428511E+04,      /* J = 47 */
(PID.TID 0000.0001)                 2.223400948111865E+04,      /* J = 48 */
(PID.TID 0000.0001)                 2.216102393446132E+04,      /* J = 49 */
(PID.TID 0000.0001)                 2.208761647385271E+04,      /* J = 50 */
(PID.TID 0000.0001)                 2.201378849686504E+04,      /* J = 51 */
(PID.TID 0000.0001)                 2.193954140907658E+04,      /* J = 52 */
(PID.TID 0000.0001)                 2.186487662404487E+04,      /* J = 53 */
(PID.TID 0000.0001)                 2.178979556327977E+04,      /* J = 54 */
(PID.TID 0000.0001)                 2.171429965621647E+04,      /* J = 55 */
(PID.TID 0000.0001)                 2.163839034018820E+04,      /* J = 56 */
(PID.TID 0000.0001)                 2.156206906039891E+04,      /* J = 57 */
(PID.TID 0000.0001)                 2.148533726989578E+04,      /* J = 58 */
(PID.TID 0000.0001)                 2.140819642954147E+04,      /* J = 59 */
(PID.TID 0000.0001)                 2.133064800798639E+04,      /* J = 60 */
(PID.TID 0000.0001)                 2.125269348164072E+04,      /* J = 61 */
(PID.TID 0000.0001)                 2.117433433464624E+04,      /* J = 62 */
(PID.TID 0000.0001)                 2.109557205884818E+04,      /* J = 63 */
(PID.TID 0000.0001)                 2.101640815376673E+04       /* J = 64 */
(PID.TID 0000.0001)     ;
(PID.TID 0000.0001) dyF =  /* dyF(:,1,:,1) ( units: m ) */
(PID.TID 0000.0001)    64 @  2.779436833800970E+04              /* I =  1: 64 */
(PID.TID 0000.0001)     ;
(PID.TID 0000.0001) dyF =  /* dyF(1,:,1,:) ( units: m ) */
(PID.TID 0000.0001)    64 @  2.779436833800970E+04              /* J =  1: 64 */
(PID.TID 0000.0001)     ;
(PID.TID 0000.0001) dxG =  /* dxG(:,1,:,1) ( units: m ) */
(PID.TID 0000.0001)    64 @  2.519025246050310E+04              /* I =  1: 64 */
(PID.TID 0000.0001)     ;
(PID.TID 0000.0001) dxG =  /* dxG(1,:,1,:) ( units: m ) */
(PID.TID 0000.0001)                 2.519025246050310E+04,      /* J =  1 */
(PID.TID 0000.0001)                 2.513875945796684E+04,      /* J =  2 */
(PID.TID 0000.0001)                 2.508678784968725E+04,      /* J =  3 */
(PID.TID 0000.0001)                 2.503433862512882E+04,      /* J =  4 */
(PID.TID 0000.0001)                 2.498141278284919E+04,      /* J =  5 */
(PID.TID 0000.0001)                 2.492801133048011E+04,      /* J =  6 */
(PID.TID 0000.0001)                 2.487413528470825E+04,      /* J =  7 */
(PID.TID 0000.0001)                 2.481978567125586E+04,      /* J =  8 */
(PID.TID 0000.0001)                 2.476496352486124E+04,      /* J =  9 */
(PID.TID 0000.0001)                 2.470966988925904E+04,      /* J = 10 */
(PID.TID 0000.0001)                 2.465390581716037E+04,      /* J = 11 */
(PID.TID 0000.0001)                 2.459767237023278E+04,      /* J = 12 */
(PID.TID 0000.0001)                 2.454097061908004E+04,      /* J = 13 */
(PID.TID 0000.0001)                 2.448380164322176E+04,      /* J = 14 */
(PID.TID 0000.0001)                 2.442616653107283E+04,      /* J = 15 */
(PID.TID 0000.0001)                 2.436806637992272E+04,      /* J = 16 */
(PID.TID 0000.0001)                 2.430950229591454E+04,      /* J = 17 */
(PID.TID 0000.0001)                 2.425047539402404E+04,      /* J = 18 */
(PID.TID 0000.0001)                 2.419098679803835E+04,      /* J = 19 */
(PID.TID 0000.0001)                 2.413103764053457E+04,      /* J = 20 */
(PID.TID 0000.0001)                 2.407062906285827E+04,      /* J = 21 */
(PID.TID 0000.0001)                 2.400976221510167E+04,      /* J = 22 */
(PID.TID 0000.0001)                 2.394843825608182E+04,      /* J = 23 */
(PID.TID 0000.0001)                 2.388665835331851E+04,      /* J = 24 */
(PID.TID 0000.0001)                 2.382442368301203E+04,      /* J = 25 */
(PID.TID 0000.0001)                 2.376173543002079E+04,      /* J = 26 */
(PID.TID 0000.0001)                 2.369859478783877E+04,      /* J = 27 */
(PID.TID 0000.0001)                 2.363500295857277E+04,      /* J = 28 */
(PID.TID 0000.0001)                 2.357096115291957E+04,      /* J = 29 */
(PID.TID 0000.0001)                 2.350647059014283E+04,      /* J = 30 */
(PID.TID 0000.0001)                 2.344153249804990E+04,      /* J = 31 */
(PID.TID 0000.0001)                 2.337614811296844E+04,      /* J = 32 */
(PID.TID 0000.0001)                 2.331031867972290E+04,      /* J = 33 */
(PID.TID 0000.0001)                 2.324404545161081E+04,      /* J = 34 */
(PID.TID 0000.0001)                 2.317732969037889E+04,      /* J = 35 */
(PID.TID 0000.0001)                 2.311017266619906E+04,      /* J = 36 */
(PID.TID 0000.0001)                 2.304257565764427E+04,      /* J = 37 */
(PID.TID 0000.0001)                 2.297453995166411E+04,      /* J = 38 */
(PID.TID 0000.0001)                 2.290606684356036E+04,      /* J = 39 */
(PID.TID 0000.0001)                 2.283715763696229E+04,      /* J = 40 */
(PID.TID 0000.0001)                 2.276781364380187E+04,      /* J = 41 */
(PID.TID 0000.0001)                 2.269803618428877E+04,      /* J = 42 */
(PID.TID 0000.0001)                 2.262782658688523E+04,      /* J = 43 */
(PID.TID 0000.0001)                 2.255718618828079E+04,      /* J = 44 */
(PID.TID 0000.0001)                 2.248611633336681E+04,      /* J = 45 */
(PID.TID 0000.0001)                 2.241461837521088E+04,      /* J = 46 */
(PID.TID 0000.0001)                 2.234269367503106E+04,      /* J = 47 */
(PID.TID 0000.0001)                 2.227034360216997E+04,      /* J = 48 */
(PID.TID 0000.0001)                 2.219756953406870E+04,      /* J = 49 */
(PID.TID 0000.0001)                 2.212437285624061E+04,      /* J = 50 */
(PID.TID 0000.0001)                 2.205075496224494E+04,      /* J = 51 */
(PID.TID 0000.0001)                 2.197671725366026E+04,      /* J = 52 */
(PID.TID 0000.0001)                 2.190226114005784E+04,      /* J = 53 */
(PID.TID 0000.0001)                 2.182738803897473E+04,      /* J = 54 */
(PID.TID 0000.0001)                 2.175209937588686E+04,      /* J = 55 */
(PID.TID 0000.0001)                 2.167639658418185E+04,      /* J = 56 */
(PID.TID 0000.0001)                 2.160028110513174E+04,      /* J = 57 */
(PID.TID 0000.0001)                 2.152375438786551E+04,      /* J = 58 */
(PID.TID 0000.0001)                 2.144681788934157E+04,      /* J = 59 */
(PID.TID 0000.0001)                 2.136947307431993E+04,      /* J = 60 */
(PID.TID 0000.0001)                 2.129172141533439E+04,      /* J = 61 */
(PID.TID 0000.0001)                 2.121356439266446E+04,      /* J = 62 */
(PID.TID 0000.0001)                 2.113500349430719E+04,      /* J = 63 */
(PID.TID 0000.0001)                 2.105604021594884E+04       /* J = 64 */
(PID.TID 0000.0001)     ;
(PID.TID 0000.0001) dyG =  /* dyG(:,1,:,1) ( units: m ) */
(PID.TID 0000.0001)    64 @  2.779436833800970E+04              /* I =  1: 64 */
(PID.TID 0000.0001)     ;
(PID.TID 0000.0001) dyG =  /* dyG(1,:,1,:) ( units: m ) */
(PID.TID 0000.0001)    64 @  2.779436833800970E+04              /* J =  1: 64 */
(PID.TID 0000.0001)     ;
(PID.TID 0000.0001) dxC =  /* dxC(:,1,:,1) ( units: m ) */
(PID.TID 0000.0001)    64 @  2.516456584643870E+04              /* I =  1: 64 */
(PID.TID 0000.0001)     ;
(PID.TID 0000.0001) dxC =  /* dxC(1,:,1,:) ( units: m ) */
(PID.TID 0000.0001)                 2.516456584643870E+04,      /* J =  1 */
(PID.TID 0000.0001)                 2.511283341791677E+04,      /* J =  2 */
(PID.TID 0000.0001)                 2.506062287724593E+04,      /* J =  3 */
(PID.TID 0000.0001)                 2.500793521843962E+04,      /* J =  4 */
(PID.TID 0000.0001)                 2.495477144459491E+04,      /* J =  5 */
(PID.TID 0000.0001)                 2.490113256787343E+04,      /* J =  6 */
(PID.TID 0000.0001)                 2.484701960948206E+04,      /* J =  7 */
(PID.TID 0000.0001)                 2.479243359965354E+04,      /* J =  8 */
(PID.TID 0000.0001)                 2.473737557762680E+04,      /* J =  9 */
(PID.TID 0000.0001)                 2.468184659162722E+04,      /* J = 10 */
(PID.TID 0000.0001)                 2.462584769884665E+04,      /* J = 11 */
(PID.TID 0000.0001)                 2.456937996542330E+04,      /* J = 12 */
(PID.TID 0000.0001)                 2.451244446642140E+04,      /* J = 13 */
(PID.TID 0000.0001)                 2.445504228581079E+04,      /* J = 14 */
(PID.TID 0000.0001)                 2.439717451644624E+04,      /* J = 15 */
(PID.TID 0000.0001)                 2.433884226004667E+04,      /* J = 16 */
(PID.TID 0000.0001)                 2.428004662717415E+04,      /* J = 17 */
(PID.TID 0000.0001)                 2.422078873721278E+04,      /* J = 18 */
(PID.TID 0000.0001)                 2.416106971834737E+04,      /* J = 19 */
(PID.TID 0000.0001)                 2.410089070754197E+04,      /* J = 20 */
(PID.TID 0000.0001)                 2.404025285051817E+04,      /* J = 21 */
(PID.TID 0000.0001)                 2.397915730173338E+04,      /* J = 22 */
(PID.TID 0000.0001)                 2.391760522435877E+04,      /* J = 23 */
(PID.TID 0000.0001)                 2.385559779025718E+04,      /* J = 24 */
(PID.TID 0000.0001)                 2.379313617996076E+04,      /* J = 25 */
(PID.TID 0000.0001)                 2.373022158264854E+04,      /* J = 26 */
(PID.TID 0000.0001)                 2.366685519612378E+04,      /* J = 27 */
(PID.TID 0000.0001)                 2.360303822679111E+04,      /* J = 28 */
(PID.TID 0000.0001)                 2.353877188963365E+04,      /* J = 29 */
(PID.TID 0000.0001)                 2.347405740818982E+04,      /* J = 30 */
(PID.TID 0000.0001)                 2.340889601453007E+04,      /* J = 31 */
(PID.TID 0000.0001)                 2.334328894923340E+04,      /* J = 32 */
(PID.TID 0000.0001)                 2.327723746136375E+04,      /* J = 33 */
(PID.TID 0000.0001)                 2.321074280844627E+04,      /* J = 34 */
(PID.TID 0000.0001)                 2.314380625644327E+04,      /* J = 35 */
(PID.TID 0000.0001)                 2.307642907973023E+04,      /* J = 36 */
(PID.TID 0000.0001)                 2.300861256107146E+04,      /* J = 37 */
(PID.TID 0000.0001)                 2.294035799159574E+04,      /* J = 38 */
(PID.TID 0000.0001)                 2.287166667077167E+04,      /* J = 39 */
(PID.TID 0000.0001)                 2.280253990638299E+04,      /* J = 40 */
(PID.TID 0000.0001)                 2.273297901450364E+04,      /* J = 41 */
(PID.TID 0000.0001)                 2.266298531947274E+04,      /* J = 42 */
(PID.TID 0000.0001)                 2.259256015386935E+04,      /* J = 43 */
(PID.TID 0000.0001)                 2.252170485848710E+04,      /* J = 44 */
(PID.TID 0000.0001)                 2.245042078230868E+04,      /* J = 45 */
(PID.TID 0000.0001)                 2.237870928248015E+04,      /* J = 46 */
(PID.TID 0000.0001)                 2.230657172428511E+04,      /* J = 47 */
(PID.TID 0000.0001)                 2.223400948111865E+04,      /* J = 48 */
(PID.TID 0000.0001)                 2.216102393446132E+04,      /* J = 49 */
(PID.TID 0000.0001)                 2.208761647385271E+04,      /* J = 50 */
(PID.TID 0000.0001)                 2.201378849686504E+04,      /* J = 51 */
(PID.TID 0000.0001)                 2.193954140907658E+04,      /* J = 52 */
(PID.TID 0000.0001)                 2.186487662404487E+04,      /* J = 53 */
(PID.TID 0000.0001)                 2.178979556327977E+04,      /* J = 54 */
(PID.TID 0000.0001)                 2.171429965621647E+04,      /* J = 55 */
(PID.TID 0000.0001)                 2.163839034018820E+04,      /* J = 56 */
(PID.TID 0000.0001)                 2.156206906039891E+04,      /* J = 57 */
(PID.TID 0000.0001)                 2.148533726989578E+04,      /* J = 58 */
(PID.TID 0000.0001)                 2.140819642954147E+04,      /* J = 59 */
(PID.TID 0000.0001)                 2.133064800798639E+04,      /* J = 60 */
(PID.TID 0000.0001)                 2.125269348164072E+04,      /* J = 61 */
(PID.TID 0000.0001)                 2.117433433464624E+04,      /* J = 62 */
(PID.TID 0000.0001)                 2.109557205884818E+04,      /* J = 63 */
(PID.TID 0000.0001)                 2.101640815376673E+04       /* J = 64 */
(PID.TID 0000.0001)     ;
(PID.TID 0000.0001) dyC =  /* dyC(:,1,:,1) ( units: m ) */
(PID.TID 0000.0001)    64 @  2.779436833800970E+04              /* I =  1: 64 */
(PID.TID 0000.0001)     ;
(PID.TID 0000.0001) dyC =  /* dyC(1,:,1,:) ( units: m ) */
(PID.TID 0000.0001)    64 @  2.779436833800970E+04              /* J =  1: 64 */
(PID.TID 0000.0001)     ;
(PID.TID 0000.0001) dxV =  /* dxV(:,1,:,1) ( units: m ) */
(PID.TID 0000.0001)    64 @  2.519025246050310E+04              /* I =  1: 64 */
(PID.TID 0000.0001)     ;
(PID.TID 0000.0001) dxV =  /* dxV(1,:,1,:) ( units: m ) */
(PID.TID 0000.0001)                 2.519025246050310E+04,      /* J =  1 */
(PID.TID 0000.0001)                 2.513875945796684E+04,      /* J =  2 */
(PID.TID 0000.0001)                 2.508678784968725E+04,      /* J =  3 */
(PID.TID 0000.0001)                 2.503433862512882E+04,      /* J =  4 */
(PID.TID 0000.0001)                 2.498141278284919E+04,      /* J =  5 */
(PID.TID 0000.0001)                 2.492801133048011E+04,      /* J =  6 */
(PID.TID 0000.0001)                 2.487413528470825E+04,      /* J =  7 */
(PID.TID 0000.0001)                 2.481978567125586E+04,      /* J =  8 */
(PID.TID 0000.0001)                 2.476496352486124E+04,      /* J =  9 */
(PID.TID 0000.0001)                 2.470966988925904E+04,      /* J = 10 */
(PID.TID 0000.0001)                 2.465390581716037E+04,      /* J = 11 */
(PID.TID 0000.0001)                 2.459767237023278E+04,      /* J = 12 */
(PID.TID 0000.0001)                 2.454097061908004E+04,      /* J = 13 */
(PID.TID 0000.0001)                 2.448380164322176E+04,      /* J = 14 */
(PID.TID 0000.0001)                 2.442616653107283E+04,      /* J = 15 */
(PID.TID 0000.0001)                 2.436806637992272E+04,      /* J = 16 */
(PID.TID 0000.0001)                 2.430950229591454E+04,      /* J = 17 */
(PID.TID 0000.0001)                 2.425047539402404E+04,      /* J = 18 */
(PID.TID 0000.0001)                 2.419098679803835E+04,      /* J = 19 */
(PID.TID 0000.0001)                 2.413103764053457E+04,      /* J = 20 */
(PID.TID 0000.0001)                 2.407062906285827E+04,      /* J = 21 */
(PID.TID 0000.0001)                 2.400976221510167E+04,      /* J = 22 */
(PID.TID 0000.0001)                 2.394843825608182E+04,      /* J = 23 */
(PID.TID 0000.0001)                 2.388665835331851E+04,      /* J = 24 */
(PID.TID 0000.0001)                 2.382442368301203E+04,      /* J = 25 */
(PID.TID 0000.0001)                 2.376173543002079E+04,      /* J = 26 */
(PID.TID 0000.0001)                 2.369859478783877E+04,      /* J = 27 */
(PID.TID 0000.0001)                 2.363500295857277E+04,      /* J = 28 */
(PID.TID 0000.0001)                 2.357096115291957E+04,      /* J = 29 */
(PID.TID 0000.0001)                 2.350647059014283E+04,      /* J = 30 */
(PID.TID 0000.0001)                 2.344153249804990E+04,      /* J = 31 */
(PID.TID 0000.0001)                 2.337614811296844E+04,      /* J = 32 */
(PID.TID 0000.0001)                 2.331031867972290E+04,      /* J = 33 */
(PID.TID 0000.0001)                 2.324404545161081E+04,      /* J = 34 */
(PID.TID 0000.0001)                 2.317732969037889E+04,      /* J = 35 */
(PID.TID 0000.0001)                 2.311017266619906E+04,      /* J = 36 */
(PID.TID 0000.0001)                 2.304257565764427E+04,      /* J = 37 */
(PID.TID 0000.0001)                 2.297453995166411E+04,      /* J = 38 */
(PID.TID 0000.0001)                 2.290606684356036E+04,      /* J = 39 */
(PID.TID 0000.0001)                 2.283715763696229E+04,      /* J = 40 */
(PID.TID 0000.0001)                 2.276781364380187E+04,      /* J = 41 */
(PID.TID 0000.0001)                 2.269803618428877E+04,      /* J = 42 */
(PID.TID 0000.0001)                 2.262782658688523E+04,      /* J = 43 */
(PID.TID 0000.0001)                 2.255718618828079E+04,      /* J = 44 */
(PID.TID 0000.0001)                 2.248611633336681E+04,      /* J = 45 */
(PID.TID 0000.0001)                 2.241461837521088E+04,      /* J = 46 */
(PID.TID 0000.0001)                 2.234269367503106E+04,      /* J = 47 */
(PID.TID 0000.0001)                 2.227034360216997E+04,      /* J = 48 */
(PID.TID 0000.0001)                 2.219756953406870E+04,      /* J = 49 */
(PID.TID 0000.0001)                 2.212437285624061E+04,      /* J = 50 */
(PID.TID 0000.0001)                 2.205075496224494E+04,      /* J = 51 */
(PID.TID 0000.0001)                 2.197671725366026E+04,      /* J = 52 */
(PID.TID 0000.0001)                 2.190226114005784E+04,      /* J = 53 */
(PID.TID 0000.0001)                 2.182738803897473E+04,      /* J = 54 */
(PID.TID 0000.0001)                 2.175209937588686E+04,      /* J = 55 */
(PID.TID 0000.0001)                 2.167639658418185E+04,      /* J = 56 */
(PID.TID 0000.0001)                 2.160028110513174E+04,      /* J = 57 */
(PID.TID 0000.0001)                 2.152375438786551E+04,      /* J = 58 */
(PID.TID 0000.0001)                 2.144681788934157E+04,      /* J = 59 */
(PID.TID 0000.0001)                 2.136947307431993E+04,      /* J = 60 */
(PID.TID 0000.0001)                 2.129172141533439E+04,      /* J = 61 */
(PID.TID 0000.0001)                 2.121356439266446E+04,      /* J = 62 */
(PID.TID 0000.0001)                 2.113500349430719E+04,      /* J = 63 */
(PID.TID 0000.0001)                 2.105604021594884E+04       /* J = 64 */
(PID.TID 0000.0001)     ;
(PID.TID 0000.0001) dyU =  /* dyU(:,1,:,1) ( units: m ) */
(PID.TID 0000.0001)    64 @  2.779436833800970E+04              /* I =  1: 64 */
(PID.TID 0000.0001)     ;
(PID.TID 0000.0001) dyU =  /* dyU(1,:,1,:) ( units: m ) */
(PID.TID 0000.0001)    64 @  2.779436833800970E+04              /* J =  1: 64 */
(PID.TID 0000.0001)     ;
(PID.TID 0000.0001) rA  =  /* rA (:,1,:,1) ( units: m^2 ) */
(PID.TID 0000.0001)    64 @  6.994326573595897E+08              /* I =  1: 64 */
(PID.TID 0000.0001)     ;
(PID.TID 0000.0001) rA  =  /* rA (1,:,1,:) ( units: m^2 ) */
(PID.TID 0000.0001)                 6.994326573595897E+08,      /* J =  1 */
(PID.TID 0000.0001)                 6.979947883268648E+08,      /* J =  2 */
(PID.TID 0000.0001)                 6.965436304794976E+08,      /* J =  3 */
(PID.TID 0000.0001)                 6.950792114454534E+08,      /* J =  4 */
(PID.TID 0000.0001)                 6.936015591051663E+08,      /* J =  5 */
(PID.TID 0000.0001)                 6.921107015909784E+08,      /* J =  6 */
(PID.TID 0000.0001)                 6.906066672867069E+08,      /* J =  7 */
(PID.TID 0000.0001)                 6.890894848269770E+08,      /* J =  8 */
(PID.TID 0000.0001)                 6.875591830967587E+08,      /* J =  9 */
(PID.TID 0000.0001)                 6.860157912307780E+08,      /* J = 10 */
(PID.TID 0000.0001)                 6.844593386130148E+08,      /* J = 11 */
(PID.TID 0000.0001)                 6.828898548760654E+08,      /* J = 12 */
(PID.TID 0000.0001)                 6.813073699006394E+08,      /* J = 13 */
(PID.TID 0000.0001)                 6.797119138149720E+08,      /* J = 14 */
(PID.TID 0000.0001)                 6.781035169942623E+08,      /* J = 15 */
(PID.TID 0000.0001)                 6.764822100600548E+08,      /* J = 16 */
(PID.TID 0000.0001)                 6.748480238796690E+08,      /* J = 17 */
(PID.TID 0000.0001)                 6.732009895657281E+08,      /* J = 18 */
(PID.TID 0000.0001)                 6.715411384752938E+08,      /* J = 19 */
(PID.TID 0000.0001)                 6.698685022096107E+08,      /* J = 20 */
(PID.TID 0000.0001)                 6.681831126132613E+08,      /* J = 21 */
(PID.TID 0000.0001)                 6.664850017735666E+08,      /* J = 22 */
(PID.TID 0000.0001)                 6.647742020202218E+08,      /* J = 23 */
(PID.TID 0000.0001)                 6.630507459242355E+08,      /* J = 24 */
(PID.TID 0000.0001)                 6.613146662978902E+08,      /* J = 25 */
(PID.TID 0000.0001)                 6.595659961935136E+08,      /* J = 26 */
(PID.TID 0000.0001)                 6.578047689033611E+08,      /* J = 27 */
(PID.TID 0000.0001)                 6.560310179585534E+08,      /* J = 28 */
(PID.TID 0000.0001)                 6.542447771288618E+08,      /* J = 29 */
(PID.TID 0000.0001)                 6.524460804216844E+08,      /* J = 30 */
(PID.TID 0000.0001)                 6.506349620815755E+08,      /* J = 31 */
(PID.TID 0000.0001)                 6.488114565896950E+08,      /* J = 32 */
(PID.TID 0000.0001)                 6.469755986629034E+08,      /* J = 33 */
(PID.TID 0000.0001)                 6.451274232533309E+08,      /* J = 34 */
(PID.TID 0000.0001)                 6.432669655475305E+08,      /* J = 35 */
(PID.TID 0000.0001)                 6.413942609659878E+08,      /* J = 36 */
(PID.TID 0000.0001)                 6.395093451621964E+08,      /* J = 37 */
(PID.TID 0000.0001)                 6.376122540223833E+08,      /* J = 38 */
(PID.TID 0000.0001)                 6.357030236643095E+08,      /* J = 39 */
(PID.TID 0000.0001)                 6.337816904370142E+08,      /* J = 40 */
(PID.TID 0000.0001)                 6.318482909199312E+08,      /* J = 41 */
(PID.TID 0000.0001)                 6.299028619221603E+08,      /* J = 42 */
(PID.TID 0000.0001)                 6.279454404818789E+08,      /* J = 43 */
(PID.TID 0000.0001)                 6.259760638655939E+08,      /* J = 44 */
(PID.TID 0000.0001)                 6.239947695673566E+08,      /* J = 45 */
(PID.TID 0000.0001)                 6.220015953081915E+08,      /* J = 46 */
(PID.TID 0000.0001)                 6.199965790352323E+08,      /* J = 47 */
(PID.TID 0000.0001)                 6.179797589211514E+08,      /* J = 48 */
(PID.TID 0000.0001)                 6.159511733632165E+08,      /* J = 49 */
(PID.TID 0000.0001)                 6.139108609828386E+08,      /* J = 50 */
(PID.TID 0000.0001)                 6.118588606245891E+08,      /* J = 51 */
(PID.TID 0000.0001)                 6.097952113556099E+08,      /* J = 52 */
(PID.TID 0000.0001)                 6.077199524648079E+08,      /* J = 53 */
(PID.TID 0000.0001)                 6.056331234621273E+08,      /* J = 54 */
(PID.TID 0000.0001)                 6.035347640777835E+08,      /* J = 55 */
(PID.TID 0000.0001)                 6.014249142614759E+08,      /* J = 56 */
(PID.TID 0000.0001)                 5.993036141817799E+08,      /* J = 57 */
(PID.TID 0000.0001)                 5.971709042251236E+08,      /* J = 58 */
(PID.TID 0000.0001)                 5.950268249952575E+08,      /* J = 59 */
(PID.TID 0000.0001)                 5.928714173123310E+08,      /* J = 60 */
(PID.TID 0000.0001)                 5.907047222122821E+08,      /* J = 61 */
(PID.TID 0000.0001)                 5.885267809457574E+08,      /* J = 62 */
(PID.TID 0000.0001)                 5.863376349776791E+08,      /* J = 63 */
(PID.TID 0000.0001)                 5.841373259862225E+08       /* J = 64 */
(PID.TID 0000.0001)     ;
(PID.TID 0000.0001) rAw =  /* rAw(:,1,:,1) ( units: m^2 ) */
(PID.TID 0000.0001)    64 @  6.994326573595897E+08              /* I =  1: 64 */
(PID.TID 0000.0001)     ;
(PID.TID 0000.0001) rAw =  /* rAw(1,:,1,:) ( units: m^2 ) */
(PID.TID 0000.0001)                 6.994326573595897E+08,      /* J =  1 */
(PID.TID 0000.0001)                 6.979947883268648E+08,      /* J =  2 */
(PID.TID 0000.0001)                 6.965436304794976E+08,      /* J =  3 */
(PID.TID 0000.0001)                 6.950792114454534E+08,      /* J =  4 */
(PID.TID 0000.0001)                 6.936015591051663E+08,      /* J =  5 */
(PID.TID 0000.0001)                 6.921107015909784E+08,      /* J =  6 */
(PID.TID 0000.0001)                 6.906066672867069E+08,      /* J =  7 */
(PID.TID 0000.0001)                 6.890894848269770E+08,      /* J =  8 */
(PID.TID 0000.0001)                 6.875591830967587E+08,      /* J =  9 */
(PID.TID 0000.0001)                 6.860157912307780E+08,      /* J = 10 */
(PID.TID 0000.0001)                 6.844593386130148E+08,      /* J = 11 */
(PID.TID 0000.0001)                 6.828898548760654E+08,      /* J = 12 */
(PID.TID 0000.0001)                 6.813073699006394E+08,      /* J = 13 */
(PID.TID 0000.0001)                 6.797119138149720E+08,      /* J = 14 */
(PID.TID 0000.0001)                 6.781035169942623E+08,      /* J = 15 */
(PID.TID 0000.0001)                 6.764822100600548E+08,      /* J = 16 */
(PID.TID 0000.0001)                 6.748480238796690E+08,      /* J = 17 */
(PID.TID 0000.0001)                 6.732009895657281E+08,      /* J = 18 */
(PID.TID 0000.0001)                 6.715411384752938E+08,      /* J = 19 */
(PID.TID 0000.0001)                 6.698685022096107E+08,      /* J = 20 */
(PID.TID 0000.0001)                 6.681831126132613E+08,      /* J = 21 */
(PID.TID 0000.0001)                 6.664850017735666E+08,      /* J = 22 */
(PID.TID 0000.0001)                 6.647742020202218E+08,      /* J = 23 */
(PID.TID 0000.0001)                 6.630507459242355E+08,      /* J = 24 */
(PID.TID 0000.0001)                 6.613146662978902E+08,      /* J = 25 */
(PID.TID 0000.0001)                 6.595659961935136E+08,      /* J = 26 */
(PID.TID 0000.0001)                 6.578047689033611E+08,      /* J = 27 */
(PID.TID 0000.0001)                 6.560310179585534E+08,      /* J = 28 */
(PID.TID 0000.0001)                 6.542447771288618E+08,      /* J = 29 */
(PID.TID 0000.0001)                 6.524460804216844E+08,      /* J = 30 */
(PID.TID 0000.0001)                 6.506349620815755E+08,      /* J = 31 */
(PID.TID 0000.0001)                 6.488114565896950E+08,      /* J = 32 */
(PID.TID 0000.0001)                 6.469755986629034E+08,      /* J = 33 */
(PID.TID 0000.0001)                 6.451274232533309E+08,      /* J = 34 */
(PID.TID 0000.0001)                 6.432669655475305E+08,      /* J = 35 */
(PID.TID 0000.0001)                 6.413942609659878E+08,      /* J = 36 */
(PID.TID 0000.0001)                 6.395093451621964E+08,      /* J = 37 */
(PID.TID 0000.0001)                 6.376122540223833E+08,      /* J = 38 */
(PID.TID 0000.0001)                 6.357030236643095E+08,      /* J = 39 */
(PID.TID 0000.0001)                 6.337816904370142E+08,      /* J = 40 */
(PID.TID 0000.0001)                 6.318482909199312E+08,      /* J = 41 */
(PID.TID 0000.0001)                 6.299028619221603E+08,      /* J = 42 */
(PID.TID 0000.0001)                 6.279454404818789E+08,      /* J = 43 */
(PID.TID 0000.0001)                 6.259760638655939E+08,      /* J = 44 */
(PID.TID 0000.0001)                 6.239947695673566E+08,      /* J = 45 */
(PID.TID 0000.0001)                 6.220015953081915E+08,      /* J = 46 */
(PID.TID 0000.0001)                 6.199965790352323E+08,      /* J = 47 */
(PID.TID 0000.0001)                 6.179797589211514E+08,      /* J = 48 */
(PID.TID 0000.0001)                 6.159511733632165E+08,      /* J = 49 */
(PID.TID 0000.0001)                 6.139108609828386E+08,      /* J = 50 */
(PID.TID 0000.0001)                 6.118588606245891E+08,      /* J = 51 */
(PID.TID 0000.0001)                 6.097952113556099E+08,      /* J = 52 */
(PID.TID 0000.0001)                 6.077199524648079E+08,      /* J = 53 */
(PID.TID 0000.0001)                 6.056331234621273E+08,      /* J = 54 */
(PID.TID 0000.0001)                 6.035347640777835E+08,      /* J = 55 */
(PID.TID 0000.0001)                 6.014249142614759E+08,      /* J = 56 */
(PID.TID 0000.0001)                 5.993036141817799E+08,      /* J = 57 */
(PID.TID 0000.0001)                 5.971709042251236E+08,      /* J = 58 */
(PID.TID 0000.0001)                 5.950268249952575E+08,      /* J = 59 */
(PID.TID 0000.0001)                 5.928714173123310E+08,      /* J = 60 */
(PID.TID 0000.0001)                 5.907047222122821E+08,      /* J = 61 */
(PID.TID 0000.0001)                 5.885267809457574E+08,      /* J = 62 */
(PID.TID 0000.0001)                 5.863376349776791E+08,      /* J = 63 */
(PID.TID 0000.0001)                 5.841373259862225E+08       /* J = 64 */
(PID.TID 0000.0001)     ;
(PID.TID 0000.0001) rAs =  /* rAs(:,1,:,1) ( units: m^2 ) */
(PID.TID 0000.0001)    64 @  7.001466000059072E+08              /* I =  1: 64 */
(PID.TID 0000.0001)     ;
(PID.TID 0000.0001) rAs =  /* rAs(1,:,1,:) ( units: m^2 ) */
(PID.TID 0000.0001)                 7.001466000059072E+08,      /* J =  1 */
(PID.TID 0000.0001)                 6.987153856619213E+08,      /* J =  2 */
(PID.TID 0000.0001)                 6.972708687841871E+08,      /* J =  3 */
(PID.TID 0000.0001)                 6.958130768742002E+08,      /* J =  4 */
(PID.TID 0000.0001)                 6.943420376862097E+08,      /* J =  5 */
(PID.TID 0000.0001)                 6.928577792267066E+08,      /* J =  6 */
(PID.TID 0000.0001)                 6.913603297538249E+08,      /* J =  7 */
(PID.TID 0000.0001)                 6.898497177768300E+08,      /* J =  8 */
(PID.TID 0000.0001)                 6.883259720555978E+08,      /* J =  9 */
(PID.TID 0000.0001)                 6.867891216000748E+08,      /* J = 10 */
(PID.TID 0000.0001)                 6.852391956696484E+08,      /* J = 11 */
(PID.TID 0000.0001)                 6.836762237726952E+08,      /* J = 12 */
(PID.TID 0000.0001)                 6.821002356659416E+08,      /* J = 13 */
(PID.TID 0000.0001)                 6.805112613539243E+08,      /* J = 14 */
(PID.TID 0000.0001)                 6.789093310884190E+08,      /* J = 15 */
(PID.TID 0000.0001)                 6.772944753678811E+08,      /* J = 16 */
(PID.TID 0000.0001)                 6.756667249368460E+08,      /* J = 17 */
(PID.TID 0000.0001)                 6.740261107852997E+08,      /* J = 18 */
(PID.TID 0000.0001)                 6.723726641482074E+08,      /* J = 19 */
(PID.TID 0000.0001)                 6.707064165047766E+08,      /* J = 20 */
(PID.TID 0000.0001)                 6.690273995779943E+08,      /* J = 21 */
(PID.TID 0000.0001)                 6.673356453338909E+08,      /* J = 22 */
(PID.TID 0000.0001)                 6.656311859810680E+08,      /* J = 23 */
(PID.TID 0000.0001)                 6.639140539699314E+08,      /* J = 24 */
(PID.TID 0000.0001)                 6.621842819922103E+08,      /* J = 25 */
(PID.TID 0000.0001)                 6.604419029803079E+08,      /* J = 26 */
(PID.TID 0000.0001)                 6.586869501065553E+08,      /* J = 27 */
(PID.TID 0000.0001)                 6.569194567827585E+08,      /* J = 28 */
(PID.TID 0000.0001)                 6.551394566594321E+08,      /* J = 29 */
(PID.TID 0000.0001)                 6.533469836252099E+08,      /* J = 30 */
(PID.TID 0000.0001)                 6.515420718061962E+08,      /* J = 31 */
(PID.TID 0000.0001)                 6.497247555653362E+08,      /* J = 32 */
(PID.TID 0000.0001)                 6.478950695016699E+08,      /* J = 33 */
(PID.TID 0000.0001)                 6.460530484497808E+08,      /* J = 34 */
(PID.TID 0000.0001)                 6.441987274791679E+08,      /* J = 35 */
(PID.TID 0000.0001)                 6.423321418933210E+08,      /* J = 36 */
(PID.TID 0000.0001)                 6.404533272294264E+08,      /* J = 37 */
(PID.TID 0000.0001)                 6.385623192573639E+08,      /* J = 38 */
(PID.TID 0000.0001)                 6.366591539792355E+08,      /* J = 39 */
(PID.TID 0000.0001)                 6.347438676284809E+08,      /* J = 40 */
(PID.TID 0000.0001)                 6.328164966695231E+08,      /* J = 41 */
(PID.TID 0000.0001)                 6.308770777965897E+08,      /* J = 42 */
(PID.TID 0000.0001)                 6.289256479335159E+08,      /* J = 43 */
(PID.TID 0000.0001)                 6.269622442326831E+08,      /* J = 44 */
(PID.TID 0000.0001)                 6.249869040744686E+08,      /* J = 45 */
(PID.TID 0000.0001)                 6.229996650664990E+08,      /* J = 46 */
(PID.TID 0000.0001)                 6.210005650429022E+08,      /* J = 47 */
(PID.TID 0000.0001)                 6.189896420637782E+08,      /* J = 48 */
(PID.TID 0000.0001)                 6.169669344140574E+08,      /* J = 49 */
(PID.TID 0000.0001)                 6.149324806032661E+08,      /* J = 50 */
(PID.TID 0000.0001)                 6.128863193644445E+08,      /* J = 51 */
(PID.TID 0000.0001)                 6.108284896535771E+08,      /* J = 52 */
(PID.TID 0000.0001)                 6.087590306487472E+08,      /* J = 53 */
(PID.TID 0000.0001)                 6.066779817494689E+08,      /* J = 54 */
(PID.TID 0000.0001)                 6.045853825759399E+08,      /* J = 55 */
(PID.TID 0000.0001)                 6.024812729682158E+08,      /* J = 56 */
(PID.TID 0000.0001)                 6.003656929855031E+08,      /* J = 57 */
(PID.TID 0000.0001)                 5.982386829054112E+08,      /* J = 58 */
(PID.TID 0000.0001)                 5.961002832231477E+08,      /* J = 59 */
(PID.TID 0000.0001)                 5.939505346507312E+08,      /* J = 60 */
(PID.TID 0000.0001)                 5.917894781163037E+08,      /* J = 61 */
(PID.TID 0000.0001)                 5.896171547632853E+08,      /* J = 62 */
(PID.TID 0000.0001)                 5.874336059495094E+08,      /* J = 63 */
(PID.TID 0000.0001)                 5.852388732466724E+08       /* J = 64 */
(PID.TID 0000.0001)     ;
(PID.TID 0000.0001) globalArea = /* Integrated horizontal Area (m^2) */
(PID.TID 0000.0001)                 2.482923135381608E+12
(PID.TID 0000.0001)     ;
(PID.TID 0000.0001) // =======================================================
(PID.TID 0000.0001) // End of Model config. summary
(PID.TID 0000.0001) // =======================================================
(PID.TID 0000.0001) 
(PID.TID 0000.0001) == Packages configuration : Check & print summary ==
(PID.TID 0000.0001) 
(PID.TID 0000.0001) OBCS_CHECK: #define ALLOW_OBCS
(PID.TID 0000.0001) OBCS_CHECK: start summary:
(PID.TID 0000.0001) useOBCSbalance = /* balance the flow through OB */
(PID.TID 0000.0001)                   F
(PID.TID 0000.0001)     ;
(PID.TID 0000.0001) OBCS_uvApplyFac = /* Factor to apply to U,V 2nd column/row */
(PID.TID 0000.0001)                 1.000000000000000E+00
(PID.TID 0000.0001)     ;
(PID.TID 0000.0001) OBCS_monitorFreq = /* monitor output frequency [s] */
(PID.TID 0000.0001)                 3.600000000000000E+03
(PID.TID 0000.0001)     ;
(PID.TID 0000.0001) OBCS_monSelect = /* select group of variables to monitor */
(PID.TID 0000.0001)                       0
(PID.TID 0000.0001)     ;
(PID.TID 0000.0001) ======== Tile bi=   1 , bj=   1 ========
(PID.TID 0000.0001)  OB_Jn = /* Northern OB local indices */
(PID.TID 0000.0001)    68 @       64                            /* I = -1: 66 */
(PID.TID 0000.0001)  OB_Js = /* Southern OB local indices */
(PID.TID 0000.0001)    68 @        1                            /* I = -1: 66 */
(PID.TID 0000.0001)  OB_Ie = /* Eastern OB local indices */
(PID.TID 0000.0001)    68 @       64                            /* J = -1: 66 */
(PID.TID 0000.0001)  OB_Iw = /* Western OB local indices */
(PID.TID 0000.0001)    68 @        1                            /* J = -1: 66 */
(PID.TID 0000.0001) OBCS_CHECK: end summary.
(PID.TID 0000.0001) OBCS_CHECK: set-up OK
(PID.TID 0000.0001) OBCS_CHECK: check Inside Mask and OB locations: OK
(PID.TID 0000.0001) CTRL_CHECK: ctrl package
(PID.TID 0000.0001) COST_CHECK: cost package
(PID.TID 0000.0001) GRDCHK_CHECK: grdchk package
(PID.TID 0000.0001) GAD_CHECK: #define ALLOW_GENERIC_ADVDIFF
(PID.TID 0000.0001) // =======================================================
(PID.TID 0000.0001) // CONFIG_CHECK : Normal End
(PID.TID 0000.0001) // =======================================================
(PID.TID 0000.0001) 
(PID.TID 0000.0001) INI_CG2D: CG2D normalisation factor =  1.8974682031179044E-04
(PID.TID 0000.0001) 
(PID.TID 0000.0001) Start initial hydrostatic pressure computation
(PID.TID 0000.0001) Pressure is predetermined for buoyancyRelation OCEANIC
(PID.TID 0000.0001) 
(PID.TID 0000.0001) // =======================================================
(PID.TID 0000.0001) // Begin MONITOR dynamic field statistics
(PID.TID 0000.0001) // =======================================================
(PID.TID 0000.0001) %MON time_tsnumber                =                     0
(PID.TID 0000.0001) %MON time_secondsf                =   0.0000000000000E+00
(PID.TID 0000.0001) %MON dynstat_eta_max              =   0.0000000000000E+00
(PID.TID 0000.0001) %MON dynstat_eta_min              =   0.0000000000000E+00
(PID.TID 0000.0001) %MON dynstat_eta_mean             =   0.0000000000000E+00
(PID.TID 0000.0001) %MON dynstat_eta_sd               =   0.0000000000000E+00
(PID.TID 0000.0001) %MON dynstat_eta_del2             =   0.0000000000000E+00
(PID.TID 0000.0001) %MON dynstat_uvel_max             =   0.0000000000000E+00
(PID.TID 0000.0001) %MON dynstat_uvel_min             =   0.0000000000000E+00
(PID.TID 0000.0001) %MON dynstat_uvel_mean            =   0.0000000000000E+00
(PID.TID 0000.0001) %MON dynstat_uvel_sd              =   0.0000000000000E+00
(PID.TID 0000.0001) %MON dynstat_uvel_del2            =   0.0000000000000E+00
(PID.TID 0000.0001) %MON dynstat_vvel_max             =   9.9974803626537E-02
(PID.TID 0000.0001) %MON dynstat_vvel_min             =   6.2484252266586E-03
(PID.TID 0000.0001) %MON dynstat_vvel_mean            =   6.8858203200624E-02
(PID.TID 0000.0001) %MON dynstat_vvel_sd              =   2.7917489862880E-02
(PID.TID 0000.0001) %MON dynstat_vvel_del2            =   1.2207391318385E-04
(PID.TID 0000.0001) %MON dynstat_wvel_max             =   1.2635012589087E-02
(PID.TID 0000.0001) %MON dynstat_wvel_min             =  -1.3459910324997E-02
(PID.TID 0000.0001) %MON dynstat_wvel_mean            =   1.4729391862362E-05
(PID.TID 0000.0001) %MON dynstat_wvel_sd              =   1.0457343145219E-03
(PID.TID 0000.0001) %MON dynstat_wvel_del2            =   1.4252956499428E-05
(PID.TID 0000.0001) %MON dynstat_theta_max            =   2.0000000000000E+01
(PID.TID 0000.0001) %MON dynstat_theta_min            =   6.0000000000000E+00
(PID.TID 0000.0001) %MON dynstat_theta_mean           =   1.0999999999999E+01
(PID.TID 0000.0001) %MON dynstat_theta_sd             =   4.4999999999999E+00
(PID.TID 0000.0001) %MON dynstat_theta_del2           =   0.0000000000000E+00
(PID.TID 0000.0001) %MON dynstat_salt_max             =   3.5000000000000E+01
(PID.TID 0000.0001) %MON dynstat_salt_min             =   3.5000000000000E+01
(PID.TID 0000.0001) %MON dynstat_salt_mean            =   3.5000000000000E+01
(PID.TID 0000.0001) %MON dynstat_salt_sd              =   1.3500311979442E-13
(PID.TID 0000.0001) %MON dynstat_salt_del2            =   0.0000000000000E+00
(PID.TID 0000.0001) %MON advcfl_uvel_max              =   0.0000000000000E+00
(PID.TID 0000.0001) %MON advcfl_vvel_max              =   4.3163335425681E-03
(PID.TID 0000.0001) %MON advcfl_wvel_max              =   6.4607569559986E-02
(PID.TID 0000.0001) %MON advcfl_W_hf_max              =   2.8265811682494E-02
(PID.TID 0000.0001) %MON pe_b_mean                    =   0.0000000000000E+00
(PID.TID 0000.0001) %MON ke_max                       =   4.9974727513316E-03
(PID.TID 0000.0001) %MON ke_mean                      =   2.7612282353512E-03
(PID.TID 0000.0001) %MON ke_vol                       =   9.9316925415262E+15
(PID.TID 0000.0001) // =======================================================
(PID.TID 0000.0001) // End MONITOR dynamic field statistics
(PID.TID 0000.0001) // =======================================================
(PID.TID 0000.0001) // =======================================================
(PID.TID 0000.0001) // Begin OBCS MONITOR field statistics
(PID.TID 0000.0001) // =======================================================
(PID.TID 0000.0001) %MON obc_E_uVel_max               =   0.0000000000000E+00
(PID.TID 0000.0001) %MON obc_E_uVel_min               =   0.0000000000000E+00
(PID.TID 0000.0001) %MON obc_E_uVel_mean              =   0.0000000000000E+00
(PID.TID 0000.0001) %MON obc_E_uVel_sd                =   0.0000000000000E+00
(PID.TID 0000.0001) %MON obc_E_uVel_Int               =   0.0000000000000E+00
(PID.TID 0000.0001) %MON obc_W_uVel_max               =   0.0000000000000E+00
(PID.TID 0000.0001) %MON obc_W_uVel_min               =   0.0000000000000E+00
(PID.TID 0000.0001) %MON obc_W_uVel_mean              =   0.0000000000000E+00
(PID.TID 0000.0001) %MON obc_W_uVel_sd                =   0.0000000000000E+00
(PID.TID 0000.0001) %MON obc_W_uVel_Int               =   0.0000000000000E+00
(PID.TID 0000.0001) %MON obc_N_vVel_max               =   9.9974803626537E-02
(PID.TID 0000.0001) %MON obc_N_vVel_min               =   6.2484252266586E-03
(PID.TID 0000.0001) %MON obc_N_vVel_mean              =   6.7724867979245E-02
(PID.TID 0000.0001) %MON obc_N_vVel_sd                =   2.8856486199012E-02
(PID.TID 0000.0001) %MON obc_N_vVel_Int               =   3.5365235086012E+08
(PID.TID 0000.0001) %MON obc_S_vVel_max               =   9.9974803626537E-02
(PID.TID 0000.0001) %MON obc_S_vVel_min               =   6.2484252266586E-03
(PID.TID 0000.0001) %MON obc_S_vVel_mean              =   6.7724867979244E-02
(PID.TID 0000.0001) %MON obc_S_vVel_sd                =   2.8856486199012E-02
(PID.TID 0000.0001) %MON obc_S_vVel_Int               =   4.2222475303229E+08
(PID.TID 0000.0001) // =======================================================
(PID.TID 0000.0001) // End OBCS MONITOR field statistics
(PID.TID 0000.0001) // =======================================================
(PID.TID 0000.0001) SOLVE_FOR_PRESSURE: putPmEinXvector =    F
 cg2d: Sum(rhs),rhsMax =  -7.87435592178023E+00  1.37697984471785E+00
 cg2d: Sum(rhs),rhsMax =  -1.01791081157115E+02  2.13040853307023E-01
 cg2d: Sum(rhs),rhsMax =  -1.59112718349022E+02  2.04436757292323E-01
(PID.TID 0000.0001)                    cg2d_init_res =    1.07341835251458E+01
(PID.TID 0000.0001)                       cg2d_iters =   125
(PID.TID 0000.0001)                         cg2d_res =    8.69273657547366E-09
(PID.TID 0000.0001) // =======================================================
(PID.TID 0000.0001) // Begin MONITOR dynamic field statistics
(PID.TID 0000.0001) // =======================================================
(PID.TID 0000.0001) %MON time_tsnumber                =                     3
(PID.TID 0000.0001) %MON time_secondsf                =   3.6000000000000E+03
(PID.TID 0000.0001) %MON dynstat_eta_max              =   7.8092398553590E-01
(PID.TID 0000.0001) %MON dynstat_eta_min              =  -5.4968965087768E-01
(PID.TID 0000.0001) %MON dynstat_eta_mean             =   9.9423395070580E-02
(PID.TID 0000.0001) %MON dynstat_eta_sd               =   2.9439735896680E-01
(PID.TID 0000.0001) %MON dynstat_eta_del2             =   1.8190879495240E-05
(PID.TID 0000.0001) %MON dynstat_uvel_max             =   4.8537995003132E-02
(PID.TID 0000.0001) %MON dynstat_uvel_min             =  -3.8997873814471E-02
(PID.TID 0000.0001) %MON dynstat_uvel_mean            =   7.8610415895870E-03
(PID.TID 0000.0001) %MON dynstat_uvel_sd              =   1.2961485949301E-02
(PID.TID 0000.0001) %MON dynstat_uvel_del2            =   3.5150503690454E-05
(PID.TID 0000.0001) %MON dynstat_vvel_max             =   9.9974803626537E-02
(PID.TID 0000.0001) %MON dynstat_vvel_min             =   6.2484252266586E-03
(PID.TID 0000.0001) %MON dynstat_vvel_mean            =   7.0253520401635E-02
(PID.TID 0000.0001) %MON dynstat_vvel_sd              =   1.2000187955839E-02
(PID.TID 0000.0001) %MON dynstat_vvel_del2            =   5.6726128973314E-05
(PID.TID 0000.0001) %MON dynstat_wvel_max             =   4.0011921563857E-04
(PID.TID 0000.0001) %MON dynstat_wvel_min             =  -3.2885885525853E-04
(PID.TID 0000.0001) %MON dynstat_wvel_mean            =   1.4729391862361E-05
(PID.TID 0000.0001) %MON dynstat_wvel_sd              =   7.4772613147767E-05
(PID.TID 0000.0001) %MON dynstat_wvel_del2            =   1.8938666481104E-07
(PID.TID 0000.0001) %MON dynstat_theta_max            =   2.0001248819492E+01
(PID.TID 0000.0001) %MON dynstat_theta_min            =   5.9999361694632E+00
(PID.TID 0000.0001) %MON dynstat_theta_mean           =   1.0999776469027E+01
(PID.TID 0000.0001) %MON dynstat_theta_sd             =   4.4997965691584E+00
(PID.TID 0000.0001) %MON dynstat_theta_del2           =   1.9685540248353E-06
(PID.TID 0000.0001) %MON dynstat_salt_max             =   3.5000000000000E+01
(PID.TID 0000.0001) %MON dynstat_salt_min             =   3.5000000000000E+01
(PID.TID 0000.0001) %MON dynstat_salt_mean            =   3.5000000000000E+01
(PID.TID 0000.0001) %MON dynstat_salt_sd              =   1.3500311979442E-13
(PID.TID 0000.0001) %MON dynstat_salt_del2            =   0.0000000000000E+00
(PID.TID 0000.0001) %MON advcfl_uvel_max              =   2.7610341090195E-03
(PID.TID 0000.0001) %MON advcfl_vvel_max              =   4.3163335425681E-03
(PID.TID 0000.0001) %MON advcfl_wvel_max              =   1.9205722350651E-03
(PID.TID 0000.0001) %MON advcfl_W_hf_max              =   8.4492544279701E-04
(PID.TID 0000.0001) %MON pe_b_mean                    =   1.1840034367671E-04
(PID.TID 0000.0001) %MON ke_max                       =   5.0892057267744E-03
(PID.TID 0000.0001) %MON ke_mean                      =   2.6538045909162E-03
(PID.TID 0000.0001) %MON ke_vol                       =   9.9316925415262E+15
(PID.TID 0000.0001) // =======================================================
(PID.TID 0000.0001) // End MONITOR dynamic field statistics
(PID.TID 0000.0001) // =======================================================
(PID.TID 0000.0001) // =======================================================
(PID.TID 0000.0001) // Begin OBCS MONITOR field statistics
(PID.TID 0000.0001) // =======================================================
(PID.TID 0000.0001) %MON obc_E_uVel_max               =   0.0000000000000E+00
(PID.TID 0000.0001) %MON obc_E_uVel_min               =   0.0000000000000E+00
(PID.TID 0000.0001) %MON obc_E_uVel_mean              =   0.0000000000000E+00
(PID.TID 0000.0001) %MON obc_E_uVel_sd                =   0.0000000000000E+00
(PID.TID 0000.0001) %MON obc_E_uVel_Int               =   0.0000000000000E+00
(PID.TID 0000.0001) %MON obc_W_uVel_max               =   0.0000000000000E+00
(PID.TID 0000.0001) %MON obc_W_uVel_min               =   0.0000000000000E+00
(PID.TID 0000.0001) %MON obc_W_uVel_mean              =   0.0000000000000E+00
(PID.TID 0000.0001) %MON obc_W_uVel_sd                =   0.0000000000000E+00
(PID.TID 0000.0001) %MON obc_W_uVel_Int               =   0.0000000000000E+00
(PID.TID 0000.0001) %MON obc_N_vVel_max               =   9.9974803626537E-02
(PID.TID 0000.0001) %MON obc_N_vVel_min               =   6.2484252266586E-03
(PID.TID 0000.0001) %MON obc_N_vVel_mean              =   6.7724867979245E-02
(PID.TID 0000.0001) %MON obc_N_vVel_sd                =   2.8856486199012E-02
(PID.TID 0000.0001) %MON obc_N_vVel_Int               =   3.5365235086012E+08
(PID.TID 0000.0001) %MON obc_S_vVel_max               =   9.9974803626537E-02
(PID.TID 0000.0001) %MON obc_S_vVel_min               =   6.2484252266586E-03
(PID.TID 0000.0001) %MON obc_S_vVel_mean              =   6.7724867979244E-02
(PID.TID 0000.0001) %MON obc_S_vVel_sd                =   2.8856486199012E-02
(PID.TID 0000.0001) %MON obc_S_vVel_Int               =   4.2222475303229E+08
(PID.TID 0000.0001) // =======================================================
(PID.TID 0000.0001) // End OBCS MONITOR field statistics
(PID.TID 0000.0001) // =======================================================
 cg2d: Sum(rhs),rhsMax =  -2.24736325184820E+02  1.92987571287903E-01
 cg2d: Sum(rhs),rhsMax =  -3.00375267870801E+02  1.80488052016573E-01
 cg2d: Sum(rhs),rhsMax =  -3.89218675643549E+02  1.67147622756714E-01
(PID.TID 0000.0001)                    cg2d_init_res =    2.86424533384017E+00
(PID.TID 0000.0001)                       cg2d_iters =   119
(PID.TID 0000.0001)                         cg2d_res =    7.97079331719838E-09
(PID.TID 0000.0001) // =======================================================
(PID.TID 0000.0001) // Begin MONITOR dynamic field statistics
(PID.TID 0000.0001) // =======================================================
(PID.TID 0000.0001) %MON time_tsnumber                =                     6
(PID.TID 0000.0001) %MON time_secondsf                =   7.2000000000000E+03
(PID.TID 0000.0001) %MON dynstat_eta_max              =   8.6522025963039E-01
(PID.TID 0000.0001) %MON dynstat_eta_min              =  -3.9988408198976E-01
(PID.TID 0000.0001) %MON dynstat_eta_mean             =   1.9884679014109E-01
(PID.TID 0000.0001) %MON dynstat_eta_sd               =   3.5524157297686E-01
(PID.TID 0000.0001) %MON dynstat_eta_del2             =   1.0372502353476E-05
(PID.TID 0000.0001) %MON dynstat_uvel_max             =   3.6110300670063E-02
(PID.TID 0000.0001) %MON dynstat_uvel_min             =  -3.8760104046930E-02
(PID.TID 0000.0001) %MON dynstat_uvel_mean            =   3.4986025417049E-04
(PID.TID 0000.0001) %MON dynstat_uvel_sd              =   1.0299602675623E-02
(PID.TID 0000.0001) %MON dynstat_uvel_del2            =   2.9271107625894E-05
(PID.TID 0000.0001) %MON dynstat_vvel_max             =   9.9974803626537E-02
(PID.TID 0000.0001) %MON dynstat_vvel_min             =   6.2484252266586E-03
(PID.TID 0000.0001) %MON dynstat_vvel_mean            =   6.1181978681275E-02
(PID.TID 0000.0001) %MON dynstat_vvel_sd              =   1.1171664520815E-02
(PID.TID 0000.0001) %MON dynstat_vvel_del2            =   4.7609072639333E-05
(PID.TID 0000.0001) %MON dynstat_wvel_max             =   1.2413243088055E-04
(PID.TID 0000.0001) %MON dynstat_wvel_min             =  -7.2708016590190E-05
(PID.TID 0000.0001) %MON dynstat_wvel_mean            =   1.4729391862361E-05
(PID.TID 0000.0001) %MON dynstat_wvel_sd              =   3.0941005629618E-05
(PID.TID 0000.0001) %MON dynstat_wvel_del2            =   6.6424047471809E-08
(PID.TID 0000.0001) %MON dynstat_theta_max            =   2.0000721645317E+01
(PID.TID 0000.0001) %MON dynstat_theta_min            =   5.9999347178727E+00
(PID.TID 0000.0001) %MON dynstat_theta_mean           =   1.0999554286214E+01
(PID.TID 0000.0001) %MON dynstat_theta_sd             =   4.4996151584898E+00
(PID.TID 0000.0001) %MON dynstat_theta_del2           =   2.3362047725323E-06
(PID.TID 0000.0001) %MON dynstat_salt_max             =   3.5000000000000E+01
(PID.TID 0000.0001) %MON dynstat_salt_min             =   3.5000000000000E+01
(PID.TID 0000.0001) %MON dynstat_salt_mean            =   3.5000000000000E+01
(PID.TID 0000.0001) %MON dynstat_salt_sd              =   1.3500311979442E-13
(PID.TID 0000.0001) %MON dynstat_salt_del2            =   0.0000000000000E+00
(PID.TID 0000.0001) %MON advcfl_uvel_max              =   2.1049158513793E-03
(PID.TID 0000.0001) %MON advcfl_vvel_max              =   4.3163335425681E-03
(PID.TID 0000.0001) %MON advcfl_wvel_max              =   5.9583566822663E-04
(PID.TID 0000.0001) %MON advcfl_W_hf_max              =   2.5946219435058E-04
(PID.TID 0000.0001) %MON pe_b_mean                    =   2.0323453164901E-04
(PID.TID 0000.0001) %MON ke_max                       =   4.8432410148298E-03
(PID.TID 0000.0001) %MON ke_mean                      =   1.9755416657888E-03
(PID.TID 0000.0001) %MON ke_vol                       =   9.9316925415262E+15
(PID.TID 0000.0001) // =======================================================
(PID.TID 0000.0001) // End MONITOR dynamic field statistics
(PID.TID 0000.0001) // =======================================================
(PID.TID 0000.0001) // =======================================================
(PID.TID 0000.0001) // Begin OBCS MONITOR field statistics
(PID.TID 0000.0001) // =======================================================
(PID.TID 0000.0001) %MON obc_E_uVel_max               =   0.0000000000000E+00
(PID.TID 0000.0001) %MON obc_E_uVel_min               =   0.0000000000000E+00
(PID.TID 0000.0001) %MON obc_E_uVel_mean              =   0.0000000000000E+00
(PID.TID 0000.0001) %MON obc_E_uVel_sd                =   0.0000000000000E+00
(PID.TID 0000.0001) %MON obc_E_uVel_Int               =   0.0000000000000E+00
(PID.TID 0000.0001) %MON obc_W_uVel_max               =   0.0000000000000E+00
(PID.TID 0000.0001) %MON obc_W_uVel_min               =   0.0000000000000E+00
(PID.TID 0000.0001) %MON obc_W_uVel_mean              =   0.0000000000000E+00
(PID.TID 0000.0001) %MON obc_W_uVel_sd                =   0.0000000000000E+00
(PID.TID 0000.0001) %MON obc_W_uVel_Int               =   0.0000000000000E+00
(PID.TID 0000.0001) %MON obc_N_vVel_max               =   9.9974803626537E-02
(PID.TID 0000.0001) %MON obc_N_vVel_min               =   6.2484252266586E-03
(PID.TID 0000.0001) %MON obc_N_vVel_mean              =   6.7724867979245E-02
(PID.TID 0000.0001) %MON obc_N_vVel_sd                =   2.8856486199012E-02
(PID.TID 0000.0001) %MON obc_N_vVel_Int               =   3.5365235086012E+08
(PID.TID 0000.0001) %MON obc_S_vVel_max               =   9.9974803626537E-02
(PID.TID 0000.0001) %MON obc_S_vVel_min               =   6.2484252266586E-03
(PID.TID 0000.0001) %MON obc_S_vVel_mean              =   6.7724867979244E-02
(PID.TID 0000.0001) %MON obc_S_vVel_sd                =   2.8856486199012E-02
(PID.TID 0000.0001) %MON obc_S_vVel_Int               =   4.2222475303229E+08
(PID.TID 0000.0001) // =======================================================
(PID.TID 0000.0001) // End OBCS MONITOR field statistics
(PID.TID 0000.0001) // =======================================================
 cg2d: Sum(rhs),rhsMax =  -4.84325145800424E+02  1.56712502786302E-01
 cg2d: Sum(rhs),rhsMax =  -5.75418766030877E+02  1.50746969469704E-01
 cg2d: Sum(rhs),rhsMax =  -6.63027529170545E+02  1.47181618041863E-01
(PID.TID 0000.0001)                    cg2d_init_res =    2.79355069062467E+00
(PID.TID 0000.0001)                       cg2d_iters =   116
(PID.TID 0000.0001)                         cg2d_res =    7.53232856294344E-09
(PID.TID 0000.0001) // =======================================================
(PID.TID 0000.0001) // Begin MONITOR dynamic field statistics
(PID.TID 0000.0001) // =======================================================
(PID.TID 0000.0001) %MON time_tsnumber                =                     9
(PID.TID 0000.0001) %MON time_secondsf                =   1.0800000000000E+04
(PID.TID 0000.0001) %MON dynstat_eta_max              =   7.6982577939757E-01
(PID.TID 0000.0001) %MON dynstat_eta_min              =  -2.0001886429128E-01
(PID.TID 0000.0001) %MON dynstat_eta_mean             =   2.9827018521229E-01
(PID.TID 0000.0001) %MON dynstat_eta_sd               =   2.4540357959706E-01
(PID.TID 0000.0001) %MON dynstat_eta_del2             =   6.8312875458174E-06
(PID.TID 0000.0001) %MON dynstat_uvel_max             =   3.3704627326828E-02
(PID.TID 0000.0001) %MON dynstat_uvel_min             =  -4.1424930554892E-02
(PID.TID 0000.0001) %MON dynstat_uvel_mean            =  -4.0404662569319E-03
(PID.TID 0000.0001) %MON dynstat_uvel_sd              =   1.0383298698270E-02
(PID.TID 0000.0001) %MON dynstat_uvel_del2            =   2.8128483064246E-05
(PID.TID 0000.0001) %MON dynstat_vvel_max             =   9.9974803626537E-02
(PID.TID 0000.0001) %MON dynstat_vvel_min             =   6.2484252266586E-03
(PID.TID 0000.0001) %MON dynstat_vvel_mean            =   6.4224230101296E-02
(PID.TID 0000.0001) %MON dynstat_vvel_sd              =   1.1248147923049E-02
(PID.TID 0000.0001) %MON dynstat_vvel_del2            =   4.7731193521929E-05
(PID.TID 0000.0001) %MON dynstat_wvel_max             =   1.1207387690971E-04
(PID.TID 0000.0001) %MON dynstat_wvel_min             =  -6.1554711751474E-05
(PID.TID 0000.0001) %MON dynstat_wvel_mean            =   1.4729391862361E-05
(PID.TID 0000.0001) %MON dynstat_wvel_sd              =   2.8707681241367E-05
(PID.TID 0000.0001) %MON dynstat_wvel_del2            =   5.4723770692690E-08
(PID.TID 0000.0001) %MON dynstat_theta_max            =   2.0000269234554E+01
(PID.TID 0000.0001) %MON dynstat_theta_min            =   5.9999415385726E+00
(PID.TID 0000.0001) %MON dynstat_theta_mean           =   1.0999333311610E+01
(PID.TID 0000.0001) %MON dynstat_theta_sd             =   4.4994367384322E+00
(PID.TID 0000.0001) %MON dynstat_theta_del2           =   1.8568507984410E-06
(PID.TID 0000.0001) %MON dynstat_salt_max             =   3.5000000000000E+01
(PID.TID 0000.0001) %MON dynstat_salt_min             =   3.5000000000000E+01
(PID.TID 0000.0001) %MON dynstat_salt_mean            =   3.5000000000000E+01
(PID.TID 0000.0001) %MON dynstat_salt_sd              =   1.3500311979442E-13
(PID.TID 0000.0001) %MON dynstat_salt_del2            =   0.0000000000000E+00
(PID.TID 0000.0001) %MON advcfl_uvel_max              =   2.0824885548800E-03
(PID.TID 0000.0001) %MON advcfl_vvel_max              =   4.3163335425681E-03
(PID.TID 0000.0001) %MON advcfl_wvel_max              =   5.3795460916660E-04
(PID.TID 0000.0001) %MON advcfl_W_hf_max              =   2.3630094299581E-04
(PID.TID 0000.0001) %MON pe_b_mean                    =   1.8294180985073E-04
(PID.TID 0000.0001) %MON ke_max                       =   4.9573650396506E-03
(PID.TID 0000.0001) %MON ke_mean                      =   2.1793407082877E-03
(PID.TID 0000.0001) %MON ke_vol                       =   9.9316925415262E+15
(PID.TID 0000.0001) // =======================================================
(PID.TID 0000.0001) // End MONITOR dynamic field statistics
(PID.TID 0000.0001) // =======================================================
(PID.TID 0000.0001) // =======================================================
(PID.TID 0000.0001) // Begin OBCS MONITOR field statistics
(PID.TID 0000.0001) // =======================================================
(PID.TID 0000.0001) %MON obc_E_uVel_max               =   0.0000000000000E+00
(PID.TID 0000.0001) %MON obc_E_uVel_min               =   0.0000000000000E+00
(PID.TID 0000.0001) %MON obc_E_uVel_mean              =   0.0000000000000E+00
(PID.TID 0000.0001) %MON obc_E_uVel_sd                =   0.0000000000000E+00
(PID.TID 0000.0001) %MON obc_E_uVel_Int               =   0.0000000000000E+00
(PID.TID 0000.0001) %MON obc_W_uVel_max               =   0.0000000000000E+00
(PID.TID 0000.0001) %MON obc_W_uVel_min               =   0.0000000000000E+00
(PID.TID 0000.0001) %MON obc_W_uVel_mean              =   0.0000000000000E+00
(PID.TID 0000.0001) %MON obc_W_uVel_sd                =   0.0000000000000E+00
(PID.TID 0000.0001) %MON obc_W_uVel_Int               =   0.0000000000000E+00
(PID.TID 0000.0001) %MON obc_N_vVel_max               =   9.9974803626537E-02
(PID.TID 0000.0001) %MON obc_N_vVel_min               =   6.2484252266586E-03
(PID.TID 0000.0001) %MON obc_N_vVel_mean              =   6.7724867979245E-02
(PID.TID 0000.0001) %MON obc_N_vVel_sd                =   2.8856486199012E-02
(PID.TID 0000.0001) %MON obc_N_vVel_Int               =   3.5365235086012E+08
(PID.TID 0000.0001) %MON obc_S_vVel_max               =   9.9974803626537E-02
(PID.TID 0000.0001) %MON obc_S_vVel_min               =   6.2484252266586E-03
(PID.TID 0000.0001) %MON obc_S_vVel_mean              =   6.7724867979244E-02
(PID.TID 0000.0001) %MON obc_S_vVel_sd                =   2.8856486199012E-02
(PID.TID 0000.0001) %MON obc_S_vVel_Int               =   4.2222475303229E+08
(PID.TID 0000.0001) // =======================================================
(PID.TID 0000.0001) // End OBCS MONITOR field statistics
(PID.TID 0000.0001) // =======================================================
 cg2d: Sum(rhs),rhsMax =  -7.39254264407638E+02  1.46672530906494E-01
 cg2d: Sum(rhs),rhsMax =  -7.95969983624967E+02  1.49843745105870E-01
 cg2d: Sum(rhs),rhsMax =  -8.35051515609289E+02  1.55815480004017E-01
(PID.TID 0000.0001)                    cg2d_init_res =    1.36575052311673E+00
(PID.TID 0000.0001)                       cg2d_iters =   114
(PID.TID 0000.0001)                         cg2d_res =    9.69671287247037E-09
(PID.TID 0000.0001) // =======================================================
(PID.TID 0000.0001) // Begin MONITOR dynamic field statistics
(PID.TID 0000.0001) // =======================================================
(PID.TID 0000.0001) %MON time_tsnumber                =                    12
(PID.TID 0000.0001) %MON time_secondsf                =   1.4400000000000E+04
(PID.TID 0000.0001) %MON dynstat_eta_max              =   7.3357293582285E-01
(PID.TID 0000.0001) %MON dynstat_eta_min              =  -3.5583273709309E-02
(PID.TID 0000.0001) %MON dynstat_eta_mean             =   3.9769358028250E-01
(PID.TID 0000.0001) %MON dynstat_eta_sd               =   1.8327762313522E-01
(PID.TID 0000.0001) %MON dynstat_eta_del2             =   5.2922633327829E-06
(PID.TID 0000.0001) %MON dynstat_uvel_max             =   3.6413951631773E-02
(PID.TID 0000.0001) %MON dynstat_uvel_min             =  -3.7592337640652E-02
(PID.TID 0000.0001) %MON dynstat_uvel_mean            =  -3.4667007313309E-04
(PID.TID 0000.0001) %MON dynstat_uvel_sd              =   1.0137044093945E-02
(PID.TID 0000.0001) %MON dynstat_uvel_del2            =   2.6474461078678E-05
(PID.TID 0000.0001) %MON dynstat_vvel_max             =   9.9974803626537E-02
(PID.TID 0000.0001) %MON dynstat_vvel_min             =   6.2484252266586E-03
(PID.TID 0000.0001) %MON dynstat_vvel_mean            =   6.8934243441442E-02
(PID.TID 0000.0001) %MON dynstat_vvel_sd              =   1.1495716305721E-02
(PID.TID 0000.0001) %MON dynstat_vvel_del2            =   4.9972568961549E-05
(PID.TID 0000.0001) %MON dynstat_wvel_max             =   5.3045511613110E-05
(PID.TID 0000.0001) %MON dynstat_wvel_min             =  -3.4821351934791E-06
(PID.TID 0000.0001) %MON dynstat_wvel_mean            =   1.4729391862361E-05
(PID.TID 0000.0001) %MON dynstat_wvel_sd              =   1.2076528623766E-05
(PID.TID 0000.0001) %MON dynstat_wvel_del2            =   3.1454185537368E-08
(PID.TID 0000.0001) %MON dynstat_theta_max            =   1.9999692017298E+01
(PID.TID 0000.0001) %MON dynstat_theta_min            =   5.9999459079439E+00
(PID.TID 0000.0001) %MON dynstat_theta_mean           =   1.0999113396306E+01
(PID.TID 0000.0001) %MON dynstat_theta_sd             =   4.4992646277092E+00
(PID.TID 0000.0001) %MON dynstat_theta_del2           =   1.9009165154462E-06
(PID.TID 0000.0001) %MON dynstat_salt_max             =   3.5000000000000E+01
(PID.TID 0000.0001) %MON dynstat_salt_min             =   3.5000000000000E+01
(PID.TID 0000.0001) %MON dynstat_salt_mean            =   3.5000000000000E+01
(PID.TID 0000.0001) %MON dynstat_salt_sd              =   1.3500311979442E-13
(PID.TID 0000.0001) %MON dynstat_salt_del2            =   0.0000000000000E+00
(PID.TID 0000.0001) %MON advcfl_uvel_max              =   2.0713703253096E-03
(PID.TID 0000.0001) %MON advcfl_vvel_max              =   4.3163335425681E-03
(PID.TID 0000.0001) %MON advcfl_wvel_max              =   2.5461845574293E-04
(PID.TID 0000.0001) %MON advcfl_W_hf_max              =   1.1704752280584E-04
(PID.TID 0000.0001) %MON pe_b_mean                    =   2.3513450549020E-04
(PID.TID 0000.0001) %MON ke_max                       =   4.9235702520385E-03
(PID.TID 0000.0001) %MON ke_mean                      =   2.4900161106192E-03
(PID.TID 0000.0001) %MON ke_vol                       =   9.9316925415262E+15
(PID.TID 0000.0001) // =======================================================
(PID.TID 0000.0001) // End MONITOR dynamic field statistics
(PID.TID 0000.0001) // =======================================================
(PID.TID 0000.0001) // =======================================================
(PID.TID 0000.0001) // Begin OBCS MONITOR field statistics
(PID.TID 0000.0001) // =======================================================
(PID.TID 0000.0001) %MON obc_E_uVel_max               =   0.0000000000000E+00
(PID.TID 0000.0001) %MON obc_E_uVel_min               =   0.0000000000000E+00
(PID.TID 0000.0001) %MON obc_E_uVel_mean              =   0.0000000000000E+00
(PID.TID 0000.0001) %MON obc_E_uVel_sd                =   0.0000000000000E+00
(PID.TID 0000.0001) %MON obc_E_uVel_Int               =   0.0000000000000E+00
(PID.TID 0000.0001) %MON obc_W_uVel_max               =   0.0000000000000E+00
(PID.TID 0000.0001) %MON obc_W_uVel_min               =   0.0000000000000E+00
(PID.TID 0000.0001) %MON obc_W_uVel_mean              =   0.0000000000000E+00
(PID.TID 0000.0001) %MON obc_W_uVel_sd                =   0.0000000000000E+00
(PID.TID 0000.0001) %MON obc_W_uVel_Int               =   0.0000000000000E+00
(PID.TID 0000.0001) %MON obc_N_vVel_max               =   9.9974803626537E-02
(PID.TID 0000.0001) %MON obc_N_vVel_min               =   6.2484252266586E-03
(PID.TID 0000.0001) %MON obc_N_vVel_mean              =   6.7724867979245E-02
(PID.TID 0000.0001) %MON obc_N_vVel_sd                =   2.8856486199012E-02
(PID.TID 0000.0001) %MON obc_N_vVel_Int               =   3.5365235086012E+08
(PID.TID 0000.0001) %MON obc_S_vVel_max               =   9.9974803626537E-02
(PID.TID 0000.0001) %MON obc_S_vVel_min               =   6.2484252266586E-03
(PID.TID 0000.0001) %MON obc_S_vVel_mean              =   6.7724867979244E-02
(PID.TID 0000.0001) %MON obc_S_vVel_sd                =   2.8856486199012E-02
(PID.TID 0000.0001) %MON obc_S_vVel_Int               =   4.2222475303229E+08
(PID.TID 0000.0001) // =======================================================
(PID.TID 0000.0001) // End OBCS MONITOR field statistics
(PID.TID 0000.0001) // =======================================================
 cg2d: Sum(rhs),rhsMax =  -8.63534784064898E+02  1.63232315279304E-01
 cg2d: Sum(rhs),rhsMax =  -8.90030916015036E+02  1.70555436659641E-01
 cg2d: Sum(rhs),rhsMax =  -9.21204164211895E+02  1.76554174670969E-01
(PID.TID 0000.0001)                    cg2d_init_res =    1.55059895512280E+00
(PID.TID 0000.0001)                       cg2d_iters =   111
(PID.TID 0000.0001)                         cg2d_res =    9.05596918929618E-09
(PID.TID 0000.0001) // =======================================================
(PID.TID 0000.0001) // Begin MONITOR dynamic field statistics
(PID.TID 0000.0001) // =======================================================
(PID.TID 0000.0001) %MON time_tsnumber                =                    15
(PID.TID 0000.0001) %MON time_secondsf                =   1.8000000000000E+04
(PID.TID 0000.0001) %MON dynstat_eta_max              =   9.1374679443955E-01
(PID.TID 0000.0001) %MON dynstat_eta_min              =   8.2160064396051E-02
(PID.TID 0000.0001) %MON dynstat_eta_mean             =   4.9711697535326E-01
(PID.TID 0000.0001) %MON dynstat_eta_sd               =   2.3309367855327E-01
(PID.TID 0000.0001) %MON dynstat_eta_del2             =   5.3242680706560E-06
(PID.TID 0000.0001) %MON dynstat_uvel_max             =   3.7555351288410E-02
(PID.TID 0000.0001) %MON dynstat_uvel_min             =  -3.5262380138800E-02
(PID.TID 0000.0001) %MON dynstat_uvel_mean            =   2.0609452970070E-03
(PID.TID 0000.0001) %MON dynstat_uvel_sd              =   1.0148895197744E-02
(PID.TID 0000.0001) %MON dynstat_uvel_del2            =   2.5583261173347E-05
(PID.TID 0000.0001) %MON dynstat_vvel_max             =   9.9974803626537E-02
(PID.TID 0000.0001) %MON dynstat_vvel_min             =   6.2484252266586E-03
(PID.TID 0000.0001) %MON dynstat_vvel_mean            =   6.9193403353288E-02
(PID.TID 0000.0001) %MON dynstat_vvel_sd              =   1.1829519798624E-02
(PID.TID 0000.0001) %MON dynstat_vvel_del2            =   4.8543877274922E-05
(PID.TID 0000.0001) %MON dynstat_wvel_max             =   7.7950426648372E-05
(PID.TID 0000.0001) %MON dynstat_wvel_min             =  -3.0935126555918E-05
(PID.TID 0000.0001) %MON dynstat_wvel_mean            =   1.4729391862361E-05
(PID.TID 0000.0001) %MON dynstat_wvel_sd              =   1.7977201767788E-05
(PID.TID 0000.0001) %MON dynstat_wvel_del2            =   4.1788648692305E-08
(PID.TID 0000.0001) %MON dynstat_theta_max            =   1.9999296052916E+01
(PID.TID 0000.0001) %MON dynstat_theta_min            =   5.9999349670193E+00
(PID.TID 0000.0001) %MON dynstat_theta_mean           =   1.0998894581477E+01
(PID.TID 0000.0001) %MON dynstat_theta_sd             =   4.4990930633675E+00
(PID.TID 0000.0001) %MON dynstat_theta_del2           =   2.3807552323272E-06
(PID.TID 0000.0001) %MON dynstat_salt_max             =   3.5000000000000E+01
(PID.TID 0000.0001) %MON dynstat_salt_min             =   3.5000000000000E+01
(PID.TID 0000.0001) %MON dynstat_salt_mean            =   3.5000000000000E+01
(PID.TID 0000.0001) %MON dynstat_salt_sd              =   1.3500311979442E-13
(PID.TID 0000.0001) %MON dynstat_salt_del2            =   0.0000000000000E+00
(PID.TID 0000.0001) %MON advcfl_uvel_max              =   2.1362976751887E-03
(PID.TID 0000.0001) %MON advcfl_vvel_max              =   4.3163335425681E-03
(PID.TID 0000.0001) %MON advcfl_wvel_max              =   3.7416204791219E-04
(PID.TID 0000.0001) %MON advcfl_W_hf_max              =   1.7074173811018E-04
(PID.TID 0000.0001) %MON pe_b_mean                    =   3.6966281139091E-04
(PID.TID 0000.0001) %MON ke_max                       =   4.9052863674512E-03
(PID.TID 0000.0001) %MON ke_mean                      =   2.5143760927037E-03
(PID.TID 0000.0001) %MON ke_vol                       =   9.9316925415262E+15
(PID.TID 0000.0001) // =======================================================
(PID.TID 0000.0001) // End MONITOR dynamic field statistics
(PID.TID 0000.0001) // =======================================================
(PID.TID 0000.0001) // =======================================================
(PID.TID 0000.0001) // Begin OBCS MONITOR field statistics
(PID.TID 0000.0001) // =======================================================
(PID.TID 0000.0001) %MON obc_E_uVel_max               =   0.0000000000000E+00
(PID.TID 0000.0001) %MON obc_E_uVel_min               =   0.0000000000000E+00
(PID.TID 0000.0001) %MON obc_E_uVel_mean              =   0.0000000000000E+00
(PID.TID 0000.0001) %MON obc_E_uVel_sd                =   0.0000000000000E+00
(PID.TID 0000.0001) %MON obc_E_uVel_Int               =   0.0000000000000E+00
(PID.TID 0000.0001) %MON obc_W_uVel_max               =   0.0000000000000E+00
(PID.TID 0000.0001) %MON obc_W_uVel_min               =   0.0000000000000E+00
(PID.TID 0000.0001) %MON obc_W_uVel_mean              =   0.0000000000000E+00
(PID.TID 0000.0001) %MON obc_W_uVel_sd                =   0.0000000000000E+00
(PID.TID 0000.0001) %MON obc_W_uVel_Int               =   0.0000000000000E+00
(PID.TID 0000.0001) %MON obc_N_vVel_max               =   9.9974803626537E-02
(PID.TID 0000.0001) %MON obc_N_vVel_min               =   6.2484252266586E-03
(PID.TID 0000.0001) %MON obc_N_vVel_mean              =   6.7724867979245E-02
(PID.TID 0000.0001) %MON obc_N_vVel_sd                =   2.8856486199012E-02
(PID.TID 0000.0001) %MON obc_N_vVel_Int               =   3.5365235086012E+08
(PID.TID 0000.0001) %MON obc_S_vVel_max               =   9.9974803626537E-02
(PID.TID 0000.0001) %MON obc_S_vVel_min               =   6.2484252266586E-03
(PID.TID 0000.0001) %MON obc_S_vVel_mean              =   6.7724867979244E-02
(PID.TID 0000.0001) %MON obc_S_vVel_sd                =   2.8856486199012E-02
(PID.TID 0000.0001) %MON obc_S_vVel_Int               =   4.2222475303229E+08
(PID.TID 0000.0001) // =======================================================
(PID.TID 0000.0001) // End OBCS MONITOR field statistics
(PID.TID 0000.0001) // =======================================================
 cg2d: Sum(rhs),rhsMax =  -9.60661826132093E+02  1.80589324558517E-01
 cg2d: Sum(rhs),rhsMax =  -1.01000606352352E+03  1.82501973366042E-01
 cg2d: Sum(rhs),rhsMax =  -1.06918980200272E+03  1.82540956464235E-01
(PID.TID 0000.0001)                    cg2d_init_res =    9.93564115063953E-01
(PID.TID 0000.0001)                       cg2d_iters =   111
(PID.TID 0000.0001)                         cg2d_res =    9.42435497565216E-09
(PID.TID 0000.0001) // =======================================================
(PID.TID 0000.0001) // Begin MONITOR dynamic field statistics
(PID.TID 0000.0001) // =======================================================
(PID.TID 0000.0001) %MON time_tsnumber                =                    18
(PID.TID 0000.0001) %MON time_secondsf                =   2.1600000000000E+04
(PID.TID 0000.0001) %MON dynstat_eta_max              =   1.0807440187309E+00
(PID.TID 0000.0001) %MON dynstat_eta_min              =   1.2601019065212E-01
(PID.TID 0000.0001) %MON dynstat_eta_mean             =   5.9654037042428E-01
(PID.TID 0000.0001) %MON dynstat_eta_sd               =   2.7395963855660E-01
(PID.TID 0000.0001) %MON dynstat_eta_del2             =   6.5220909018038E-06
(PID.TID 0000.0001) %MON dynstat_uvel_max             =   3.5640279646982E-02
(PID.TID 0000.0001) %MON dynstat_uvel_min             =  -3.7988276251581E-02
(PID.TID 0000.0001) %MON dynstat_uvel_mean            =   2.3041612350399E-04
(PID.TID 0000.0001) %MON dynstat_uvel_sd              =   1.0260438646062E-02
(PID.TID 0000.0001) %MON dynstat_uvel_del2            =   2.4843853621820E-05
(PID.TID 0000.0001) %MON dynstat_vvel_max             =   9.9974803626537E-02
(PID.TID 0000.0001) %MON dynstat_vvel_min             =   6.2484252266586E-03
(PID.TID 0000.0001) %MON dynstat_vvel_mean            =   6.7161866878912E-02
(PID.TID 0000.0001) %MON dynstat_vvel_sd              =   1.2044512183985E-02
(PID.TID 0000.0001) %MON dynstat_vvel_del2            =   4.4602423693856E-05
(PID.TID 0000.0001) %MON dynstat_wvel_max             =   3.7986301505139E-05
(PID.TID 0000.0001) %MON dynstat_wvel_min             =   1.7605133788532E-06
(PID.TID 0000.0001) %MON dynstat_wvel_mean            =   1.4729391862361E-05
(PID.TID 0000.0001) %MON dynstat_wvel_sd              =   7.9452393886382E-06
(PID.TID 0000.0001) %MON dynstat_wvel_del2            =   2.7983157966823E-08
(PID.TID 0000.0001) %MON dynstat_theta_max            =   1.9999046608192E+01
(PID.TID 0000.0001) %MON dynstat_theta_min            =   5.9999233570039E+00
(PID.TID 0000.0001) %MON dynstat_theta_mean           =   1.0998676834217E+01
(PID.TID 0000.0001) %MON dynstat_theta_sd             =   4.4989231654114E+00
(PID.TID 0000.0001) %MON dynstat_theta_del2           =   2.8040602604185E-06
(PID.TID 0000.0001) %MON dynstat_salt_max             =   3.5000000000000E+01
(PID.TID 0000.0001) %MON dynstat_salt_min             =   3.5000000000000E+01
(PID.TID 0000.0001) %MON dynstat_salt_mean            =   3.5000000000000E+01
(PID.TID 0000.0001) %MON dynstat_salt_sd              =   1.3500311979442E-13
(PID.TID 0000.0001) %MON dynstat_salt_del2            =   0.0000000000000E+00
(PID.TID 0000.0001) %MON advcfl_uvel_max              =   2.0273607872340E-03
(PID.TID 0000.0001) %MON advcfl_vvel_max              =   4.3163335425681E-03
(PID.TID 0000.0001) %MON advcfl_wvel_max              =   1.8233424722467E-04
(PID.TID 0000.0001) %MON advcfl_W_hf_max              =   8.6500232428160E-05
(PID.TID 0000.0001) %MON pe_b_mean                    =   5.2840865682380E-04
(PID.TID 0000.0001) %MON ke_max                       =   4.9477627278284E-03
(PID.TID 0000.0001) %MON ke_mean                      =   2.3752837415452E-03
(PID.TID 0000.0001) %MON ke_vol                       =   9.9316925415262E+15
(PID.TID 0000.0001) // =======================================================
(PID.TID 0000.0001) // End MONITOR dynamic field statistics
(PID.TID 0000.0001) // =======================================================
(PID.TID 0000.0001) // =======================================================
(PID.TID 0000.0001) // Begin OBCS MONITOR field statistics
(PID.TID 0000.0001) // =======================================================
(PID.TID 0000.0001) %MON obc_E_uVel_max               =   0.0000000000000E+00
(PID.TID 0000.0001) %MON obc_E_uVel_min               =   0.0000000000000E+00
(PID.TID 0000.0001) %MON obc_E_uVel_mean              =   0.0000000000000E+00
(PID.TID 0000.0001) %MON obc_E_uVel_sd                =   0.0000000000000E+00
(PID.TID 0000.0001) %MON obc_E_uVel_Int               =   0.0000000000000E+00
(PID.TID 0000.0001) %MON obc_W_uVel_max               =   0.0000000000000E+00
(PID.TID 0000.0001) %MON obc_W_uVel_min               =   0.0000000000000E+00
(PID.TID 0000.0001) %MON obc_W_uVel_mean              =   0.0000000000000E+00
(PID.TID 0000.0001) %MON obc_W_uVel_sd                =   0.0000000000000E+00
(PID.TID 0000.0001) %MON obc_W_uVel_Int               =   0.0000000000000E+00
(PID.TID 0000.0001) %MON obc_N_vVel_max               =   9.9974803626537E-02
(PID.TID 0000.0001) %MON obc_N_vVel_min               =   6.2484252266586E-03
(PID.TID 0000.0001) %MON obc_N_vVel_mean              =   6.7724867979245E-02
(PID.TID 0000.0001) %MON obc_N_vVel_sd                =   2.8856486199012E-02
(PID.TID 0000.0001) %MON obc_N_vVel_Int               =   3.5365235086012E+08
(PID.TID 0000.0001) %MON obc_S_vVel_max               =   9.9974803626537E-02
(PID.TID 0000.0001) %MON obc_S_vVel_min               =   6.2484252266586E-03
(PID.TID 0000.0001) %MON obc_S_vVel_mean              =   6.7724867979244E-02
(PID.TID 0000.0001) %MON obc_S_vVel_sd                =   2.8856486199012E-02
(PID.TID 0000.0001) %MON obc_S_vVel_Int               =   4.2222475303229E+08
(PID.TID 0000.0001) // =======================================================
(PID.TID 0000.0001) // End OBCS MONITOR field statistics
(PID.TID 0000.0001) // =======================================================
(PID.TID 0000.0001) ph-cost call cost_theta0
(PID.TID 0000.0001) ph-cost call cost_theta
 --> f_temp    = 0.415498879245523D+01
 --> f_salt    = 0.000000000000000D+00
 --> f_temp0   = 0.000000000000000D+00
 --> f_salt0   = 0.000000000000000D+00
 --> f_temp0smoo = 0.000000000000000D+00
 --> f_salt0smoo = 0.000000000000000D+00
 --> f_etan0   = 0.000000000000000D+00
 --> f_uvel0   = 0.000000000000000D+00
 --> f_vvel0   = 0.000000000000000D+00
 --> f_sst     = 0.000000000000000D+00
 --> f_tmi     = 0.000000000000000D+00
 --> f_sss     = 0.000000000000000D+00
 --> f_bp      = 0.000000000000000D+00
 --> f_ssh       = 0.000000000000000D+00
 --> f_tp        = 0.000000000000000D+00
 --> f_ers       = 0.000000000000000D+00
 --> f_gfo       = 0.000000000000000D+00
 --> f_tauu    = 0.000000000000000D+00
 --> f_tauum   = 0.000000000000000D+00
 --> f_tauusmoo = 0.000000000000000D+00
 --> f_tauv    = 0.000000000000000D+00
 --> f_tauvm   = 0.000000000000000D+00
 --> f_tauvsmoo = 0.000000000000000D+00
 --> f_hflux   = 0.000000000000000D+00
 --> f_hfluxmm = 0.000000000000000D+00
 --> f_hfluxsmoo = 0.000000000000000D+00
 --> f_sflux   = 0.000000000000000D+00
 --> f_sfluxmm = 0.000000000000000D+00
 --> f_sfluxsmoo = 0.000000000000000D+00
 --> f_uwind     = 0.000000000000000D+00
 --> f_vwind     = 0.000000000000000D+00
 --> f_atemp     = 0.000000000000000D+00
 --> f_aqh     = 0.000000000000000D+00
 --> f_precip  = 0.000000000000000D+00
 --> f_swflux  = 0.000000000000000D+00
 --> f_swdown  = 0.000000000000000D+00
 --> f_uwindm     = 0.000000000000000D+00
 --> f_vwindm     = 0.000000000000000D+00
 --> f_atempm     = 0.000000000000000D+00
 --> f_aqhm     = 0.000000000000000D+00
 --> f_precipm  = 0.000000000000000D+00
 --> f_swfluxm  = 0.000000000000000D+00
 --> f_swdownm  = 0.000000000000000D+00
 --> f_uwindsmoo     = 0.000000000000000D+00
 --> f_vwindsmoo     = 0.000000000000000D+00
 --> f_atempsmoo     = 0.000000000000000D+00
 --> f_aqhsmoo     = 0.000000000000000D+00
 --> f_precipsmoo  = 0.000000000000000D+00
 --> f_swfluxsmoo  = 0.000000000000000D+00
 --> f_swdownsmoo  = 0.000000000000000D+00
 --> f_atl     = 0.000000000000000D+00
 --> f_ctdt    = 0.000000000000000D+00
 --> f_ctds    = 0.000000000000000D+00
 --> f_ctdtclim= 0.000000000000000D+00
 --> f_ctdsclim= 0.000000000000000D+00
 --> f_xbt     = 0.000000000000000D+00
 --> f_argot   = 0.000000000000000D+00
 --> f_argos   = 0.000000000000000D+00
 --> f_drifter   = 0.000000000000000D+00
 --> f_tdrift  = 0.000000000000000D+00
 --> f_sdrift  = 0.000000000000000D+00
 --> f_wdrift  = 0.000000000000000D+00
 --> f_scatx   = 0.000000000000000D+00
 --> f_scaty   = 0.000000000000000D+00
 --> f_scatxm  = 0.000000000000000D+00
 --> f_scatym  = 0.000000000000000D+00
 --> f_obcsn   = 0.000000000000000D+00
 --> f_obcss   = 0.000000000000000D+00
 --> f_obcsw   = 0.000000000000000D+00
 --> f_obcse   = 0.000000000000000D+00
 --> f_ageos   = 0.000000000000000D+00
 --> f_curmtr  = 0.000000000000000D+00
 --> f_kapgm   = 0.000000000000000D+00
 --> f_kapredi   = 0.000000000000000D+00
 --> f_diffkr  = 0.000000000000000D+00
 --> f_eddytau = 0.000000000000000D+00
 --> f_bottomdrag = 0.000000000000000D+00
 --> f_hfluxmm2           = 0.000000000000000D+00
 --> f_sfluxmm2           = 0.000000000000000D+00
 --> f_transp             = 0.000000000000000D+00
 --> objf_hmean           = 0.000000000000000D+00
 --> fc               = 0.415498879245523D+01
(PID.TID 0000.0001) SOLVE_FOR_PRESSURE: putPmEinXvector =    F
 cg2d: Sum(rhs),rhsMax =  -7.87435592178023E+00  1.37697984471785E+00
 cg2d: Sum(rhs),rhsMax =  -1.01791081157115E+02  2.13040853307023E-01
 cg2d: Sum(rhs),rhsMax =  -1.59112718349022E+02  2.04436757292323E-01
 cg2d: Sum(rhs),rhsMax =  -2.24736325184820E+02  1.92987571287903E-01
 cg2d: Sum(rhs),rhsMax =  -3.00375267870801E+02  1.80488052016573E-01
 cg2d: Sum(rhs),rhsMax =  -3.89218675643549E+02  1.67147622756714E-01
 cg2d: Sum(rhs),rhsMax =  -4.84325145800424E+02  1.56712502786302E-01
 cg2d: Sum(rhs),rhsMax =  -5.75418766030877E+02  1.50746969469704E-01
 cg2d: Sum(rhs),rhsMax =  -6.63027529170545E+02  1.47181618041863E-01
 cg2d: Sum(rhs),rhsMax =  -7.39254264407638E+02  1.46672530906494E-01
 cg2d: Sum(rhs),rhsMax =  -7.95969983624967E+02  1.49843745105870E-01
 cg2d: Sum(rhs),rhsMax =  -8.35051515609289E+02  1.55815480004017E-01
 cg2d: Sum(rhs),rhsMax =  -8.63534784064898E+02  1.63232315279304E-01
 cg2d: Sum(rhs),rhsMax =  -8.90030916015036E+02  1.70555436659641E-01
 cg2d: Sum(rhs),rhsMax =  -9.21204164211895E+02  1.76554174670969E-01
 cg2d: Sum(rhs),rhsMax =  -9.60661826132093E+02  1.80589324558517E-01
 cg2d: Sum(rhs),rhsMax =  -1.01000606352352E+03  1.82501973366042E-01
 cg2d: Sum(rhs),rhsMax =  -1.06918980200272E+03  1.82540956464235E-01
 cg2d: Sum(rhs),rhsMax =  -7.39254264407638E+02  1.46672530906494E-01
 cg2d: Sum(rhs),rhsMax =  -7.95969983624967E+02  1.49843745105870E-01
 cg2d: Sum(rhs),rhsMax =  -8.35051515609289E+02  1.55815480004017E-01
 cg2d: Sum(rhs),rhsMax =  -8.63534784064898E+02  1.63232315279304E-01
 cg2d: Sum(rhs),rhsMax =  -8.90030916015036E+02  1.70555436659641E-01
 cg2d: Sum(rhs),rhsMax =  -9.21204164211895E+02  1.76554174670969E-01
 cg2d: Sum(rhs),rhsMax =  -9.60661826132093E+02  1.80589324558517E-01
 cg2d: Sum(rhs),rhsMax =  -1.01000606352352E+03  1.82501973366042E-01
 cg2d: Sum(rhs),rhsMax =  -1.06918980200272E+03  1.82540956464235E-01
 cg2d: Sum(rhs),rhsMax =   2.68673971959288E-14  2.91931175002307E-08
 cg2d: Sum(rhs),rhsMax =  -1.46549439250521E-13  1.47489290408176E-07
 cg2d: Sum(rhs),rhsMax =   1.41975320389065E-12  1.31355028085669E-07
 cg2d: Sum(rhs),rhsMax =  -4.30740998424994E-10  1.81152055973876E-07
 cg2d: Sum(rhs),rhsMax =  -1.04320208027531E-09  1.95709406690894E-07
 cg2d: Sum(rhs),rhsMax =  -1.46853817994952E-09  2.55224589287754E-07
 cg2d: Sum(rhs),rhsMax =  -1.04394304312194E-09  5.57316694960843E-07
 cg2d: Sum(rhs),rhsMax =  -8.10469302781058E-10  1.05283147669162E-06
 cg2d: Sum(rhs),rhsMax =  -1.55629098497201E-09  7.32371956136722E-07
(PID.TID 0000.0001) SOLVE_FOR_PRESSURE: putPmEinXvector =    F
 cg2d: Sum(rhs),rhsMax =  -7.87435592178023E+00  1.37697984471785E+00
 cg2d: Sum(rhs),rhsMax =  -1.01791081157115E+02  2.13040853307023E-01
 cg2d: Sum(rhs),rhsMax =  -1.59112718349022E+02  2.04436757292323E-01
 cg2d: Sum(rhs),rhsMax =  -2.24736325184820E+02  1.92987571287903E-01
 cg2d: Sum(rhs),rhsMax =  -3.00375267870801E+02  1.80488052016573E-01
 cg2d: Sum(rhs),rhsMax =  -3.89218675643549E+02  1.67147622756714E-01
 cg2d: Sum(rhs),rhsMax =  -4.84325145800424E+02  1.56712502786302E-01
 cg2d: Sum(rhs),rhsMax =  -5.75418766030877E+02  1.50746969469704E-01
 cg2d: Sum(rhs),rhsMax =  -6.63027529170545E+02  1.47181618041863E-01
 cg2d: Sum(rhs),rhsMax =  -1.99117722310405E-09  7.09349094586313E-07
 cg2d: Sum(rhs),rhsMax =  -2.49677345465216E-09  6.80476381555912E-07
 cg2d: Sum(rhs),rhsMax =  -2.23317342396001E-09  9.02177332125176E-07
 cg2d: Sum(rhs),rhsMax =  -2.29406327267867E-09  1.03279190191980E-06
 cg2d: Sum(rhs),rhsMax =  -4.37423641752588E-09  6.37935834715190E-07
 cg2d: Sum(rhs),rhsMax =  -3.58382656884260E-09  8.99574709480578E-07
 cg2d: Sum(rhs),rhsMax =  -3.84772746997442E-09  9.74932073856457E-07
 cg2d: Sum(rhs),rhsMax =  -4.01095556767928E-09  1.06681589356279E-06
 cg2d: Sum(rhs),rhsMax =  -3.70095376567292E-09  1.30270716716260E-06
(PID.TID 0000.0001) Start initial hydrostatic pressure computation
(PID.TID 0000.0001) Pressure is predetermined for buoyancyRelation OCEANIC
(PID.TID 0000.0001) 
 ph-pack: packing ecco_cost
 ph-pack: packing ecco_ctrl
 ph-check entering grdchk_main 
 ph-check fcref =    4.1549887924552333     
grad-res -------------------------------
 grad-res  proc    #    i    j    k   bi   bj iobc               fc ref           fc + eps           fc - eps
 grad-res  proc    #    i    j    k   bi   bj iobc             adj grad            fd grad         1 - fd/adj
 grad-res exact position met: 
 grad-res     0  224    1   32    4    1    1
 ph-grd -->hit<--            1          32           4           1
(PID.TID 0000.0001) 
(PID.TID 0000.0001)  cal_TimeStamp: iter =          0 time =  0.00000000E+00
(PID.TID 0000.0001)                 date =   20070101           0
(PID.TID 0000.0001) 
(PID.TID 0000.0001) INI_CG2D: CG2D normalisation factor =  1.8974682031179044E-04
(PID.TID 0000.0001) 
(PID.TID 0000.0001) Start initial hydrostatic pressure computation
(PID.TID 0000.0001) Pressure is predetermined for buoyancyRelation OCEANIC
(PID.TID 0000.0001) 
(PID.TID 0000.0001) // =======================================================
(PID.TID 0000.0001) // Model current state
(PID.TID 0000.0001) // =======================================================
(PID.TID 0000.0001) 
(PID.TID 0000.0001) SOLVE_FOR_PRESSURE: putPmEinXvector =    F
 cg2d: Sum(rhs),rhsMax =  -7.87435592178023E+00  1.37697984471785E+00
 cg2d: Sum(rhs),rhsMax =  -1.01791081157115E+02  2.13040853307023E-01
 cg2d: Sum(rhs),rhsMax =  -1.59112718349194E+02  2.04436757292102E-01
 cg2d: Sum(rhs),rhsMax =  -2.24736325186440E+02  1.92987571286511E-01
 cg2d: Sum(rhs),rhsMax =  -3.00375267878126E+02  1.80488052012171E-01
 cg2d: Sum(rhs),rhsMax =  -3.89218675666168E+02  1.67147622747000E-01
 cg2d: Sum(rhs),rhsMax =  -4.84325145851083E+02  1.56712502769910E-01
 cg2d: Sum(rhs),rhsMax =  -5.75418766118785E+02  1.50746969446674E-01
 cg2d: Sum(rhs),rhsMax =  -6.63027529301984E+02  1.47181618012686E-01
 cg2d: Sum(rhs),rhsMax =  -7.39254264586090E+02  1.46672530871088E-01
 cg2d: Sum(rhs),rhsMax =  -7.95969983841294E+02  1.49843745065146E-01
 cg2d: Sum(rhs),rhsMax =  -8.35051515849086E+02  1.55815479959272E-01
 cg2d: Sum(rhs),rhsMax =  -8.63534784320807E+02  1.63232315230930E-01
 cg2d: Sum(rhs),rhsMax =  -8.90030916284274E+02  1.70555436608047E-01
 cg2d: Sum(rhs),rhsMax =  -9.21204164497928E+02  1.76554174616148E-01
 cg2d: Sum(rhs),rhsMax =  -9.60661826438036E+02  1.80589324501004E-01
 cg2d: Sum(rhs),rhsMax =  -1.01000606385539E+03  1.82501973306075E-01
 cg2d: Sum(rhs),rhsMax =  -1.06918980236835E+03  1.82540956401812E-01
(PID.TID 0000.0001) ph-cost call cost_theta0
(PID.TID 0000.0001) ph-cost call cost_theta
 --> f_temp    = 0.415498997156621D+01
 --> f_salt    = 0.000000000000000D+00
 --> f_temp0   = 0.000000000000000D+00
 --> f_salt0   = 0.000000000000000D+00
 --> f_temp0smoo = 0.000000000000000D+00
 --> f_salt0smoo = 0.000000000000000D+00
 --> f_etan0   = 0.000000000000000D+00
 --> f_uvel0   = 0.000000000000000D+00
 --> f_vvel0   = 0.000000000000000D+00
 --> f_sst     = 0.000000000000000D+00
 --> f_tmi     = 0.000000000000000D+00
 --> f_sss     = 0.000000000000000D+00
 --> f_bp      = 0.000000000000000D+00
 --> f_ssh       = 0.000000000000000D+00
 --> f_tp        = 0.000000000000000D+00
 --> f_ers       = 0.000000000000000D+00
 --> f_gfo       = 0.000000000000000D+00
 --> f_tauu    = 0.000000000000000D+00
 --> f_tauum   = 0.000000000000000D+00
 --> f_tauusmoo = 0.000000000000000D+00
 --> f_tauv    = 0.000000000000000D+00
 --> f_tauvm   = 0.000000000000000D+00
 --> f_tauvsmoo = 0.000000000000000D+00
 --> f_hflux   = 0.000000000000000D+00
 --> f_hfluxmm = 0.000000000000000D+00
 --> f_hfluxsmoo = 0.000000000000000D+00
 --> f_sflux   = 0.000000000000000D+00
 --> f_sfluxmm = 0.000000000000000D+00
 --> f_sfluxsmoo = 0.000000000000000D+00
 --> f_uwind     = 0.000000000000000D+00
 --> f_vwind     = 0.000000000000000D+00
 --> f_atemp     = 0.000000000000000D+00
 --> f_aqh     = 0.000000000000000D+00
 --> f_precip  = 0.000000000000000D+00
 --> f_swflux  = 0.000000000000000D+00
 --> f_swdown  = 0.000000000000000D+00
 --> f_uwindm     = 0.000000000000000D+00
 --> f_vwindm     = 0.000000000000000D+00
 --> f_atempm     = 0.000000000000000D+00
 --> f_aqhm     = 0.000000000000000D+00
 --> f_precipm  = 0.000000000000000D+00
 --> f_swfluxm  = 0.000000000000000D+00
 --> f_swdownm  = 0.000000000000000D+00
 --> f_uwindsmoo     = 0.000000000000000D+00
 --> f_vwindsmoo     = 0.000000000000000D+00
 --> f_atempsmoo     = 0.000000000000000D+00
 --> f_aqhsmoo     = 0.000000000000000D+00
 --> f_precipsmoo  = 0.000000000000000D+00
 --> f_swfluxsmoo  = 0.000000000000000D+00
 --> f_swdownsmoo  = 0.000000000000000D+00
 --> f_atl     = 0.000000000000000D+00
 --> f_ctdt    = 0.000000000000000D+00
 --> f_ctds    = 0.000000000000000D+00
 --> f_ctdtclim= 0.000000000000000D+00
 --> f_ctdsclim= 0.000000000000000D+00
 --> f_xbt     = 0.000000000000000D+00
 --> f_argot   = 0.000000000000000D+00
 --> f_argos   = 0.000000000000000D+00
 --> f_drifter   = 0.000000000000000D+00
 --> f_tdrift  = 0.000000000000000D+00
 --> f_sdrift  = 0.000000000000000D+00
 --> f_wdrift  = 0.000000000000000D+00
 --> f_scatx   = 0.000000000000000D+00
 --> f_scaty   = 0.000000000000000D+00
 --> f_scatxm  = 0.000000000000000D+00
 --> f_scatym  = 0.000000000000000D+00
 --> f_obcsn   = 0.000000000000000D+00
 --> f_obcss   = 0.000000000000000D+00
 --> f_obcsw   = 0.400000000000000D-07
 --> f_obcse   = 0.000000000000000D+00
 --> f_ageos   = 0.000000000000000D+00
 --> f_curmtr  = 0.000000000000000D+00
 --> f_kapgm   = 0.000000000000000D+00
 --> f_kapredi   = 0.000000000000000D+00
 --> f_diffkr  = 0.000000000000000D+00
 --> f_eddytau = 0.000000000000000D+00
 --> f_bottomdrag = 0.000000000000000D+00
 --> f_hfluxmm2           = 0.000000000000000D+00
 --> f_sfluxmm2           = 0.000000000000000D+00
 --> f_transp             = 0.000000000000000D+00
 --> objf_hmean           = 0.000000000000000D+00
 --> fc               = 0.415499001156621D+01
 ph-check fcpertplus =    4.1549900115662082     
 ph-check fcpertminus =    4.1549887924552333     
(PID.TID 0000.0001) 
(PID.TID 0000.0001)  cal_TimeStamp: iter =          0 time =  0.00000000E+00
(PID.TID 0000.0001)                 date =   20070101           0
(PID.TID 0000.0001) 
(PID.TID 0000.0001) INI_CG2D: CG2D normalisation factor =  1.8974682031179044E-04
(PID.TID 0000.0001) 
(PID.TID 0000.0001) Start initial hydrostatic pressure computation
(PID.TID 0000.0001) Pressure is predetermined for buoyancyRelation OCEANIC
(PID.TID 0000.0001) 
(PID.TID 0000.0001) // =======================================================
(PID.TID 0000.0001) // Model current state
(PID.TID 0000.0001) // =======================================================
(PID.TID 0000.0001) 
(PID.TID 0000.0001) SOLVE_FOR_PRESSURE: putPmEinXvector =    F
 cg2d: Sum(rhs),rhsMax =  -7.87435592178023E+00  1.37697984471785E+00
 cg2d: Sum(rhs),rhsMax =  -1.01791081157115E+02  2.13040853307023E-01
 cg2d: Sum(rhs),rhsMax =  -1.59112718348832E+02  2.04436757292567E-01
 cg2d: Sum(rhs),rhsMax =  -2.24736325183189E+02  1.92987571289303E-01
 cg2d: Sum(rhs),rhsMax =  -3.00375267863467E+02  1.80488052020979E-01
 cg2d: Sum(rhs),rhsMax =  -3.89218675621020E+02  1.67147622766389E-01
 cg2d: Sum(rhs),rhsMax =  -4.84325145749710E+02  1.56712502802711E-01
 cg2d: Sum(rhs),rhsMax =  -5.75418765943050E+02  1.50746969492713E-01
 cg2d: Sum(rhs),rhsMax =  -6.63027529039101E+02  1.47181618071042E-01
 cg2d: Sum(rhs),rhsMax =  -7.39254264229180E+02  1.46672530941901E-01
 cg2d: Sum(rhs),rhsMax =  -7.95969983408659E+02  1.49843745146590E-01
 cg2d: Sum(rhs),rhsMax =  -8.35051515369435E+02  1.55815480048772E-01
 cg2d: Sum(rhs),rhsMax =  -8.63534783809140E+02  1.63232315327650E-01
 cg2d: Sum(rhs),rhsMax =  -8.90030915746074E+02  1.70555436711182E-01
 cg2d: Sum(rhs),rhsMax =  -9.21204163925738E+02  1.76554174725813E-01
 cg2d: Sum(rhs),rhsMax =  -9.60661825826081E+02  1.80589324616043E-01
 cg2d: Sum(rhs),rhsMax =  -1.01000606319169E+03  1.82501973426002E-01
 cg2d: Sum(rhs),rhsMax =  -1.06918980163721E+03  1.82540956526639E-01
(PID.TID 0000.0001) ph-cost call cost_theta0
(PID.TID 0000.0001) ph-cost call cost_theta
 --> f_temp    = 0.415498963762819D+01
 --> f_salt    = 0.000000000000000D+00
 --> f_temp0   = 0.000000000000000D+00
 --> f_salt0   = 0.000000000000000D+00
 --> f_temp0smoo = 0.000000000000000D+00
 --> f_salt0smoo = 0.000000000000000D+00
 --> f_etan0   = 0.000000000000000D+00
 --> f_uvel0   = 0.000000000000000D+00
 --> f_vvel0   = 0.000000000000000D+00
 --> f_sst     = 0.000000000000000D+00
 --> f_tmi     = 0.000000000000000D+00
 --> f_sss     = 0.000000000000000D+00
 --> f_bp      = 0.000000000000000D+00
 --> f_ssh       = 0.000000000000000D+00
 --> f_tp        = 0.000000000000000D+00
 --> f_ers       = 0.000000000000000D+00
 --> f_gfo       = 0.000000000000000D+00
 --> f_tauu    = 0.000000000000000D+00
 --> f_tauum   = 0.000000000000000D+00
 --> f_tauusmoo = 0.000000000000000D+00
 --> f_tauv    = 0.000000000000000D+00
 --> f_tauvm   = 0.000000000000000D+00
 --> f_tauvsmoo = 0.000000000000000D+00
 --> f_hflux   = 0.000000000000000D+00
 --> f_hfluxmm = 0.000000000000000D+00
 --> f_hfluxsmoo = 0.000000000000000D+00
 --> f_sflux   = 0.000000000000000D+00
 --> f_sfluxmm = 0.000000000000000D+00
 --> f_sfluxsmoo = 0.000000000000000D+00
 --> f_uwind     = 0.000000000000000D+00
 --> f_vwind     = 0.000000000000000D+00
 --> f_atemp     = 0.000000000000000D+00
 --> f_aqh     = 0.000000000000000D+00
 --> f_precip  = 0.000000000000000D+00
 --> f_swflux  = 0.000000000000000D+00
 --> f_swdown  = 0.000000000000000D+00
 --> f_uwindm     = 0.000000000000000D+00
 --> f_vwindm     = 0.000000000000000D+00
 --> f_atempm     = 0.000000000000000D+00
 --> f_aqhm     = 0.000000000000000D+00
 --> f_precipm  = 0.000000000000000D+00
 --> f_swfluxm  = 0.000000000000000D+00
 --> f_swdownm  = 0.000000000000000D+00
 --> f_uwindsmoo     = 0.000000000000000D+00
 --> f_vwindsmoo     = 0.000000000000000D+00
 --> f_atempsmoo     = 0.000000000000000D+00
 --> f_aqhsmoo     = 0.000000000000000D+00
 --> f_precipsmoo  = 0.000000000000000D+00
 --> f_swfluxsmoo  = 0.000000000000000D+00
 --> f_swdownsmoo  = 0.000000000000000D+00
 --> f_atl     = 0.000000000000000D+00
 --> f_ctdt    = 0.000000000000000D+00
 --> f_ctds    = 0.000000000000000D+00
 --> f_ctdtclim= 0.000000000000000D+00
 --> f_ctdsclim= 0.000000000000000D+00
 --> f_xbt     = 0.000000000000000D+00
 --> f_argot   = 0.000000000000000D+00
 --> f_argos   = 0.000000000000000D+00
 --> f_drifter   = 0.000000000000000D+00
 --> f_tdrift  = 0.000000000000000D+00
 --> f_sdrift  = 0.000000000000000D+00
 --> f_wdrift  = 0.000000000000000D+00
 --> f_scatx   = 0.000000000000000D+00
 --> f_scaty   = 0.000000000000000D+00
 --> f_scatxm  = 0.000000000000000D+00
 --> f_scatym  = 0.000000000000000D+00
 --> f_obcsn   = 0.000000000000000D+00
 --> f_obcss   = 0.000000000000000D+00
 --> f_obcsw   = 0.400000000000000D-07
 --> f_obcse   = 0.000000000000000D+00
 --> f_ageos   = 0.000000000000000D+00
 --> f_curmtr  = 0.000000000000000D+00
 --> f_kapgm   = 0.000000000000000D+00
 --> f_kapredi   = 0.000000000000000D+00
 --> f_diffkr  = 0.000000000000000D+00
 --> f_eddytau = 0.000000000000000D+00
 --> f_bottomdrag = 0.000000000000000D+00
 --> f_hfluxmm2           = 0.000000000000000D+00
 --> f_sfluxmm2           = 0.000000000000000D+00
 --> f_transp             = 0.000000000000000D+00
 --> objf_hmean           = 0.000000000000000D+00
 --> fc               = 0.415498967762819D+01
grad-res -------------------------------
 grad-res     0    1    1   32    4    1    1    1   0.415498879246E+01 0.415499001157E+01 0.415498967763E+01
 grad-res     0    1    1  224  256    1    1    1   0.166968371034E-02 0.166969009729E-02 -.382524839582E-05
(PID.TID 0000.0001)   ADM  precision_derivative_cost =    4.15498879245523E+00
(PID.TID 0000.0001)   ADM  precision_derivative_grad =    1.66968371033963E-03
 ph-grd  ierr ---------------------------
 ph-grd  ierr =            0 , icomp =          224 , ichknum =            1
 ph-grd -->hit<--            1          32           4           1
(PID.TID 0000.0001) 
(PID.TID 0000.0001)  cal_TimeStamp: iter =          0 time =  0.00000000E+00
(PID.TID 0000.0001)                 date =   20070101           0
(PID.TID 0000.0001) 
(PID.TID 0000.0001) INI_CG2D: CG2D normalisation factor =  1.8974682031179044E-04
(PID.TID 0000.0001) 
(PID.TID 0000.0001) Start initial hydrostatic pressure computation
(PID.TID 0000.0001) Pressure is predetermined for buoyancyRelation OCEANIC
(PID.TID 0000.0001) 
(PID.TID 0000.0001) // =======================================================
(PID.TID 0000.0001) // Model current state
(PID.TID 0000.0001) // =======================================================
(PID.TID 0000.0001) 
(PID.TID 0000.0001) SOLVE_FOR_PRESSURE: putPmEinXvector =    F
 cg2d: Sum(rhs),rhsMax =  -7.87435592178023E+00  1.37697984471785E+00
 cg2d: Sum(rhs),rhsMax =  -1.01791081157115E+02  2.13040853307023E-01
 cg2d: Sum(rhs),rhsMax =  -1.59112718349194E+02  2.04436757292102E-01
 cg2d: Sum(rhs),rhsMax =  -2.24736325186440E+02  1.92987571286511E-01
 cg2d: Sum(rhs),rhsMax =  -3.00375267878126E+02  1.80488052012171E-01
 cg2d: Sum(rhs),rhsMax =  -3.89218675666168E+02  1.67147622747000E-01
 cg2d: Sum(rhs),rhsMax =  -4.84325145851083E+02  1.56712502769910E-01
 cg2d: Sum(rhs),rhsMax =  -5.75418766118785E+02  1.50746969446674E-01
 cg2d: Sum(rhs),rhsMax =  -6.63027529301984E+02  1.47181618012686E-01
 cg2d: Sum(rhs),rhsMax =  -7.39254264586090E+02  1.46672530871088E-01
 cg2d: Sum(rhs),rhsMax =  -7.95969983841294E+02  1.49843745065146E-01
 cg2d: Sum(rhs),rhsMax =  -8.35051515849086E+02  1.55815479959272E-01
 cg2d: Sum(rhs),rhsMax =  -8.63534784320807E+02  1.63232315230930E-01
 cg2d: Sum(rhs),rhsMax =  -8.90030916284274E+02  1.70555436608047E-01
 cg2d: Sum(rhs),rhsMax =  -9.21204164497928E+02  1.76554174616148E-01
 cg2d: Sum(rhs),rhsMax =  -9.60661826438036E+02  1.80589324501004E-01
 cg2d: Sum(rhs),rhsMax =  -1.01000606385539E+03  1.82501973306075E-01
 cg2d: Sum(rhs),rhsMax =  -1.06918980236835E+03  1.82540956401812E-01
(PID.TID 0000.0001) ph-cost call cost_theta0
(PID.TID 0000.0001) ph-cost call cost_theta
 --> f_temp    = 0.415498997156621D+01
 --> f_salt    = 0.000000000000000D+00
 --> f_temp0   = 0.000000000000000D+00
 --> f_salt0   = 0.000000000000000D+00
 --> f_temp0smoo = 0.000000000000000D+00
 --> f_salt0smoo = 0.000000000000000D+00
 --> f_etan0   = 0.000000000000000D+00
 --> f_uvel0   = 0.000000000000000D+00
 --> f_vvel0   = 0.000000000000000D+00
 --> f_sst     = 0.000000000000000D+00
 --> f_tmi     = 0.000000000000000D+00
 --> f_sss     = 0.000000000000000D+00
 --> f_bp      = 0.000000000000000D+00
 --> f_ssh       = 0.000000000000000D+00
 --> f_tp        = 0.000000000000000D+00
 --> f_ers       = 0.000000000000000D+00
 --> f_gfo       = 0.000000000000000D+00
 --> f_tauu    = 0.000000000000000D+00
 --> f_tauum   = 0.000000000000000D+00
 --> f_tauusmoo = 0.000000000000000D+00
 --> f_tauv    = 0.000000000000000D+00
 --> f_tauvm   = 0.000000000000000D+00
 --> f_tauvsmoo = 0.000000000000000D+00
 --> f_hflux   = 0.000000000000000D+00
 --> f_hfluxmm = 0.000000000000000D+00
 --> f_hfluxsmoo = 0.000000000000000D+00
 --> f_sflux   = 0.000000000000000D+00
 --> f_sfluxmm = 0.000000000000000D+00
 --> f_sfluxsmoo = 0.000000000000000D+00
 --> f_uwind     = 0.000000000000000D+00
 --> f_vwind     = 0.000000000000000D+00
 --> f_atemp     = 0.000000000000000D+00
 --> f_aqh     = 0.000000000000000D+00
 --> f_precip  = 0.000000000000000D+00
 --> f_swflux  = 0.000000000000000D+00
 --> f_swdown  = 0.000000000000000D+00
 --> f_uwindm     = 0.000000000000000D+00
 --> f_vwindm     = 0.000000000000000D+00
 --> f_atempm     = 0.000000000000000D+00
 --> f_aqhm     = 0.000000000000000D+00
 --> f_precipm  = 0.000000000000000D+00
 --> f_swfluxm  = 0.000000000000000D+00
 --> f_swdownm  = 0.000000000000000D+00
 --> f_uwindsmoo     = 0.000000000000000D+00
 --> f_vwindsmoo     = 0.000000000000000D+00
 --> f_atempsmoo     = 0.000000000000000D+00
 --> f_aqhsmoo     = 0.000000000000000D+00
 --> f_precipsmoo  = 0.000000000000000D+00
 --> f_swfluxsmoo  = 0.000000000000000D+00
 --> f_swdownsmoo  = 0.000000000000000D+00
 --> f_atl     = 0.000000000000000D+00
 --> f_ctdt    = 0.000000000000000D+00
 --> f_ctds    = 0.000000000000000D+00
 --> f_ctdtclim= 0.000000000000000D+00
 --> f_ctdsclim= 0.000000000000000D+00
 --> f_xbt     = 0.000000000000000D+00
 --> f_argot   = 0.000000000000000D+00
 --> f_argos   = 0.000000000000000D+00
 --> f_drifter   = 0.000000000000000D+00
 --> f_tdrift  = 0.000000000000000D+00
 --> f_sdrift  = 0.000000000000000D+00
 --> f_wdrift  = 0.000000000000000D+00
 --> f_scatx   = 0.000000000000000D+00
 --> f_scaty   = 0.000000000000000D+00
 --> f_scatxm  = 0.000000000000000D+00
 --> f_scatym  = 0.000000000000000D+00
 --> f_obcsn   = 0.000000000000000D+00
 --> f_obcss   = 0.000000000000000D+00
 --> f_obcsw   = 0.400000000000000D-07
 --> f_obcse   = 0.000000000000000D+00
 --> f_ageos   = 0.000000000000000D+00
 --> f_curmtr  = 0.000000000000000D+00
 --> f_kapgm   = 0.000000000000000D+00
 --> f_kapredi   = 0.000000000000000D+00
 --> f_diffkr  = 0.000000000000000D+00
 --> f_eddytau = 0.000000000000000D+00
 --> f_bottomdrag = 0.000000000000000D+00
 --> f_hfluxmm2           = 0.000000000000000D+00
 --> f_sfluxmm2           = 0.000000000000000D+00
 --> f_transp             = 0.000000000000000D+00
 --> objf_hmean           = 0.000000000000000D+00
 --> fc               = 0.415499001156621D+01
 ph-check fcpertplus =    4.1549900115662082     
 ph-check fcpertminus =    4.1549887924552333     
(PID.TID 0000.0001) 
(PID.TID 0000.0001)  cal_TimeStamp: iter =          0 time =  0.00000000E+00
(PID.TID 0000.0001)                 date =   20070101           0
(PID.TID 0000.0001) 
(PID.TID 0000.0001) INI_CG2D: CG2D normalisation factor =  1.8974682031179044E-04
(PID.TID 0000.0001) 
(PID.TID 0000.0001) Start initial hydrostatic pressure computation
(PID.TID 0000.0001) Pressure is predetermined for buoyancyRelation OCEANIC
(PID.TID 0000.0001) 
(PID.TID 0000.0001) // =======================================================
(PID.TID 0000.0001) // Model current state
(PID.TID 0000.0001) // =======================================================
(PID.TID 0000.0001) 
(PID.TID 0000.0001) SOLVE_FOR_PRESSURE: putPmEinXvector =    F
 cg2d: Sum(rhs),rhsMax =  -7.87435592178023E+00  1.37697984471785E+00
 cg2d: Sum(rhs),rhsMax =  -1.01791081157115E+02  2.13040853307023E-01
 cg2d: Sum(rhs),rhsMax =  -1.59112718348832E+02  2.04436757292567E-01
 cg2d: Sum(rhs),rhsMax =  -2.24736325183189E+02  1.92987571289303E-01
 cg2d: Sum(rhs),rhsMax =  -3.00375267863467E+02  1.80488052020979E-01
 cg2d: Sum(rhs),rhsMax =  -3.89218675621020E+02  1.67147622766389E-01
 cg2d: Sum(rhs),rhsMax =  -4.84325145749710E+02  1.56712502802711E-01
 cg2d: Sum(rhs),rhsMax =  -5.75418765943050E+02  1.50746969492713E-01
 cg2d: Sum(rhs),rhsMax =  -6.63027529039101E+02  1.47181618071042E-01
 cg2d: Sum(rhs),rhsMax =  -7.39254264229180E+02  1.46672530941901E-01
 cg2d: Sum(rhs),rhsMax =  -7.95969983408659E+02  1.49843745146590E-01
 cg2d: Sum(rhs),rhsMax =  -8.35051515369435E+02  1.55815480048772E-01
 cg2d: Sum(rhs),rhsMax =  -8.63534783809140E+02  1.63232315327650E-01
 cg2d: Sum(rhs),rhsMax =  -8.90030915746074E+02  1.70555436711182E-01
 cg2d: Sum(rhs),rhsMax =  -9.21204163925738E+02  1.76554174725813E-01
 cg2d: Sum(rhs),rhsMax =  -9.60661825826081E+02  1.80589324616043E-01
 cg2d: Sum(rhs),rhsMax =  -1.01000606319169E+03  1.82501973426002E-01
 cg2d: Sum(rhs),rhsMax =  -1.06918980163721E+03  1.82540956526639E-01
(PID.TID 0000.0001) ph-cost call cost_theta0
(PID.TID 0000.0001) ph-cost call cost_theta
 --> f_temp    = 0.415498963762819D+01
 --> f_salt    = 0.000000000000000D+00
 --> f_temp0   = 0.000000000000000D+00
 --> f_salt0   = 0.000000000000000D+00
 --> f_temp0smoo = 0.000000000000000D+00
 --> f_salt0smoo = 0.000000000000000D+00
 --> f_etan0   = 0.000000000000000D+00
 --> f_uvel0   = 0.000000000000000D+00
 --> f_vvel0   = 0.000000000000000D+00
 --> f_sst     = 0.000000000000000D+00
 --> f_tmi     = 0.000000000000000D+00
 --> f_sss     = 0.000000000000000D+00
 --> f_bp      = 0.000000000000000D+00
 --> f_ssh       = 0.000000000000000D+00
 --> f_tp        = 0.000000000000000D+00
 --> f_ers       = 0.000000000000000D+00
 --> f_gfo       = 0.000000000000000D+00
 --> f_tauu    = 0.000000000000000D+00
 --> f_tauum   = 0.000000000000000D+00
 --> f_tauusmoo = 0.000000000000000D+00
 --> f_tauv    = 0.000000000000000D+00
 --> f_tauvm   = 0.000000000000000D+00
 --> f_tauvsmoo = 0.000000000000000D+00
 --> f_hflux   = 0.000000000000000D+00
 --> f_hfluxmm = 0.000000000000000D+00
 --> f_hfluxsmoo = 0.000000000000000D+00
 --> f_sflux   = 0.000000000000000D+00
 --> f_sfluxmm = 0.000000000000000D+00
 --> f_sfluxsmoo = 0.000000000000000D+00
 --> f_uwind     = 0.000000000000000D+00
 --> f_vwind     = 0.000000000000000D+00
 --> f_atemp     = 0.000000000000000D+00
 --> f_aqh     = 0.000000000000000D+00
 --> f_precip  = 0.000000000000000D+00
 --> f_swflux  = 0.000000000000000D+00
 --> f_swdown  = 0.000000000000000D+00
 --> f_uwindm     = 0.000000000000000D+00
 --> f_vwindm     = 0.000000000000000D+00
 --> f_atempm     = 0.000000000000000D+00
 --> f_aqhm     = 0.000000000000000D+00
 --> f_precipm  = 0.000000000000000D+00
 --> f_swfluxm  = 0.000000000000000D+00
 --> f_swdownm  = 0.000000000000000D+00
 --> f_uwindsmoo     = 0.000000000000000D+00
 --> f_vwindsmoo     = 0.000000000000000D+00
 --> f_atempsmoo     = 0.000000000000000D+00
 --> f_aqhsmoo     = 0.000000000000000D+00
 --> f_precipsmoo  = 0.000000000000000D+00
 --> f_swfluxsmoo  = 0.000000000000000D+00
 --> f_swdownsmoo  = 0.000000000000000D+00
 --> f_atl     = 0.000000000000000D+00
 --> f_ctdt    = 0.000000000000000D+00
 --> f_ctds    = 0.000000000000000D+00
 --> f_ctdtclim= 0.000000000000000D+00
 --> f_ctdsclim= 0.000000000000000D+00
 --> f_xbt     = 0.000000000000000D+00
 --> f_argot   = 0.000000000000000D+00
 --> f_argos   = 0.000000000000000D+00
 --> f_drifter   = 0.000000000000000D+00
 --> f_tdrift  = 0.000000000000000D+00
 --> f_sdrift  = 0.000000000000000D+00
 --> f_wdrift  = 0.000000000000000D+00
 --> f_scatx   = 0.000000000000000D+00
 --> f_scaty   = 0.000000000000000D+00
 --> f_scatxm  = 0.000000000000000D+00
 --> f_scatym  = 0.000000000000000D+00
 --> f_obcsn   = 0.000000000000000D+00
 --> f_obcss   = 0.000000000000000D+00
 --> f_obcsw   = 0.400000000000000D-07
 --> f_obcse   = 0.000000000000000D+00
 --> f_ageos   = 0.000000000000000D+00
 --> f_curmtr  = 0.000000000000000D+00
 --> f_kapgm   = 0.000000000000000D+00
 --> f_kapredi   = 0.000000000000000D+00
 --> f_diffkr  = 0.000000000000000D+00
 --> f_eddytau = 0.000000000000000D+00
 --> f_bottomdrag = 0.000000000000000D+00
 --> f_hfluxmm2           = 0.000000000000000D+00
 --> f_sfluxmm2           = 0.000000000000000D+00
 --> f_transp             = 0.000000000000000D+00
 --> objf_hmean           = 0.000000000000000D+00
 --> fc               = 0.415498967762819D+01
grad-res -------------------------------
 grad-res     0    2    1   32    4    1    1    1   0.415498879246E+01 0.415499001157E+01 0.415498967763E+01
 grad-res     0    2    2  225  256    1    1    1   0.166968371034E-02 0.166969009729E-02 -.382524839582E-05
(PID.TID 0000.0001)   ADM  precision_derivative_cost =    4.15498879245523E+00
(PID.TID 0000.0001)   ADM  precision_derivative_grad =    1.66968371033963E-03
 ph-grd  ierr ---------------------------
 ph-grd  ierr =            0 , icomp =          225 , ichknum =            2
 ph-grd -->hit<--            1          32           4           1
(PID.TID 0000.0001) 
(PID.TID 0000.0001)  cal_TimeStamp: iter =          0 time =  0.00000000E+00
(PID.TID 0000.0001)                 date =   20070101           0
(PID.TID 0000.0001) 
(PID.TID 0000.0001) INI_CG2D: CG2D normalisation factor =  1.8974682031179044E-04
(PID.TID 0000.0001) 
(PID.TID 0000.0001) Start initial hydrostatic pressure computation
(PID.TID 0000.0001) Pressure is predetermined for buoyancyRelation OCEANIC
(PID.TID 0000.0001) 
(PID.TID 0000.0001) // =======================================================
(PID.TID 0000.0001) // Model current state
(PID.TID 0000.0001) // =======================================================
(PID.TID 0000.0001) 
(PID.TID 0000.0001) SOLVE_FOR_PRESSURE: putPmEinXvector =    F
 cg2d: Sum(rhs),rhsMax =  -7.87435592178023E+00  1.37697984471785E+00
 cg2d: Sum(rhs),rhsMax =  -1.01791081157115E+02  2.13040853307023E-01
 cg2d: Sum(rhs),rhsMax =  -1.59112718349194E+02  2.04436757292102E-01
 cg2d: Sum(rhs),rhsMax =  -2.24736325186440E+02  1.92987571286511E-01
 cg2d: Sum(rhs),rhsMax =  -3.00375267878126E+02  1.80488052012171E-01
 cg2d: Sum(rhs),rhsMax =  -3.89218675666168E+02  1.67147622747000E-01
 cg2d: Sum(rhs),rhsMax =  -4.84325145851083E+02  1.56712502769910E-01
 cg2d: Sum(rhs),rhsMax =  -5.75418766118785E+02  1.50746969446674E-01
 cg2d: Sum(rhs),rhsMax =  -6.63027529301984E+02  1.47181618012686E-01
 cg2d: Sum(rhs),rhsMax =  -7.39254264586090E+02  1.46672530871088E-01
 cg2d: Sum(rhs),rhsMax =  -7.95969983841294E+02  1.49843745065146E-01
 cg2d: Sum(rhs),rhsMax =  -8.35051515849086E+02  1.55815479959272E-01
 cg2d: Sum(rhs),rhsMax =  -8.63534784320807E+02  1.63232315230930E-01
 cg2d: Sum(rhs),rhsMax =  -8.90030916284274E+02  1.70555436608047E-01
 cg2d: Sum(rhs),rhsMax =  -9.21204164497928E+02  1.76554174616148E-01
 cg2d: Sum(rhs),rhsMax =  -9.60661826438036E+02  1.80589324501004E-01
 cg2d: Sum(rhs),rhsMax =  -1.01000606385539E+03  1.82501973306075E-01
 cg2d: Sum(rhs),rhsMax =  -1.06918980236835E+03  1.82540956401812E-01
(PID.TID 0000.0001) ph-cost call cost_theta0
(PID.TID 0000.0001) ph-cost call cost_theta
 --> f_temp    = 0.415498997156621D+01
 --> f_salt    = 0.000000000000000D+00
 --> f_temp0   = 0.000000000000000D+00
 --> f_salt0   = 0.000000000000000D+00
 --> f_temp0smoo = 0.000000000000000D+00
 --> f_salt0smoo = 0.000000000000000D+00
 --> f_etan0   = 0.000000000000000D+00
 --> f_uvel0   = 0.000000000000000D+00
 --> f_vvel0   = 0.000000000000000D+00
 --> f_sst     = 0.000000000000000D+00
 --> f_tmi     = 0.000000000000000D+00
 --> f_sss     = 0.000000000000000D+00
 --> f_bp      = 0.000000000000000D+00
 --> f_ssh       = 0.000000000000000D+00
 --> f_tp        = 0.000000000000000D+00
 --> f_ers       = 0.000000000000000D+00
 --> f_gfo       = 0.000000000000000D+00
 --> f_tauu    = 0.000000000000000D+00
 --> f_tauum   = 0.000000000000000D+00
 --> f_tauusmoo = 0.000000000000000D+00
 --> f_tauv    = 0.000000000000000D+00
 --> f_tauvm   = 0.000000000000000D+00
 --> f_tauvsmoo = 0.000000000000000D+00
 --> f_hflux   = 0.000000000000000D+00
 --> f_hfluxmm = 0.000000000000000D+00
 --> f_hfluxsmoo = 0.000000000000000D+00
 --> f_sflux   = 0.000000000000000D+00
 --> f_sfluxmm = 0.000000000000000D+00
 --> f_sfluxsmoo = 0.000000000000000D+00
 --> f_uwind     = 0.000000000000000D+00
 --> f_vwind     = 0.000000000000000D+00
 --> f_atemp     = 0.000000000000000D+00
 --> f_aqh     = 0.000000000000000D+00
 --> f_precip  = 0.000000000000000D+00
 --> f_swflux  = 0.000000000000000D+00
 --> f_swdown  = 0.000000000000000D+00
 --> f_uwindm     = 0.000000000000000D+00
 --> f_vwindm     = 0.000000000000000D+00
 --> f_atempm     = 0.000000000000000D+00
 --> f_aqhm     = 0.000000000000000D+00
 --> f_precipm  = 0.000000000000000D+00
 --> f_swfluxm  = 0.000000000000000D+00
 --> f_swdownm  = 0.000000000000000D+00
 --> f_uwindsmoo     = 0.000000000000000D+00
 --> f_vwindsmoo     = 0.000000000000000D+00
 --> f_atempsmoo     = 0.000000000000000D+00
 --> f_aqhsmoo     = 0.000000000000000D+00
 --> f_precipsmoo  = 0.000000000000000D+00
 --> f_swfluxsmoo  = 0.000000000000000D+00
 --> f_swdownsmoo  = 0.000000000000000D+00
 --> f_atl     = 0.000000000000000D+00
 --> f_ctdt    = 0.000000000000000D+00
 --> f_ctds    = 0.000000000000000D+00
 --> f_ctdtclim= 0.000000000000000D+00
 --> f_ctdsclim= 0.000000000000000D+00
 --> f_xbt     = 0.000000000000000D+00
 --> f_argot   = 0.000000000000000D+00
 --> f_argos   = 0.000000000000000D+00
 --> f_drifter   = 0.000000000000000D+00
 --> f_tdrift  = 0.000000000000000D+00
 --> f_sdrift  = 0.000000000000000D+00
 --> f_wdrift  = 0.000000000000000D+00
 --> f_scatx   = 0.000000000000000D+00
 --> f_scaty   = 0.000000000000000D+00
 --> f_scatxm  = 0.000000000000000D+00
 --> f_scatym  = 0.000000000000000D+00
 --> f_obcsn   = 0.000000000000000D+00
 --> f_obcss   = 0.000000000000000D+00
 --> f_obcsw   = 0.400000000000000D-07
 --> f_obcse   = 0.000000000000000D+00
 --> f_ageos   = 0.000000000000000D+00
 --> f_curmtr  = 0.000000000000000D+00
 --> f_kapgm   = 0.000000000000000D+00
 --> f_kapredi   = 0.000000000000000D+00
 --> f_diffkr  = 0.000000000000000D+00
 --> f_eddytau = 0.000000000000000D+00
 --> f_bottomdrag = 0.000000000000000D+00
 --> f_hfluxmm2           = 0.000000000000000D+00
 --> f_sfluxmm2           = 0.000000000000000D+00
 --> f_transp             = 0.000000000000000D+00
 --> objf_hmean           = 0.000000000000000D+00
 --> fc               = 0.415499001156621D+01
 ph-check fcpertplus =    4.1549900115662082     
 ph-check fcpertminus =    4.1549887924552333     
(PID.TID 0000.0001) 
(PID.TID 0000.0001)  cal_TimeStamp: iter =          0 time =  0.00000000E+00
(PID.TID 0000.0001)                 date =   20070101           0
(PID.TID 0000.0001) 
(PID.TID 0000.0001) INI_CG2D: CG2D normalisation factor =  1.8974682031179044E-04
(PID.TID 0000.0001) 
(PID.TID 0000.0001) Start initial hydrostatic pressure computation
(PID.TID 0000.0001) Pressure is predetermined for buoyancyRelation OCEANIC
(PID.TID 0000.0001) 
(PID.TID 0000.0001) // =======================================================
(PID.TID 0000.0001) // Model current state
(PID.TID 0000.0001) // =======================================================
(PID.TID 0000.0001) 
(PID.TID 0000.0001) SOLVE_FOR_PRESSURE: putPmEinXvector =    F
 cg2d: Sum(rhs),rhsMax =  -7.87435592178023E+00  1.37697984471785E+00
 cg2d: Sum(rhs),rhsMax =  -1.01791081157115E+02  2.13040853307023E-01
 cg2d: Sum(rhs),rhsMax =  -1.59112718348832E+02  2.04436757292567E-01
 cg2d: Sum(rhs),rhsMax =  -2.24736325183189E+02  1.92987571289303E-01
 cg2d: Sum(rhs),rhsMax =  -3.00375267863467E+02  1.80488052020979E-01
 cg2d: Sum(rhs),rhsMax =  -3.89218675621020E+02  1.67147622766389E-01
 cg2d: Sum(rhs),rhsMax =  -4.84325145749710E+02  1.56712502802711E-01
 cg2d: Sum(rhs),rhsMax =  -5.75418765943050E+02  1.50746969492713E-01
 cg2d: Sum(rhs),rhsMax =  -6.63027529039101E+02  1.47181618071042E-01
 cg2d: Sum(rhs),rhsMax =  -7.39254264229180E+02  1.46672530941901E-01
 cg2d: Sum(rhs),rhsMax =  -7.95969983408659E+02  1.49843745146590E-01
 cg2d: Sum(rhs),rhsMax =  -8.35051515369435E+02  1.55815480048772E-01
 cg2d: Sum(rhs),rhsMax =  -8.63534783809140E+02  1.63232315327650E-01
 cg2d: Sum(rhs),rhsMax =  -8.90030915746074E+02  1.70555436711182E-01
 cg2d: Sum(rhs),rhsMax =  -9.21204163925738E+02  1.76554174725813E-01
 cg2d: Sum(rhs),rhsMax =  -9.60661825826081E+02  1.80589324616043E-01
 cg2d: Sum(rhs),rhsMax =  -1.01000606319169E+03  1.82501973426002E-01
 cg2d: Sum(rhs),rhsMax =  -1.06918980163721E+03  1.82540956526639E-01
(PID.TID 0000.0001) ph-cost call cost_theta0
(PID.TID 0000.0001) ph-cost call cost_theta
 --> f_temp    = 0.415498963762819D+01
 --> f_salt    = 0.000000000000000D+00
 --> f_temp0   = 0.000000000000000D+00
 --> f_salt0   = 0.000000000000000D+00
 --> f_temp0smoo = 0.000000000000000D+00
 --> f_salt0smoo = 0.000000000000000D+00
 --> f_etan0   = 0.000000000000000D+00
 --> f_uvel0   = 0.000000000000000D+00
 --> f_vvel0   = 0.000000000000000D+00
 --> f_sst     = 0.000000000000000D+00
 --> f_tmi     = 0.000000000000000D+00
 --> f_sss     = 0.000000000000000D+00
 --> f_bp      = 0.000000000000000D+00
 --> f_ssh       = 0.000000000000000D+00
 --> f_tp        = 0.000000000000000D+00
 --> f_ers       = 0.000000000000000D+00
 --> f_gfo       = 0.000000000000000D+00
 --> f_tauu    = 0.000000000000000D+00
 --> f_tauum   = 0.000000000000000D+00
 --> f_tauusmoo = 0.000000000000000D+00
 --> f_tauv    = 0.000000000000000D+00
 --> f_tauvm   = 0.000000000000000D+00
 --> f_tauvsmoo = 0.000000000000000D+00
 --> f_hflux   = 0.000000000000000D+00
 --> f_hfluxmm = 0.000000000000000D+00
 --> f_hfluxsmoo = 0.000000000000000D+00
 --> f_sflux   = 0.000000000000000D+00
 --> f_sfluxmm = 0.000000000000000D+00
 --> f_sfluxsmoo = 0.000000000000000D+00
 --> f_uwind     = 0.000000000000000D+00
 --> f_vwind     = 0.000000000000000D+00
 --> f_atemp     = 0.000000000000000D+00
 --> f_aqh     = 0.000000000000000D+00
 --> f_precip  = 0.000000000000000D+00
 --> f_swflux  = 0.000000000000000D+00
 --> f_swdown  = 0.000000000000000D+00
 --> f_uwindm     = 0.000000000000000D+00
 --> f_vwindm     = 0.000000000000000D+00
 --> f_atempm     = 0.000000000000000D+00
 --> f_aqhm     = 0.000000000000000D+00
 --> f_precipm  = 0.000000000000000D+00
 --> f_swfluxm  = 0.000000000000000D+00
 --> f_swdownm  = 0.000000000000000D+00
 --> f_uwindsmoo     = 0.000000000000000D+00
 --> f_vwindsmoo     = 0.000000000000000D+00
 --> f_atempsmoo     = 0.000000000000000D+00
 --> f_aqhsmoo     = 0.000000000000000D+00
 --> f_precipsmoo  = 0.000000000000000D+00
 --> f_swfluxsmoo  = 0.000000000000000D+00
 --> f_swdownsmoo  = 0.000000000000000D+00
 --> f_atl     = 0.000000000000000D+00
 --> f_ctdt    = 0.000000000000000D+00
 --> f_ctds    = 0.000000000000000D+00
 --> f_ctdtclim= 0.000000000000000D+00
 --> f_ctdsclim= 0.000000000000000D+00
 --> f_xbt     = 0.000000000000000D+00
 --> f_argot   = 0.000000000000000D+00
 --> f_argos   = 0.000000000000000D+00
 --> f_drifter   = 0.000000000000000D+00
 --> f_tdrift  = 0.000000000000000D+00
 --> f_sdrift  = 0.000000000000000D+00
 --> f_wdrift  = 0.000000000000000D+00
 --> f_scatx   = 0.000000000000000D+00
 --> f_scaty   = 0.000000000000000D+00
 --> f_scatxm  = 0.000000000000000D+00
 --> f_scatym  = 0.000000000000000D+00
 --> f_obcsn   = 0.000000000000000D+00
 --> f_obcss   = 0.000000000000000D+00
 --> f_obcsw   = 0.400000000000000D-07
 --> f_obcse   = 0.000000000000000D+00
 --> f_ageos   = 0.000000000000000D+00
 --> f_curmtr  = 0.000000000000000D+00
 --> f_kapgm   = 0.000000000000000D+00
 --> f_kapredi   = 0.000000000000000D+00
 --> f_diffkr  = 0.000000000000000D+00
 --> f_eddytau = 0.000000000000000D+00
 --> f_bottomdrag = 0.000000000000000D+00
 --> f_hfluxmm2           = 0.000000000000000D+00
 --> f_sfluxmm2           = 0.000000000000000D+00
 --> f_transp             = 0.000000000000000D+00
 --> objf_hmean           = 0.000000000000000D+00
 --> fc               = 0.415498967762819D+01
grad-res -------------------------------
 grad-res     0    3    1   32    4    1    1    1   0.415498879246E+01 0.415499001157E+01 0.415498967763E+01
 grad-res     0    3    3  226  256    1    1    1   0.166968371034E-02 0.166969009729E-02 -.382524839582E-05
(PID.TID 0000.0001)   ADM  precision_derivative_cost =    4.15498879245523E+00
(PID.TID 0000.0001)   ADM  precision_derivative_grad =    1.66968371033963E-03
 ph-grd  ierr ---------------------------
 ph-grd  ierr =            0 , icomp =          226 , ichknum =            3
 ph-grd -->hit<--            1          32           4           1
(PID.TID 0000.0001) 
(PID.TID 0000.0001)  cal_TimeStamp: iter =          0 time =  0.00000000E+00
(PID.TID 0000.0001)                 date =   20070101           0
(PID.TID 0000.0001) 
(PID.TID 0000.0001) INI_CG2D: CG2D normalisation factor =  1.8974682031179044E-04
(PID.TID 0000.0001) 
(PID.TID 0000.0001) Start initial hydrostatic pressure computation
(PID.TID 0000.0001) Pressure is predetermined for buoyancyRelation OCEANIC
(PID.TID 0000.0001) 
(PID.TID 0000.0001) // =======================================================
(PID.TID 0000.0001) // Model current state
(PID.TID 0000.0001) // =======================================================
(PID.TID 0000.0001) 
(PID.TID 0000.0001) SOLVE_FOR_PRESSURE: putPmEinXvector =    F
 cg2d: Sum(rhs),rhsMax =  -7.87435592178023E+00  1.37697984471785E+00
 cg2d: Sum(rhs),rhsMax =  -1.01791081157115E+02  2.13040853307023E-01
 cg2d: Sum(rhs),rhsMax =  -1.59112718349194E+02  2.04436757292102E-01
 cg2d: Sum(rhs),rhsMax =  -2.24736325186440E+02  1.92987571286511E-01
 cg2d: Sum(rhs),rhsMax =  -3.00375267878126E+02  1.80488052012171E-01
 cg2d: Sum(rhs),rhsMax =  -3.89218675666168E+02  1.67147622747000E-01
 cg2d: Sum(rhs),rhsMax =  -4.84325145851083E+02  1.56712502769910E-01
 cg2d: Sum(rhs),rhsMax =  -5.75418766118785E+02  1.50746969446674E-01
 cg2d: Sum(rhs),rhsMax =  -6.63027529301984E+02  1.47181618012686E-01
 cg2d: Sum(rhs),rhsMax =  -7.39254264586090E+02  1.46672530871088E-01
 cg2d: Sum(rhs),rhsMax =  -7.95969983841294E+02  1.49843745065146E-01
 cg2d: Sum(rhs),rhsMax =  -8.35051515849086E+02  1.55815479959272E-01
 cg2d: Sum(rhs),rhsMax =  -8.63534784320807E+02  1.63232315230930E-01
 cg2d: Sum(rhs),rhsMax =  -8.90030916284274E+02  1.70555436608047E-01
 cg2d: Sum(rhs),rhsMax =  -9.21204164497928E+02  1.76554174616148E-01
 cg2d: Sum(rhs),rhsMax =  -9.60661826438036E+02  1.80589324501004E-01
 cg2d: Sum(rhs),rhsMax =  -1.01000606385539E+03  1.82501973306075E-01
 cg2d: Sum(rhs),rhsMax =  -1.06918980236835E+03  1.82540956401812E-01
(PID.TID 0000.0001) ph-cost call cost_theta0
(PID.TID 0000.0001) ph-cost call cost_theta
 --> f_temp    = 0.415498997156621D+01
 --> f_salt    = 0.000000000000000D+00
 --> f_temp0   = 0.000000000000000D+00
 --> f_salt0   = 0.000000000000000D+00
 --> f_temp0smoo = 0.000000000000000D+00
 --> f_salt0smoo = 0.000000000000000D+00
 --> f_etan0   = 0.000000000000000D+00
 --> f_uvel0   = 0.000000000000000D+00
 --> f_vvel0   = 0.000000000000000D+00
 --> f_sst     = 0.000000000000000D+00
 --> f_tmi     = 0.000000000000000D+00
 --> f_sss     = 0.000000000000000D+00
 --> f_bp      = 0.000000000000000D+00
 --> f_ssh       = 0.000000000000000D+00
 --> f_tp        = 0.000000000000000D+00
 --> f_ers       = 0.000000000000000D+00
 --> f_gfo       = 0.000000000000000D+00
 --> f_tauu    = 0.000000000000000D+00
 --> f_tauum   = 0.000000000000000D+00
 --> f_tauusmoo = 0.000000000000000D+00
 --> f_tauv    = 0.000000000000000D+00
 --> f_tauvm   = 0.000000000000000D+00
 --> f_tauvsmoo = 0.000000000000000D+00
 --> f_hflux   = 0.000000000000000D+00
 --> f_hfluxmm = 0.000000000000000D+00
 --> f_hfluxsmoo = 0.000000000000000D+00
 --> f_sflux   = 0.000000000000000D+00
 --> f_sfluxmm = 0.000000000000000D+00
 --> f_sfluxsmoo = 0.000000000000000D+00
 --> f_uwind     = 0.000000000000000D+00
 --> f_vwind     = 0.000000000000000D+00
 --> f_atemp     = 0.000000000000000D+00
 --> f_aqh     = 0.000000000000000D+00
 --> f_precip  = 0.000000000000000D+00
 --> f_swflux  = 0.000000000000000D+00
 --> f_swdown  = 0.000000000000000D+00
 --> f_uwindm     = 0.000000000000000D+00
 --> f_vwindm     = 0.000000000000000D+00
 --> f_atempm     = 0.000000000000000D+00
 --> f_aqhm     = 0.000000000000000D+00
 --> f_precipm  = 0.000000000000000D+00
 --> f_swfluxm  = 0.000000000000000D+00
 --> f_swdownm  = 0.000000000000000D+00
 --> f_uwindsmoo     = 0.000000000000000D+00
 --> f_vwindsmoo     = 0.000000000000000D+00
 --> f_atempsmoo     = 0.000000000000000D+00
 --> f_aqhsmoo     = 0.000000000000000D+00
 --> f_precipsmoo  = 0.000000000000000D+00
 --> f_swfluxsmoo  = 0.000000000000000D+00
 --> f_swdownsmoo  = 0.000000000000000D+00
 --> f_atl     = 0.000000000000000D+00
 --> f_ctdt    = 0.000000000000000D+00
 --> f_ctds    = 0.000000000000000D+00
 --> f_ctdtclim= 0.000000000000000D+00
 --> f_ctdsclim= 0.000000000000000D+00
 --> f_xbt     = 0.000000000000000D+00
 --> f_argot   = 0.000000000000000D+00
 --> f_argos   = 0.000000000000000D+00
 --> f_drifter   = 0.000000000000000D+00
 --> f_tdrift  = 0.000000000000000D+00
 --> f_sdrift  = 0.000000000000000D+00
 --> f_wdrift  = 0.000000000000000D+00
 --> f_scatx   = 0.000000000000000D+00
 --> f_scaty   = 0.000000000000000D+00
 --> f_scatxm  = 0.000000000000000D+00
 --> f_scatym  = 0.000000000000000D+00
 --> f_obcsn   = 0.000000000000000D+00
 --> f_obcss   = 0.000000000000000D+00
 --> f_obcsw   = 0.400000000000000D-07
 --> f_obcse   = 0.000000000000000D+00
 --> f_ageos   = 0.000000000000000D+00
 --> f_curmtr  = 0.000000000000000D+00
 --> f_kapgm   = 0.000000000000000D+00
 --> f_kapredi   = 0.000000000000000D+00
 --> f_diffkr  = 0.000000000000000D+00
 --> f_eddytau = 0.000000000000000D+00
 --> f_bottomdrag = 0.000000000000000D+00
 --> f_hfluxmm2           = 0.000000000000000D+00
 --> f_sfluxmm2           = 0.000000000000000D+00
 --> f_transp             = 0.000000000000000D+00
 --> objf_hmean           = 0.000000000000000D+00
 --> fc               = 0.415499001156621D+01
 ph-check fcpertplus =    4.1549900115662082     
 ph-check fcpertminus =    4.1549887924552333     
(PID.TID 0000.0001) 
(PID.TID 0000.0001)  cal_TimeStamp: iter =          0 time =  0.00000000E+00
(PID.TID 0000.0001)                 date =   20070101           0
(PID.TID 0000.0001) 
(PID.TID 0000.0001) INI_CG2D: CG2D normalisation factor =  1.8974682031179044E-04
(PID.TID 0000.0001) 
(PID.TID 0000.0001) Start initial hydrostatic pressure computation
(PID.TID 0000.0001) Pressure is predetermined for buoyancyRelation OCEANIC
(PID.TID 0000.0001) 
(PID.TID 0000.0001) // =======================================================
(PID.TID 0000.0001) // Model current state
(PID.TID 0000.0001) // =======================================================
(PID.TID 0000.0001) 
(PID.TID 0000.0001) SOLVE_FOR_PRESSURE: putPmEinXvector =    F
 cg2d: Sum(rhs),rhsMax =  -7.87435592178023E+00  1.37697984471785E+00
 cg2d: Sum(rhs),rhsMax =  -1.01791081157115E+02  2.13040853307023E-01
 cg2d: Sum(rhs),rhsMax =  -1.59112718348832E+02  2.04436757292567E-01
 cg2d: Sum(rhs),rhsMax =  -2.24736325183189E+02  1.92987571289303E-01
 cg2d: Sum(rhs),rhsMax =  -3.00375267863467E+02  1.80488052020979E-01
 cg2d: Sum(rhs),rhsMax =  -3.89218675621020E+02  1.67147622766389E-01
 cg2d: Sum(rhs),rhsMax =  -4.84325145749710E+02  1.56712502802711E-01
 cg2d: Sum(rhs),rhsMax =  -5.75418765943050E+02  1.50746969492713E-01
 cg2d: Sum(rhs),rhsMax =  -6.63027529039101E+02  1.47181618071042E-01
 cg2d: Sum(rhs),rhsMax =  -7.39254264229180E+02  1.46672530941901E-01
 cg2d: Sum(rhs),rhsMax =  -7.95969983408659E+02  1.49843745146590E-01
 cg2d: Sum(rhs),rhsMax =  -8.35051515369435E+02  1.55815480048772E-01
 cg2d: Sum(rhs),rhsMax =  -8.63534783809140E+02  1.63232315327650E-01
 cg2d: Sum(rhs),rhsMax =  -8.90030915746074E+02  1.70555436711182E-01
 cg2d: Sum(rhs),rhsMax =  -9.21204163925738E+02  1.76554174725813E-01
 cg2d: Sum(rhs),rhsMax =  -9.60661825826081E+02  1.80589324616043E-01
 cg2d: Sum(rhs),rhsMax =  -1.01000606319169E+03  1.82501973426002E-01
 cg2d: Sum(rhs),rhsMax =  -1.06918980163721E+03  1.82540956526639E-01
(PID.TID 0000.0001) ph-cost call cost_theta0
(PID.TID 0000.0001) ph-cost call cost_theta
 --> f_temp    = 0.415498963762819D+01
 --> f_salt    = 0.000000000000000D+00
 --> f_temp0   = 0.000000000000000D+00
 --> f_salt0   = 0.000000000000000D+00
 --> f_temp0smoo = 0.000000000000000D+00
 --> f_salt0smoo = 0.000000000000000D+00
 --> f_etan0   = 0.000000000000000D+00
 --> f_uvel0   = 0.000000000000000D+00
 --> f_vvel0   = 0.000000000000000D+00
 --> f_sst     = 0.000000000000000D+00
 --> f_tmi     = 0.000000000000000D+00
 --> f_sss     = 0.000000000000000D+00
 --> f_bp      = 0.000000000000000D+00
 --> f_ssh       = 0.000000000000000D+00
 --> f_tp        = 0.000000000000000D+00
 --> f_ers       = 0.000000000000000D+00
 --> f_gfo       = 0.000000000000000D+00
 --> f_tauu    = 0.000000000000000D+00
 --> f_tauum   = 0.000000000000000D+00
 --> f_tauusmoo = 0.000000000000000D+00
 --> f_tauv    = 0.000000000000000D+00
 --> f_tauvm   = 0.000000000000000D+00
 --> f_tauvsmoo = 0.000000000000000D+00
 --> f_hflux   = 0.000000000000000D+00
 --> f_hfluxmm = 0.000000000000000D+00
 --> f_hfluxsmoo = 0.000000000000000D+00
 --> f_sflux   = 0.000000000000000D+00
 --> f_sfluxmm = 0.000000000000000D+00
 --> f_sfluxsmoo = 0.000000000000000D+00
 --> f_uwind     = 0.000000000000000D+00
 --> f_vwind     = 0.000000000000000D+00
 --> f_atemp     = 0.000000000000000D+00
 --> f_aqh     = 0.000000000000000D+00
 --> f_precip  = 0.000000000000000D+00
 --> f_swflux  = 0.000000000000000D+00
 --> f_swdown  = 0.000000000000000D+00
 --> f_uwindm     = 0.000000000000000D+00
 --> f_vwindm     = 0.000000000000000D+00
 --> f_atempm     = 0.000000000000000D+00
 --> f_aqhm     = 0.000000000000000D+00
 --> f_precipm  = 0.000000000000000D+00
 --> f_swfluxm  = 0.000000000000000D+00
 --> f_swdownm  = 0.000000000000000D+00
 --> f_uwindsmoo     = 0.000000000000000D+00
 --> f_vwindsmoo     = 0.000000000000000D+00
 --> f_atempsmoo     = 0.000000000000000D+00
 --> f_aqhsmoo     = 0.000000000000000D+00
 --> f_precipsmoo  = 0.000000000000000D+00
 --> f_swfluxsmoo  = 0.000000000000000D+00
 --> f_swdownsmoo  = 0.000000000000000D+00
 --> f_atl     = 0.000000000000000D+00
 --> f_ctdt    = 0.000000000000000D+00
 --> f_ctds    = 0.000000000000000D+00
 --> f_ctdtclim= 0.000000000000000D+00
 --> f_ctdsclim= 0.000000000000000D+00
 --> f_xbt     = 0.000000000000000D+00
 --> f_argot   = 0.000000000000000D+00
 --> f_argos   = 0.000000000000000D+00
 --> f_drifter   = 0.000000000000000D+00
 --> f_tdrift  = 0.000000000000000D+00
 --> f_sdrift  = 0.000000000000000D+00
 --> f_wdrift  = 0.000000000000000D+00
 --> f_scatx   = 0.000000000000000D+00
 --> f_scaty   = 0.000000000000000D+00
 --> f_scatxm  = 0.000000000000000D+00
 --> f_scatym  = 0.000000000000000D+00
 --> f_obcsn   = 0.000000000000000D+00
 --> f_obcss   = 0.000000000000000D+00
 --> f_obcsw   = 0.400000000000000D-07
 --> f_obcse   = 0.000000000000000D+00
 --> f_ageos   = 0.000000000000000D+00
 --> f_curmtr  = 0.000000000000000D+00
 --> f_kapgm   = 0.000000000000000D+00
 --> f_kapredi   = 0.000000000000000D+00
 --> f_diffkr  = 0.000000000000000D+00
 --> f_eddytau = 0.000000000000000D+00
 --> f_bottomdrag = 0.000000000000000D+00
 --> f_hfluxmm2           = 0.000000000000000D+00
 --> f_sfluxmm2           = 0.000000000000000D+00
 --> f_transp             = 0.000000000000000D+00
 --> objf_hmean           = 0.000000000000000D+00
 --> fc               = 0.415498967762819D+01
grad-res -------------------------------
 grad-res     0    4    1   32    4    1    1    1   0.415498879246E+01 0.415499001157E+01 0.415498967763E+01
 grad-res     0    4    4  227  256    1    1    1   0.166968371034E-02 0.166969009729E-02 -.382524839582E-05
(PID.TID 0000.0001)   ADM  precision_derivative_cost =    4.15498879245523E+00
(PID.TID 0000.0001)   ADM  precision_derivative_grad =    1.66968371033963E-03
 ph-grd  ierr ---------------------------
 ph-grd  ierr =            0 , icomp =          227 , ichknum =            4
 ph-grd -->hit<--            1          32           4           1
(PID.TID 0000.0001) 
(PID.TID 0000.0001)  cal_TimeStamp: iter =          0 time =  0.00000000E+00
(PID.TID 0000.0001)                 date =   20070101           0
(PID.TID 0000.0001) 
(PID.TID 0000.0001) INI_CG2D: CG2D normalisation factor =  1.8974682031179044E-04
(PID.TID 0000.0001) 
(PID.TID 0000.0001) Start initial hydrostatic pressure computation
(PID.TID 0000.0001) Pressure is predetermined for buoyancyRelation OCEANIC
(PID.TID 0000.0001) 
(PID.TID 0000.0001) // =======================================================
(PID.TID 0000.0001) // Model current state
(PID.TID 0000.0001) // =======================================================
(PID.TID 0000.0001) 
(PID.TID 0000.0001) SOLVE_FOR_PRESSURE: putPmEinXvector =    F
 cg2d: Sum(rhs),rhsMax =  -7.87435592178023E+00  1.37697984471785E+00
 cg2d: Sum(rhs),rhsMax =  -1.01791081157115E+02  2.13040853307023E-01
 cg2d: Sum(rhs),rhsMax =  -1.59112718349194E+02  2.04436757292102E-01
 cg2d: Sum(rhs),rhsMax =  -2.24736325186440E+02  1.92987571286511E-01
 cg2d: Sum(rhs),rhsMax =  -3.00375267878126E+02  1.80488052012171E-01
 cg2d: Sum(rhs),rhsMax =  -3.89218675666168E+02  1.67147622747000E-01
 cg2d: Sum(rhs),rhsMax =  -4.84325145851083E+02  1.56712502769910E-01
 cg2d: Sum(rhs),rhsMax =  -5.75418766118785E+02  1.50746969446674E-01
 cg2d: Sum(rhs),rhsMax =  -6.63027529301984E+02  1.47181618012686E-01
 cg2d: Sum(rhs),rhsMax =  -7.39254264586090E+02  1.46672530871088E-01
 cg2d: Sum(rhs),rhsMax =  -7.95969983841294E+02  1.49843745065146E-01
 cg2d: Sum(rhs),rhsMax =  -8.35051515849086E+02  1.55815479959272E-01
 cg2d: Sum(rhs),rhsMax =  -8.63534784320807E+02  1.63232315230930E-01
 cg2d: Sum(rhs),rhsMax =  -8.90030916284274E+02  1.70555436608047E-01
 cg2d: Sum(rhs),rhsMax =  -9.21204164497928E+02  1.76554174616148E-01
 cg2d: Sum(rhs),rhsMax =  -9.60661826438036E+02  1.80589324501004E-01
 cg2d: Sum(rhs),rhsMax =  -1.01000606385539E+03  1.82501973306075E-01
 cg2d: Sum(rhs),rhsMax =  -1.06918980236835E+03  1.82540956401812E-01
(PID.TID 0000.0001) ph-cost call cost_theta0
(PID.TID 0000.0001) ph-cost call cost_theta
 --> f_temp    = 0.415498997156621D+01
 --> f_salt    = 0.000000000000000D+00
 --> f_temp0   = 0.000000000000000D+00
 --> f_salt0   = 0.000000000000000D+00
 --> f_temp0smoo = 0.000000000000000D+00
 --> f_salt0smoo = 0.000000000000000D+00
 --> f_etan0   = 0.000000000000000D+00
 --> f_uvel0   = 0.000000000000000D+00
 --> f_vvel0   = 0.000000000000000D+00
 --> f_sst     = 0.000000000000000D+00
 --> f_tmi     = 0.000000000000000D+00
 --> f_sss     = 0.000000000000000D+00
 --> f_bp      = 0.000000000000000D+00
 --> f_ssh       = 0.000000000000000D+00
 --> f_tp        = 0.000000000000000D+00
 --> f_ers       = 0.000000000000000D+00
 --> f_gfo       = 0.000000000000000D+00
 --> f_tauu    = 0.000000000000000D+00
 --> f_tauum   = 0.000000000000000D+00
 --> f_tauusmoo = 0.000000000000000D+00
 --> f_tauv    = 0.000000000000000D+00
 --> f_tauvm   = 0.000000000000000D+00
 --> f_tauvsmoo = 0.000000000000000D+00
 --> f_hflux   = 0.000000000000000D+00
 --> f_hfluxmm = 0.000000000000000D+00
 --> f_hfluxsmoo = 0.000000000000000D+00
 --> f_sflux   = 0.000000000000000D+00
 --> f_sfluxmm = 0.000000000000000D+00
 --> f_sfluxsmoo = 0.000000000000000D+00
 --> f_uwind     = 0.000000000000000D+00
 --> f_vwind     = 0.000000000000000D+00
 --> f_atemp     = 0.000000000000000D+00
 --> f_aqh     = 0.000000000000000D+00
 --> f_precip  = 0.000000000000000D+00
 --> f_swflux  = 0.000000000000000D+00
 --> f_swdown  = 0.000000000000000D+00
 --> f_uwindm     = 0.000000000000000D+00
 --> f_vwindm     = 0.000000000000000D+00
 --> f_atempm     = 0.000000000000000D+00
 --> f_aqhm     = 0.000000000000000D+00
 --> f_precipm  = 0.000000000000000D+00
 --> f_swfluxm  = 0.000000000000000D+00
 --> f_swdownm  = 0.000000000000000D+00
 --> f_uwindsmoo     = 0.000000000000000D+00
 --> f_vwindsmoo     = 0.000000000000000D+00
 --> f_atempsmoo     = 0.000000000000000D+00
 --> f_aqhsmoo     = 0.000000000000000D+00
 --> f_precipsmoo  = 0.000000000000000D+00
 --> f_swfluxsmoo  = 0.000000000000000D+00
 --> f_swdownsmoo  = 0.000000000000000D+00
 --> f_atl     = 0.000000000000000D+00
 --> f_ctdt    = 0.000000000000000D+00
 --> f_ctds    = 0.000000000000000D+00
 --> f_ctdtclim= 0.000000000000000D+00
 --> f_ctdsclim= 0.000000000000000D+00
 --> f_xbt     = 0.000000000000000D+00
 --> f_argot   = 0.000000000000000D+00
 --> f_argos   = 0.000000000000000D+00
 --> f_drifter   = 0.000000000000000D+00
 --> f_tdrift  = 0.000000000000000D+00
 --> f_sdrift  = 0.000000000000000D+00
 --> f_wdrift  = 0.000000000000000D+00
 --> f_scatx   = 0.000000000000000D+00
 --> f_scaty   = 0.000000000000000D+00
 --> f_scatxm  = 0.000000000000000D+00
 --> f_scatym  = 0.000000000000000D+00
 --> f_obcsn   = 0.000000000000000D+00
 --> f_obcss   = 0.000000000000000D+00
 --> f_obcsw   = 0.400000000000000D-07
 --> f_obcse   = 0.000000000000000D+00
 --> f_ageos   = 0.000000000000000D+00
 --> f_curmtr  = 0.000000000000000D+00
 --> f_kapgm   = 0.000000000000000D+00
 --> f_kapredi   = 0.000000000000000D+00
 --> f_diffkr  = 0.000000000000000D+00
 --> f_eddytau = 0.000000000000000D+00
 --> f_bottomdrag = 0.000000000000000D+00
 --> f_hfluxmm2           = 0.000000000000000D+00
 --> f_sfluxmm2           = 0.000000000000000D+00
 --> f_transp             = 0.000000000000000D+00
 --> objf_hmean           = 0.000000000000000D+00
 --> fc               = 0.415499001156621D+01
 ph-check fcpertplus =    4.1549900115662082     
 ph-check fcpertminus =    4.1549887924552333     
(PID.TID 0000.0001) 
(PID.TID 0000.0001)  cal_TimeStamp: iter =          0 time =  0.00000000E+00
(PID.TID 0000.0001)                 date =   20070101           0
(PID.TID 0000.0001) 
(PID.TID 0000.0001) INI_CG2D: CG2D normalisation factor =  1.8974682031179044E-04
(PID.TID 0000.0001) 
(PID.TID 0000.0001) Start initial hydrostatic pressure computation
(PID.TID 0000.0001) Pressure is predetermined for buoyancyRelation OCEANIC
(PID.TID 0000.0001) 
(PID.TID 0000.0001) // =======================================================
(PID.TID 0000.0001) // Model current state
(PID.TID 0000.0001) // =======================================================
(PID.TID 0000.0001) 
(PID.TID 0000.0001) SOLVE_FOR_PRESSURE: putPmEinXvector =    F
 cg2d: Sum(rhs),rhsMax =  -7.87435592178023E+00  1.37697984471785E+00
 cg2d: Sum(rhs),rhsMax =  -1.01791081157115E+02  2.13040853307023E-01
 cg2d: Sum(rhs),rhsMax =  -1.59112718348832E+02  2.04436757292567E-01
 cg2d: Sum(rhs),rhsMax =  -2.24736325183189E+02  1.92987571289303E-01
 cg2d: Sum(rhs),rhsMax =  -3.00375267863467E+02  1.80488052020979E-01
 cg2d: Sum(rhs),rhsMax =  -3.89218675621020E+02  1.67147622766389E-01
 cg2d: Sum(rhs),rhsMax =  -4.84325145749710E+02  1.56712502802711E-01
 cg2d: Sum(rhs),rhsMax =  -5.75418765943050E+02  1.50746969492713E-01
 cg2d: Sum(rhs),rhsMax =  -6.63027529039101E+02  1.47181618071042E-01
 cg2d: Sum(rhs),rhsMax =  -7.39254264229180E+02  1.46672530941901E-01
 cg2d: Sum(rhs),rhsMax =  -7.95969983408659E+02  1.49843745146590E-01
 cg2d: Sum(rhs),rhsMax =  -8.35051515369435E+02  1.55815480048772E-01
 cg2d: Sum(rhs),rhsMax =  -8.63534783809140E+02  1.63232315327650E-01
 cg2d: Sum(rhs),rhsMax =  -8.90030915746074E+02  1.70555436711182E-01
 cg2d: Sum(rhs),rhsMax =  -9.21204163925738E+02  1.76554174725813E-01
 cg2d: Sum(rhs),rhsMax =  -9.60661825826081E+02  1.80589324616043E-01
 cg2d: Sum(rhs),rhsMax =  -1.01000606319169E+03  1.82501973426002E-01
 cg2d: Sum(rhs),rhsMax =  -1.06918980163721E+03  1.82540956526639E-01
(PID.TID 0000.0001) ph-cost call cost_theta0
(PID.TID 0000.0001) ph-cost call cost_theta
 --> f_temp    = 0.415498963762819D+01
 --> f_salt    = 0.000000000000000D+00
 --> f_temp0   = 0.000000000000000D+00
 --> f_salt0   = 0.000000000000000D+00
 --> f_temp0smoo = 0.000000000000000D+00
 --> f_salt0smoo = 0.000000000000000D+00
 --> f_etan0   = 0.000000000000000D+00
 --> f_uvel0   = 0.000000000000000D+00
 --> f_vvel0   = 0.000000000000000D+00
 --> f_sst     = 0.000000000000000D+00
 --> f_tmi     = 0.000000000000000D+00
 --> f_sss     = 0.000000000000000D+00
 --> f_bp      = 0.000000000000000D+00
 --> f_ssh       = 0.000000000000000D+00
 --> f_tp        = 0.000000000000000D+00
 --> f_ers       = 0.000000000000000D+00
 --> f_gfo       = 0.000000000000000D+00
 --> f_tauu    = 0.000000000000000D+00
 --> f_tauum   = 0.000000000000000D+00
 --> f_tauusmoo = 0.000000000000000D+00
 --> f_tauv    = 0.000000000000000D+00
 --> f_tauvm   = 0.000000000000000D+00
 --> f_tauvsmoo = 0.000000000000000D+00
 --> f_hflux   = 0.000000000000000D+00
 --> f_hfluxmm = 0.000000000000000D+00
 --> f_hfluxsmoo = 0.000000000000000D+00
 --> f_sflux   = 0.000000000000000D+00
 --> f_sfluxmm = 0.000000000000000D+00
 --> f_sfluxsmoo = 0.000000000000000D+00
 --> f_uwind     = 0.000000000000000D+00
 --> f_vwind     = 0.000000000000000D+00
 --> f_atemp     = 0.000000000000000D+00
 --> f_aqh     = 0.000000000000000D+00
 --> f_precip  = 0.000000000000000D+00
 --> f_swflux  = 0.000000000000000D+00
 --> f_swdown  = 0.000000000000000D+00
 --> f_uwindm     = 0.000000000000000D+00
 --> f_vwindm     = 0.000000000000000D+00
 --> f_atempm     = 0.000000000000000D+00
 --> f_aqhm     = 0.000000000000000D+00
 --> f_precipm  = 0.000000000000000D+00
 --> f_swfluxm  = 0.000000000000000D+00
 --> f_swdownm  = 0.000000000000000D+00
 --> f_uwindsmoo     = 0.000000000000000D+00
 --> f_vwindsmoo     = 0.000000000000000D+00
 --> f_atempsmoo     = 0.000000000000000D+00
 --> f_aqhsmoo     = 0.000000000000000D+00
 --> f_precipsmoo  = 0.000000000000000D+00
 --> f_swfluxsmoo  = 0.000000000000000D+00
 --> f_swdownsmoo  = 0.000000000000000D+00
 --> f_atl     = 0.000000000000000D+00
 --> f_ctdt    = 0.000000000000000D+00
 --> f_ctds    = 0.000000000000000D+00
 --> f_ctdtclim= 0.000000000000000D+00
 --> f_ctdsclim= 0.000000000000000D+00
 --> f_xbt     = 0.000000000000000D+00
 --> f_argot   = 0.000000000000000D+00
 --> f_argos   = 0.000000000000000D+00
 --> f_drifter   = 0.000000000000000D+00
 --> f_tdrift  = 0.000000000000000D+00
 --> f_sdrift  = 0.000000000000000D+00
 --> f_wdrift  = 0.000000000000000D+00
 --> f_scatx   = 0.000000000000000D+00
 --> f_scaty   = 0.000000000000000D+00
 --> f_scatxm  = 0.000000000000000D+00
 --> f_scatym  = 0.000000000000000D+00
 --> f_obcsn   = 0.000000000000000D+00
 --> f_obcss   = 0.000000000000000D+00
 --> f_obcsw   = 0.400000000000000D-07
 --> f_obcse   = 0.000000000000000D+00
 --> f_ageos   = 0.000000000000000D+00
 --> f_curmtr  = 0.000000000000000D+00
 --> f_kapgm   = 0.000000000000000D+00
 --> f_kapredi   = 0.000000000000000D+00
 --> f_diffkr  = 0.000000000000000D+00
 --> f_eddytau = 0.000000000000000D+00
 --> f_bottomdrag = 0.000000000000000D+00
 --> f_hfluxmm2           = 0.000000000000000D+00
 --> f_sfluxmm2           = 0.000000000000000D+00
 --> f_transp             = 0.000000000000000D+00
 --> objf_hmean           = 0.000000000000000D+00
 --> fc               = 0.415498967762819D+01
grad-res -------------------------------
 grad-res     0    5    1   32    4    1    1    1   0.415498879246E+01 0.415499001157E+01 0.415498967763E+01
 grad-res     0    5    5  228  256    1    1    1   0.166968371034E-02 0.166969009729E-02 -.382524839582E-05
(PID.TID 0000.0001)   ADM  precision_derivative_cost =    4.15498879245523E+00
(PID.TID 0000.0001)   ADM  precision_derivative_grad =    1.66968371033963E-03
 ph-grd  ierr ---------------------------
 ph-grd  ierr =            0 , icomp =          228 , ichknum =            5
(PID.TID 0000.0001) 
(PID.TID 0000.0001) // =======================================================
(PID.TID 0000.0001) // Gradient check results  >>> START <<<
(PID.TID 0000.0001) // =======================================================
(PID.TID 0000.0001) 
(PID.TID 0000.0001)  EPS =   1.000000E-04
(PID.TID 0000.0001) 
(PID.TID 0000.0001) grdchk output h.p:  Id  Itile Jtile LAYER   X(Id)            X(Id)+/-EPS
(PID.TID 0000.0001) grdchk output h.c:  Id  FC                   FC1                  FC2
(PID.TID 0000.0001) grdchk output h.g:  Id     FC1-FC2/(2*EPS)      ADJ GRAD(FC)         1-FDGRD/ADGRD
(PID.TID 0000.0001) 
(PID.TID 0000.0001) grdchk output (p):   1     1    32     4    0.000000000E+00 -1.000000000E-04
(PID.TID 0000.0001) grdchk output (c):   1  4.1549887924552E+00  4.1549900115662E+00  4.1549896776282E+00
(PID.TID 0000.0001) grdchk output (g):   1     1.6696900972946E-03  1.6696837103396E-03 -3.8252483958168E-06
(PID.TID 0000.0001) 
(PID.TID 0000.0001) grdchk output (p):   2     1    32     4    0.000000000E+00 -1.000000000E-04
(PID.TID 0000.0001) grdchk output (c):   2  4.1549887924552E+00  4.1549900115662E+00  4.1549896776282E+00
(PID.TID 0000.0001) grdchk output (g):   2     1.6696900972946E-03  1.6696837103396E-03 -3.8252483958168E-06
(PID.TID 0000.0001) 
(PID.TID 0000.0001) grdchk output (p):   3     1    32     4    0.000000000E+00 -1.000000000E-04
(PID.TID 0000.0001) grdchk output (c):   3  4.1549887924552E+00  4.1549900115662E+00  4.1549896776282E+00
(PID.TID 0000.0001) grdchk output (g):   3     1.6696900972946E-03  1.6696837103396E-03 -3.8252483958168E-06
(PID.TID 0000.0001) 
(PID.TID 0000.0001) grdchk output (p):   4     1    32     4    0.000000000E+00 -1.000000000E-04
(PID.TID 0000.0001) grdchk output (c):   4  4.1549887924552E+00  4.1549900115662E+00  4.1549896776282E+00
(PID.TID 0000.0001) grdchk output (g):   4     1.6696900972946E-03  1.6696837103396E-03 -3.8252483958168E-06
(PID.TID 0000.0001) 
(PID.TID 0000.0001) grdchk output (p):   5     1    32     4    0.000000000E+00 -1.000000000E-04
(PID.TID 0000.0001) grdchk output (c):   5  4.1549887924552E+00  4.1549900115662E+00  4.1549896776282E+00
(PID.TID 0000.0001) grdchk output (g):   5     1.6696900972946E-03  1.6696837103396E-03 -3.8252483958168E-06
(PID.TID 0000.0001) 
(PID.TID 0000.0001) // =======================================================
(PID.TID 0000.0001) // Gradient check results  >>> END <<<
(PID.TID 0000.0001) // =======================================================
(PID.TID 0000.0001) 
(PID.TID 0000.0001)   Seconds in section "ALL                    [THE_MODEL_MAIN]":
(PID.TID 0000.0001)           User time:   121.66000000000000
(PID.TID 0000.0001)         System time:  0.19000000000000000
(PID.TID 0000.0001)     Wall clock time:   122.52334618568420
(PID.TID 0000.0001)          No. starts:           1
(PID.TID 0000.0001)           No. stops:           1
(PID.TID 0000.0001)   Seconds in section "INITIALISE_FIXED       [THE_MODEL_MAIN]":
(PID.TID 0000.0001)           User time:  0.14999999999999999
(PID.TID 0000.0001)         System time:  2.99999999999999989E-002
(PID.TID 0000.0001)     Wall clock time:  0.33352303504943848
(PID.TID 0000.0001)          No. starts:           1
(PID.TID 0000.0001)           No. stops:           1
(PID.TID 0000.0001)   Seconds in section "ADTHE_MAIN_LOOP          [ADJOINT RUN]":
(PID.TID 0000.0001)           User time:   40.480000000000004
(PID.TID 0000.0001)         System time:  0.13000000000000000
(PID.TID 0000.0001)     Wall clock time:   40.918100833892822
(PID.TID 0000.0001)          No. starts:           1
(PID.TID 0000.0001)           No. stops:           1
(PID.TID 0000.0001)   Seconds in section "EXF_GETFORCING     [LOAD_FLDS_DRIVER]":
(PID.TID 0000.0001)           User time:  0.37000000000000455
(PID.TID 0000.0001)         System time:   0.0000000000000000
(PID.TID 0000.0001)     Wall clock time:  0.43439102172851563
(PID.TID 0000.0001)          No. starts:         234
(PID.TID 0000.0001)           No. stops:         234
(PID.TID 0000.0001)   Seconds in section "I/O (WRITE)        [ADJOINT LOOP]":
(PID.TID 0000.0001)           User time:   0.0000000000000000
(PID.TID 0000.0001)         System time:   0.0000000000000000
(PID.TID 0000.0001)     Wall clock time:  1.01256370544433594E-002
(PID.TID 0000.0001)          No. starts:        1134
(PID.TID 0000.0001)           No. stops:        1134
(PID.TID 0000.0001)   Seconds in section "CTRL_PACK           [THE_MODEL_MAIN]":
(PID.TID 0000.0001)           User time:  1.99999999999960210E-002
(PID.TID 0000.0001)         System time:   0.0000000000000000
(PID.TID 0000.0001)     Wall clock time:  2.96659469604492188E-002
(PID.TID 0000.0001)          No. starts:           1
(PID.TID 0000.0001)           No. stops:           1
(PID.TID 0000.0001)   Seconds in section "CTRL_PACK     [THE_MODEL_MAIN]":
(PID.TID 0000.0001)           User time:  2.00000000000031264E-002
(PID.TID 0000.0001)         System time:   0.0000000000000000
(PID.TID 0000.0001)     Wall clock time:  1.63230895996093750E-002
(PID.TID 0000.0001)          No. starts:           1
(PID.TID 0000.0001)           No. stops:           1
(PID.TID 0000.0001)   Seconds in section "GRDCHK_MAIN         [THE_MODEL_MAIN]":
(PID.TID 0000.0001)           User time:   80.989999999999995
(PID.TID 0000.0001)         System time:  2.99999999999999989E-002
(PID.TID 0000.0001)     Wall clock time:   81.225639820098877
(PID.TID 0000.0001)          No. starts:           1
(PID.TID 0000.0001)           No. stops:           1
(PID.TID 0000.0001)   Seconds in section "ECCO SPIN-UP":
(PID.TID 0000.0001)           User time:  0.54999999999999716
(PID.TID 0000.0001)         System time:  1.99999999999999900E-002
(PID.TID 0000.0001)     Wall clock time:  0.56204509735107422
(PID.TID 0000.0001)          No. starts:          10
(PID.TID 0000.0001)           No. stops:          10
(PID.TID 0000.0001)   Seconds in section "INITIALISE_VARIA    [THE_MAIN_LOOP]":
(PID.TID 0000.0001)           User time:  0.54999999999999716
(PID.TID 0000.0001)         System time:  1.99999999999999900E-002
(PID.TID 0000.0001)     Wall clock time:  0.56150817871093750
(PID.TID 0000.0001)          No. starts:          10
(PID.TID 0000.0001)           No. stops:          10
(PID.TID 0000.0001)   Seconds in section "ECCO MAIN LOOP":
(PID.TID 0000.0001)           User time:   80.080000000000055
(PID.TID 0000.0001)         System time:  1.00000000000000089E-002
(PID.TID 0000.0001)     Wall clock time:   80.288024902343750
(PID.TID 0000.0001)          No. starts:          10
(PID.TID 0000.0001)           No. stops:          10
(PID.TID 0000.0001)   Seconds in section "COST_AVERAGESFIELDS   [ECCO MAIN]":
(PID.TID 0000.0001)           User time:  0.73000000000004661
(PID.TID 0000.0001)         System time:   0.0000000000000000
(PID.TID 0000.0001)     Wall clock time:  0.78529644012451172
(PID.TID 0000.0001)          No. starts:         180
(PID.TID 0000.0001)           No. stops:         180
(PID.TID 0000.0001)   Seconds in section "LOAD_FIELDS_DRIVER  [FORWARD_STEP]":
(PID.TID 0000.0001)           User time:  0.28999999999999204
(PID.TID 0000.0001)         System time:   0.0000000000000000
(PID.TID 0000.0001)     Wall clock time:  0.33697199821472168
(PID.TID 0000.0001)          No. starts:         180
(PID.TID 0000.0001)           No. stops:         180
(PID.TID 0000.0001)   Seconds in section "DO_ATMOSPHERIC_PHYS [FORWARD_STEP]":
(PID.TID 0000.0001)           User time:   0.0000000000000000
(PID.TID 0000.0001)         System time:   0.0000000000000000
(PID.TID 0000.0001)     Wall clock time:  1.65367126464843750E-003
(PID.TID 0000.0001)          No. starts:         180
(PID.TID 0000.0001)           No. stops:         180
(PID.TID 0000.0001)   Seconds in section "DO_OCEANIC_PHYS     [FORWARD_STEP]":
(PID.TID 0000.0001)           User time:  0.92999999999993577
(PID.TID 0000.0001)         System time:   0.0000000000000000
(PID.TID 0000.0001)     Wall clock time:  0.82489037513732910
(PID.TID 0000.0001)          No. starts:         180
(PID.TID 0000.0001)           No. stops:         180
(PID.TID 0000.0001)   Seconds in section "DYNAMICS            [FORWARD_STEP]":
(PID.TID 0000.0001)           User time:   23.010000000000062
(PID.TID 0000.0001)         System time:   0.0000000000000000
(PID.TID 0000.0001)     Wall clock time:   23.137174367904663
(PID.TID 0000.0001)          No. starts:         180
(PID.TID 0000.0001)           No. stops:         180
(PID.TID 0000.0001)   Seconds in section "SOLVE_FOR_PRESSURE  [FORWARD_STEP]":
(PID.TID 0000.0001)           User time:   34.490000000000194
(PID.TID 0000.0001)         System time:   0.0000000000000000
(PID.TID 0000.0001)     Wall clock time:   34.562946557998657
(PID.TID 0000.0001)          No. starts:         180
(PID.TID 0000.0001)           No. stops:         180
(PID.TID 0000.0001)   Seconds in section "UV_CORRECTION_STEP  [FORWARD_STEP]":
(PID.TID 0000.0001)           User time:   2.0399999999999636
(PID.TID 0000.0001)         System time:   0.0000000000000000
(PID.TID 0000.0001)     Wall clock time:   2.0749506950378418
(PID.TID 0000.0001)          No. starts:         180
(PID.TID 0000.0001)           No. stops:         180
(PID.TID 0000.0001)   Seconds in section "BLOCKING_EXCHANGES  [FORWARD_STEP]":
(PID.TID 0000.0001)           User time:  0.29999999999999716
(PID.TID 0000.0001)         System time:   0.0000000000000000
(PID.TID 0000.0001)     Wall clock time:  0.18970203399658203
(PID.TID 0000.0001)          No. starts:         360
(PID.TID 0000.0001)           No. stops:         360
(PID.TID 0000.0001)   Seconds in section "THERMODYNAMICS      [FORWARD_STEP]":
(PID.TID 0000.0001)           User time:   16.819999999999993
(PID.TID 0000.0001)         System time:   0.0000000000000000
(PID.TID 0000.0001)     Wall clock time:   16.877463340759277
(PID.TID 0000.0001)          No. starts:         180
(PID.TID 0000.0001)           No. stops:         180
(PID.TID 0000.0001)   Seconds in section "TS_CORRECTION_STEP  [FORWARD_STEP]":
(PID.TID 0000.0001)           User time:  0.29999999999998295
(PID.TID 0000.0001)         System time:   0.0000000000000000
(PID.TID 0000.0001)     Wall clock time:  0.29209828376770020
(PID.TID 0000.0001)          No. starts:         180
(PID.TID 0000.0001)           No. stops:         180
(PID.TID 0000.0001)   Seconds in section "DO_STATEVARS_TAVE   [FORWARD_STEP]":
(PID.TID 0000.0001)           User time:   0.0000000000000000
(PID.TID 0000.0001)         System time:   0.0000000000000000
(PID.TID 0000.0001)     Wall clock time:  1.77001953125000000E-003
(PID.TID 0000.0001)          No. starts:         180
(PID.TID 0000.0001)           No. stops:         180
(PID.TID 0000.0001)   Seconds in section "MONITOR             [FORWARD_STEP]":
(PID.TID 0000.0001)           User time:   0.0000000000000000
(PID.TID 0000.0001)         System time:   0.0000000000000000
(PID.TID 0000.0001)     Wall clock time:  1.73616409301757813E-003
(PID.TID 0000.0001)          No. starts:         180
(PID.TID 0000.0001)           No. stops:         180
(PID.TID 0000.0001)   Seconds in section "DO_THE_MODEL_IO     [FORWARD_STEP]":
(PID.TID 0000.0001)           User time:   0.0000000000000000
(PID.TID 0000.0001)         System time:  1.00000000000000089E-002
(PID.TID 0000.0001)     Wall clock time:  1.85155868530273438E-003
(PID.TID 0000.0001)          No. starts:         180
(PID.TID 0000.0001)           No. stops:         180
(PID.TID 0000.0001)   Seconds in section "DO_WRITE_PICKUP     [FORWARD_STEP]":
(PID.TID 0000.0001)           User time:   0.0000000000000000
(PID.TID 0000.0001)         System time:   0.0000000000000000
(PID.TID 0000.0001)     Wall clock time:  1.78623199462890625E-003
(PID.TID 0000.0001)          No. starts:         180
(PID.TID 0000.0001)           No. stops:         180
(PID.TID 0000.0001)   Seconds in section "ECCO SPIN-DOWN":
(PID.TID 0000.0001)           User time:  0.34999999999999432
(PID.TID 0000.0001)         System time:   0.0000000000000000
(PID.TID 0000.0001)     Wall clock time:  0.35317397117614746
(PID.TID 0000.0001)          No. starts:          10
(PID.TID 0000.0001)           No. stops:          10
(PID.TID 0000.0001)   Seconds in section "COST_AVERAGESFIELDS [ECCO SPIN-DOWN]":
(PID.TID 0000.0001)           User time:  0.11999999999999034
(PID.TID 0000.0001)         System time:   0.0000000000000000
(PID.TID 0000.0001)     Wall clock time:  0.13753700256347656
(PID.TID 0000.0001)          No. starts:          10
(PID.TID 0000.0001)           No. stops:          10
(PID.TID 0000.0001)   Seconds in section "COST_FORCING       [ECCO SPIN-DOWN]":
(PID.TID 0000.0001)           User time:   0.0000000000000000
(PID.TID 0000.0001)         System time:   0.0000000000000000
(PID.TID 0000.0001)     Wall clock time:  1.02519989013671875E-004
(PID.TID 0000.0001)          No. starts:          10
(PID.TID 0000.0001)           No. stops:          10
(PID.TID 0000.0001)   Seconds in section "COST_HYD           [ECCO SPIN-DOWN]":
(PID.TID 0000.0001)           User time:  0.20000000000001705
(PID.TID 0000.0001)         System time:   0.0000000000000000
(PID.TID 0000.0001)     Wall clock time:  0.18677377700805664
(PID.TID 0000.0001)          No. starts:          10
(PID.TID 0000.0001)           No. stops:          10
(PID.TID 0000.0001)   Seconds in section "COST_OBCS          [ECCO SPIN-DOWN]":
(PID.TID 0000.0001)           User time:  1.00000000000051159E-002
(PID.TID 0000.0001)         System time:   0.0000000000000000
(PID.TID 0000.0001)     Wall clock time:  2.20723152160644531E-002
(PID.TID 0000.0001)          No. starts:          10
(PID.TID 0000.0001)           No. stops:          10
(PID.TID 0000.0001)   Seconds in section "COST_INTERNAL_PARAMS  [ECCO SPIN-DOWN]":
(PID.TID 0000.0001)           User time:   0.0000000000000000
(PID.TID 0000.0001)         System time:   0.0000000000000000
(PID.TID 0000.0001)     Wall clock time:  9.79900360107421875E-005
(PID.TID 0000.0001)          No. starts:          10
(PID.TID 0000.0001)           No. stops:          10
(PID.TID 0000.0001)   Seconds in section "COST_GENCOST_ALL    [ECCO SPIN-DOWN]":
(PID.TID 0000.0001)           User time:   0.0000000000000000
(PID.TID 0000.0001)         System time:   0.0000000000000000
(PID.TID 0000.0001)     Wall clock time:  1.00135803222656250E-004
(PID.TID 0000.0001)          No. starts:          10
(PID.TID 0000.0001)           No. stops:          10
(PID.TID 0000.0001)   Seconds in section "COST_USERCOST_ALL    [ECCO SPIN-DOWN]":
(PID.TID 0000.0001)           User time:   0.0000000000000000
(PID.TID 0000.0001)         System time:   0.0000000000000000
(PID.TID 0000.0001)     Wall clock time:  9.41753387451171875E-005
(PID.TID 0000.0001)          No. starts:          10
(PID.TID 0000.0001)           No. stops:          10
(PID.TID 0000.0001)   Seconds in section "COST_FINAL         [ECCO SPIN-DOWN]":
(PID.TID 0000.0001)           User time:  1.00000000000051159E-002
(PID.TID 0000.0001)         System time:   0.0000000000000000
(PID.TID 0000.0001)     Wall clock time:  5.50818443298339844E-003
(PID.TID 0000.0001)          No. starts:          10
(PID.TID 0000.0001)           No. stops:          10
(PID.TID 0000.0001) // ======================================================
(PID.TID 0000.0001) // Tile <-> Tile communication statistics
(PID.TID 0000.0001) // ======================================================
(PID.TID 0000.0001) // o Tile number: 000001
(PID.TID 0000.0001) //         No. X exchanges =              0
(PID.TID 0000.0001) //            Max. X spins =              0
(PID.TID 0000.0001) //            Min. X spins =     1000000000
(PID.TID 0000.0001) //          Total. X spins =              0
(PID.TID 0000.0001) //            Avg. X spins =       0.00E+00
(PID.TID 0000.0001) //         No. Y exchanges =              0
(PID.TID 0000.0001) //            Max. Y spins =              0
(PID.TID 0000.0001) //            Min. Y spins =     1000000000
(PID.TID 0000.0001) //          Total. Y spins =              0
(PID.TID 0000.0001) //            Avg. Y spins =       0.00E+00
(PID.TID 0000.0001) // o Thread number: 000001
(PID.TID 0000.0001) //            No. barriers =         183312
(PID.TID 0000.0001) //      Max. barrier spins =              1
(PID.TID 0000.0001) //      Min. barrier spins =              1
(PID.TID 0000.0001) //     Total barrier spins =         183312
(PID.TID 0000.0001) //      Avg. barrier spins =       1.00E+00
PROGRAM MAIN: Execution ended Normally
