(PID.TID 0000.0001) 
(PID.TID 0000.0001) // ======================================================
(PID.TID 0000.0001) //                      MITgcm UV
(PID.TID 0000.0001) //                      =========
(PID.TID 0000.0001) // ======================================================
(PID.TID 0000.0001) // execution environment starting up...
(PID.TID 0000.0001) // Run starting Wed Apr  1 14:19:48 1998
(PID.TID 0000.0001) // on melville.lcs.mit.edu
(PID.TID 0000.0001) // account cnh
(PID.TID 0000.0001) // MITgcm UV Release: $Name:  $
(PID.TID 0000.0001) 
(PID.TID 0000.0001) // =======================================================
(PID.TID 0000.0001) // Execution Environment parameter file "eedata"
(PID.TID 0000.0001) // =======================================================
(PID.TID 0000.0001) ># Example "eedata" file
(PID.TID 0000.0001) ># Lines beginning "#" are comments
(PID.TID 0000.0001) ># nTx - No. threads per process in X
(PID.TID 0000.0001) ># nTy - No. threads per process in Y
(PID.TID 0000.0001) > &EEPARMS
(PID.TID 0000.0001) > &
(PID.TID 0000.0001) ># Note: Some systems use & as the
(PID.TID 0000.0001) ># namelist terminator. Other systems
(PID.TID 0000.0001) ># use a / character (as shown here).
(PID.TID 0000.0001) 
(PID.TID 0000.0001) // =======================================================
(PID.TID 0000.0001) // Computational Grid Specification ( see files "SIZE.h" )
(PID.TID 0000.0001) //                                  ( and "eedata"       )
(PID.TID 0000.0001) // =======================================================
(PID.TID 0000.0001)      nPx =    1 ; /* No. processes in X */
(PID.TID 0000.0001)      nPy =    1 ; /* No. processes in Y */
(PID.TID 0000.0001)      nSx =    1 ; /* No. tiles in X per process */
(PID.TID 0000.0001)      nSy =    1 ; /* No. tiles in Y per process */
(PID.TID 0000.0001)      sNx =  120 ; /* Tile size in X */
(PID.TID 0000.0001)      sNy =   31 ; /* Tile size in Y */
(PID.TID 0000.0001)      OLx =    3 ; /* Tile overlap distance in X */
(PID.TID 0000.0001)      OLy =    3 ; /* Tile overlap distance in Y */
(PID.TID 0000.0001)      nTx =    1 ; /* No. threads in X per process */
(PID.TID 0000.0001)      nTy =    1 ; /* No. threads in Y per process */
(PID.TID 0000.0001)       Nr =   29 ; /* No. levels in the vertical   */
(PID.TID 0000.0001)       nX =  120 ; /* Total domain size in X ( = nPx*nSx*sNx ) */
(PID.TID 0000.0001)       nY =   31 ; /* Total domain size in Y ( = nPy*nSy*sNy ) */
(PID.TID 0000.0001)   nTiles =    1 ; /* Total no. tiles per process ( = nSx*nSy ) */
(PID.TID 0000.0001)   nProcs =    1 ; /* Total no. processes ( = nPx*nPy ) */
(PID.TID 0000.0001) nThreads =    1 ; /* Total no. threads per process ( = nTx*nTy ) */
(PID.TID 0000.0001) usingMPI =    F ; /* Flag used to control whether MPI is in use */
(PID.TID 0000.0001)                   /*  note: To execute a program with MPI calls */
(PID.TID 0000.0001)                   /*  it must be launched appropriately e.g     */
(PID.TID 0000.0001)                   /*  "mpirun -np 64 ......"                    */
(PID.TID 0000.0001) useCoupler=   F ; /* Flag used to control communications with */
(PID.TID 0000.0001)                   /*  other model components, through a coupler */
(PID.TID 0000.0001) 
(PID.TID 0000.0001) // ======================================================
(PID.TID 0000.0001) // Mapping of tiles to threads
(PID.TID 0000.0001) // ======================================================
(PID.TID 0000.0001) // -o- Thread   1, tiles (   1:   1,   1:   1)
(PID.TID 0000.0001) 
(PID.TID 0000.0001) // ======================================================
(PID.TID 0000.0001) // Tile <-> Tile connectvity table
(PID.TID 0000.0001) // ======================================================
(PID.TID 0000.0001) // Tile number: 000001 (process no. = 000001)
(PID.TID 0000.0001) //        WEST: Tile = 000001, Process = 000001, Comm = put
(PID.TID 0000.0001) //                bi = 000001, bj = 000001
(PID.TID 0000.0001) //        EAST: Tile = 000001, Process = 000001, Comm = put
(PID.TID 0000.0001) //                bi = 000001, bj = 000001
(PID.TID 0000.0001) //       SOUTH: Tile = 000001, Process = 000001, Comm = put
(PID.TID 0000.0001) //                bi = 000001, bj = 000001
(PID.TID 0000.0001) //       NORTH: Tile = 000001, Process = 000001, Comm = put
(PID.TID 0000.0001) //                bi = 000001, bj = 000001
(PID.TID 0000.0001) 
(PID.TID 0000.0001) // =======================================================
(PID.TID 0000.0001) // Model parameter file "data"
(PID.TID 0000.0001) // =======================================================
(PID.TID 0000.0001) ># ====================
(PID.TID 0000.0001) ># | Model parameters |
(PID.TID 0000.0001) ># ====================
(PID.TID 0000.0001) >#
(PID.TID 0000.0001) ># Continuous equation parameters
(PID.TID 0000.0001) > &PARM01
(PID.TID 0000.0001) > tRef=29*20.0,
(PID.TID 0000.0001) > sRef=29*35.0,
(PID.TID 0000.0001) > viscAh=5.0E-6,
(PID.TID 0000.0001) > viscAz=5.0E-6,
(PID.TID 0000.0001) > no_slip_sides=.FALSE.,
(PID.TID 0000.0001) > no_slip_bottom=.FALSE.,
(PID.TID 0000.0001) > viscA4=0.E12,
(PID.TID 0000.0001) > diffKhT=2.5E-6,
(PID.TID 0000.0001) > diffKzT=2.5E-6,
(PID.TID 0000.0001) > diffKhS=1.0E-6,
(PID.TID 0000.0001) > diffKzS=1.0E-6,
(PID.TID 0000.0001) > f0=0.5,
(PID.TID 0000.0001) > beta=0.E-11,
(PID.TID 0000.0001) > tAlpha=2.0E-4,
(PID.TID 0000.0001) > sBeta =0.,
(PID.TID 0000.0001) > gravity=9.81,
(PID.TID 0000.0001) > rhoConst=1000.0,
(PID.TID 0000.0001) > rhoNil=1000.0,
(PID.TID 0000.0001) > heatCapacity_Cp=3900.0,
(PID.TID 0000.0001) > rigidLid=.TRUE.,
(PID.TID 0000.0001) > implicitFreeSurface=.FALSE.,
(PID.TID 0000.0001) > eosType='LINEAR',
(PID.TID 0000.0001) > nonHydrostatic=.TRUE.,
(PID.TID 0000.0001) > readBinaryPrec=32,
(PID.TID 0000.0001) > &
(PID.TID 0000.0001) >
(PID.TID 0000.0001) ># Elliptic solver parameters
(PID.TID 0000.0001) > &PARM02
(PID.TID 0000.0001) > cg2dMaxIters=1000,
(PID.TID 0000.0001) > cg2dTargetResidual=1.E-7,
(PID.TID 0000.0001) > cg3dMaxIters=10,
(PID.TID 0000.0001) > cg3dTargetResidual=1.E-9,
(PID.TID 0000.0001) > &
(PID.TID 0000.0001) >
(PID.TID 0000.0001) ># Time stepping parameters
(PID.TID 0000.0001) > &PARM03
(PID.TID 0000.0001) > nIter0=0,
(PID.TID 0000.0001) > nTimeSteps=20,
(PID.TID 0000.0001) ># nTimeSteps=36000000,
(PID.TID 0000.0001) > deltaT=0.1,
(PID.TID 0000.0001) > abEps=0.1,
(PID.TID 0000.0001) > pChkptFreq=1.0,
(PID.TID 0000.0001) > chkptFreq=1.0,
(PID.TID 0000.0001) > dumpFreq=1.0,
(PID.TID 0000.0001) > monitorFreq=0.1,
(PID.TID 0000.0001) > &
(PID.TID 0000.0001) >
(PID.TID 0000.0001) ># Gridding parameters
(PID.TID 0000.0001) > &PARM04
(PID.TID 0000.0001) > usingCartesianGrid=.FALSE.,
(PID.TID 0000.0001) > usingCylindricalGrid=.TRUE.,
(PID.TID 0000.0001) > usingCurvilinearGrid=.FALSE.,
(PID.TID 0000.0001) > dXspacing=3,
(PID.TID 0000.0001) > dYspacing=0.01,
(PID.TID 0000.0001) > delZ=29*0.005,
(PID.TID 0000.0001) > &
(PID.TID 0000.0001) >
(PID.TID 0000.0001) ># Input datasets
(PID.TID 0000.0001) > &PARM05
(PID.TID 0000.0001) > hydrogThetaFile='thetaPol.bin',
(PID.TID 0000.0001) > bathyFile='bathyPol.bin',
(PID.TID 0000.0001) > tCyl  = 0
(PID.TID 0000.0001) > &
(PID.TID 0000.0001) 
(PID.TID 0000.0001) S/R INI_PARMS ; read PARM01 : OK
(PID.TID 0000.0001) S/R INI_PARMS ; read PARM02 : OK
(PID.TID 0000.0001) S/R INI_PARMS ; read PARM03 : OK
(PID.TID 0000.0001) S/R INI_PARMS ; read PARM04 : OK
(PID.TID 0000.0001) S/R INI_PARMS ; Cylinder OK
(PID.TID 0000.0001) S/R INI_PARMS ; read PARM05 : OK
(PID.TID 0000.0001) %MON XC_max                       =   3.5850000000000E+02
(PID.TID 0000.0001) %MON XC_min                       =   1.5000000000000E+00
(PID.TID 0000.0001) %MON XC_mean                      =   1.8000000000000E+02
(PID.TID 0000.0001) %MON XC_sd                        =   1.0391943995230E+02
(PID.TID 0000.0001) %MON XG_max                       =   3.5700000000000E+02
(PID.TID 0000.0001) %MON XG_min                       =   3.0000000000000E+00
(PID.TID 0000.0001) %MON XG_mean                      =   1.8000000000000E+02
(PID.TID 0000.0001) %MON XG_sd                        =   1.0305338422391E+02
(PID.TID 0000.0001) %MON DXC_max                      =   1.5969762655748E-02
(PID.TID 0000.0001) %MON DXC_min                      =   2.6179938779915E-04
(PID.TID 0000.0001) %MON DXC_mean                     =   8.1157810217737E-03
(PID.TID 0000.0001) %MON DXC_sd                       =   4.6832098206938E-03
(PID.TID 0000.0001) %MON DXF_max                      =   1.5969762655748E-02
(PID.TID 0000.0001) %MON DXF_min                      =   2.6179938779915E-04
(PID.TID 0000.0001) %MON DXF_mean                     =   8.1157810217737E-03
(PID.TID 0000.0001) %MON DXF_sd                       =   4.6832098206938E-03
(PID.TID 0000.0001) %MON DXG_max                      =   1.5707963267949E-02
(PID.TID 0000.0001) %MON DXG_min                      =   1.8165981760462E-19
(PID.TID 0000.0001) %MON DXG_mean                     =   7.8539816339745E-03
(PID.TID 0000.0001) %MON DXG_sd                       =   4.6832098206938E-03
(PID.TID 0000.0001) %MON DXV_max                      =   1.5707963267949E-02
(PID.TID 0000.0001) %MON DXV_min                      =   1.8165981760462E-19
(PID.TID 0000.0001) %MON DXV_mean                     =   7.8539816339745E-03
(PID.TID 0000.0001) %MON DXV_sd                       =   4.6832098206938E-03
(PID.TID 0000.0001) %MON YC_max                       =   3.0500000000000E-01
(PID.TID 0000.0001) %MON YC_min                       =   5.0000000000000E-03
(PID.TID 0000.0001) %MON YC_mean                      =   1.5500000000000E-01
(PID.TID 0000.0001) %MON YC_sd                        =   8.9442719099991E-02
(PID.TID 0000.0001) %MON YG_max                       =   3.0000000000000E-01
(PID.TID 0000.0001) %MON YG_min                       =   3.4694469519536E-18
(PID.TID 0000.0001) %MON YG_mean                      =   1.5000000000000E-01
(PID.TID 0000.0001) %MON YG_sd                        =   8.9442719099991E-02
(PID.TID 0000.0001) %MON DYC_max                      =   1.0000000000000E-02
(PID.TID 0000.0001) %MON DYC_min                      =   1.0000000000000E-02
(PID.TID 0000.0001) %MON DYC_mean                     =   1.0000000000000E-02
(PID.TID 0000.0001) %MON DYC_sd                       =   3.1398494915180E-16
(PID.TID 0000.0001) %MON DYF_max                      =   1.0000000000000E-02
(PID.TID 0000.0001) %MON DYF_min                      =   1.0000000000000E-02
(PID.TID 0000.0001) %MON DYF_mean                     =   1.0000000000000E-02
(PID.TID 0000.0001) %MON DYF_sd                       =   3.1398494915180E-16
(PID.TID 0000.0001) %MON DYG_max                      =   1.0000000000000E-02
(PID.TID 0000.0001) %MON DYG_min                      =   1.0000000000000E-02
(PID.TID 0000.0001) %MON DYG_mean                     =   1.0000000000000E-02
(PID.TID 0000.0001) %MON DYG_sd                       =   3.1398494915180E-16
(PID.TID 0000.0001) %MON DYU_max                      =   1.0000000000000E-02
(PID.TID 0000.0001) %MON DYU_min                      =   1.0000000000000E-02
(PID.TID 0000.0001) %MON DYU_mean                     =   1.0000000000000E-02
(PID.TID 0000.0001) %MON DYU_sd                       =   3.1398494915180E-16
(PID.TID 0000.0001) %MON RA_max                       =   1.5969762655748E-04
(PID.TID 0000.0001) %MON RA_min                       =   2.6179938779915E-06
(PID.TID 0000.0001) %MON RA_mean                      =   8.1157810217737E-05
(PID.TID 0000.0001) %MON RA_sd                        =   4.6832098206938E-05
(PID.TID 0000.0001) %MON RAW_max                      =   1.5969762655748E-04
(PID.TID 0000.0001) %MON RAW_min                      =   2.6179938779915E-06
(PID.TID 0000.0001) %MON RAW_mean                     =   8.1157810217737E-05
(PID.TID 0000.0001) %MON RAW_sd                       =   4.6832098206938E-05
(PID.TID 0000.0001) %MON RAS_max                      =   1.5707963267949E-04
(PID.TID 0000.0001) %MON RAS_min                      =   1.8165981760462E-21
(PID.TID 0000.0001) %MON RAS_mean                     =   7.8539816339742E-05
(PID.TID 0000.0001) %MON RAS_sd                       =   4.6832098206938E-05
(PID.TID 0000.0001) %MON RAZ_max                      =   1.5707963267949E-04
(PID.TID 0000.0001) %MON RAZ_min                      =   1.8165981760462E-21
(PID.TID 0000.0001) %MON RAZ_mean                     =   7.8539816339742E-05
(PID.TID 0000.0001) %MON RAZ_sd                       =   4.6832098206938E-05
(PID.TID 0000.0001)  MDSREADFIELD: opening global file: bathyPol.bin
(PID.TID 0000.0001) // =======================================================
(PID.TID 0000.0001) // Field Model R_low (ini_masks_etc) at iteration          1
(PID.TID 0000.0001) // CMIN =         -1.450000000000000E-01
(PID.TID 0000.0001) // CMAX =         -1.450000000000000E-01
(PID.TID 0000.0001) // CINT =          0.000000000000000E+00
(PID.TID 0000.0001) // SYMBOLS (CMIN->CMAX): -abcdefghijklmnopqrstuvwxyz+
(PID.TID 0000.0001) //                  0.0: .
(PID.TID 0000.0001) // RANGE I (Lo:Hi:Step):(  -2: 123:   1)
(PID.TID 0000.0001) // RANGE J (Lo:Hi:Step):(  34:  -2:  -1)
(PID.TID 0000.0001) // RANGE K (Lo:Hi:Step):(   1:   1:   1)
(PID.TID 0000.0001) // =======================================================
(PID.TID 0000.0001) // =======================================================
(PID.TID 0000.0001) // END OF FIELD                                          =
(PID.TID 0000.0001) // =======================================================
(PID.TID 0000.0001) 
(PID.TID 0000.0001) // =======================================================
(PID.TID 0000.0001) // Field Model Ro_surf (ini_masks_etc) at iteration          1
(PID.TID 0000.0001) // CMIN =          1.561251128379126E-17
(PID.TID 0000.0001) // CMAX =          1.561251128379126E-17
(PID.TID 0000.0001) // CINT =          0.000000000000000E+00
(PID.TID 0000.0001) // SYMBOLS (CMIN->CMAX): -abcdefghijklmnopqrstuvwxyz+
(PID.TID 0000.0001) //                  0.0: .
(PID.TID 0000.0001) // RANGE I (Lo:Hi:Step):(  -2: 123:   1)
(PID.TID 0000.0001) // RANGE J (Lo:Hi:Step):(  34:  -2:  -1)
(PID.TID 0000.0001) // RANGE K (Lo:Hi:Step):(   1:   1:   1)
(PID.TID 0000.0001) // =======================================================
(PID.TID 0000.0001) // =======================================================
(PID.TID 0000.0001) // END OF FIELD                                          =
(PID.TID 0000.0001) // =======================================================
(PID.TID 0000.0001) 
(PID.TID 0000.0001) // =======================================================
(PID.TID 0000.0001) // Field hFacC at iteration          1
(PID.TID 0000.0001) // CMIN =          1.000000000000000E+00
(PID.TID 0000.0001) // CMAX =          1.000000000000000E+00
(PID.TID 0000.0001) // CINT =          0.000000000000000E+00
(PID.TID 0000.0001) // SYMBOLS (CMIN->CMAX): -abcdefghijklmnopqrstuvwxyz+
(PID.TID 0000.0001) //                  0.0: .
(PID.TID 0000.0001) // RANGE I (Lo:Hi:Step):(  -2: 123:   1)
(PID.TID 0000.0001) // RANGE J (Lo:Hi:Step):(  34:  -2:  -1)
(PID.TID 0000.0001) // RANGE K (Lo:Hi:Step):(   1:   1:   1)
(PID.TID 0000.0001) // =======================================================
(PID.TID 0000.0001) // =======================================================
(PID.TID 0000.0001) // END OF FIELD                                          =
(PID.TID 0000.0001) // =======================================================
(PID.TID 0000.0001) 
(PID.TID 0000.0001) // =======================================================
(PID.TID 0000.0001) // Field hFacW at iteration          1
(PID.TID 0000.0001) // CMIN =          1.000000000000000E+00
(PID.TID 0000.0001) // CMAX =          1.000000000000000E+00
(PID.TID 0000.0001) // CINT =          0.000000000000000E+00
(PID.TID 0000.0001) // SYMBOLS (CMIN->CMAX): -abcdefghijklmnopqrstuvwxyz+
(PID.TID 0000.0001) //                  0.0: .
(PID.TID 0000.0001) // RANGE I (Lo:Hi:Step):(  -2: 123:   1)
(PID.TID 0000.0001) // RANGE J (Lo:Hi:Step):(  34:  -2:  -1)
(PID.TID 0000.0001) // RANGE K (Lo:Hi:Step):(   1:   1:   1)
(PID.TID 0000.0001) // =======================================================
(PID.TID 0000.0001) // =======================================================
(PID.TID 0000.0001) // END OF FIELD                                          =
(PID.TID 0000.0001) // =======================================================
(PID.TID 0000.0001) 
(PID.TID 0000.0001) // =======================================================
(PID.TID 0000.0001) // Field hFacS at iteration          1
(PID.TID 0000.0001) // CMIN =          1.000000000000000E+00
(PID.TID 0000.0001) // CMAX =          1.000000000000000E+00
(PID.TID 0000.0001) // CINT =          0.000000000000000E+00
(PID.TID 0000.0001) // SYMBOLS (CMIN->CMAX): -abcdefghijklmnopqrstuvwxyz+
(PID.TID 0000.0001) //                  0.0: .
(PID.TID 0000.0001) // RANGE I (Lo:Hi:Step):(  -2: 123:   1)
(PID.TID 0000.0001) // RANGE J (Lo:Hi:Step):(  34:  -2:  -1)
(PID.TID 0000.0001) // RANGE K (Lo:Hi:Step):(   1:   1:   1)
(PID.TID 0000.0001) // =======================================================
(PID.TID 0000.0001) // =======================================================
(PID.TID 0000.0001) // END OF FIELD                                          =
(PID.TID 0000.0001) // =======================================================
(PID.TID 0000.0001) 
(PID.TID 0000.0001)  PACKAGES_BOOT: opening data.pkg
(PID.TID 0000.0001)  OPEN_COPY_DATA_FILE: opening file data.pkg
(PID.TID 0000.0001) // =======================================================
(PID.TID 0000.0001) // Parameter file "data.pkg"
(PID.TID 0000.0001) // =======================================================
(PID.TID 0000.0001) ># Packages
(PID.TID 0000.0001) > &PACKAGES
(PID.TID 0000.0001) > &
(PID.TID 0000.0001) 
(PID.TID 0000.0001)  PACKAGES_BOOT: finished reading data.pkg
(PID.TID 0000.0001) 
(PID.TID 0000.0001) // ===================================
(PID.TID 0000.0001) // GAD parameters :
(PID.TID 0000.0001) // ===================================
(PID.TID 0000.0001) tempAdvScheme =   /* Temp. advection scheme selector */
(PID.TID 0000.0001)                       2
(PID.TID 0000.0001)     ;
(PID.TID 0000.0001) tempMultiDimAdvec =   /* use Muti-Dim Advec method for Temp */
(PID.TID 0000.0001)                   F
(PID.TID 0000.0001)     ;
(PID.TID 0000.0001) tempAdamsBashforth =   /* use Adams-Bashforth time-stepping for Temp */
(PID.TID 0000.0001)                   T
(PID.TID 0000.0001)     ;
(PID.TID 0000.0001) saltAdvScheme =   /* Salt. advection scheme selector */
(PID.TID 0000.0001)                       2
(PID.TID 0000.0001)     ;
(PID.TID 0000.0001) saltMultiDimAdvec =   /* use Muti-Dim Advec method for Salt */
(PID.TID 0000.0001)                   F
(PID.TID 0000.0001)     ;
(PID.TID 0000.0001) saltAdamsBashforth =   /* use Adams-Bashforth time-stepping for Salt */
(PID.TID 0000.0001)                   T
(PID.TID 0000.0001)     ;
(PID.TID 0000.0001) // ===================================
(PID.TID 0000.0001) %MON fCori_max                    =   5.0000000000000E-01
(PID.TID 0000.0001) %MON fCori_min                    =   5.0000000000000E-01
(PID.TID 0000.0001) %MON fCori_mean                   =   5.0000000000000E-01
(PID.TID 0000.0001) %MON fCori_sd                     =   0.0000000000000E+00
(PID.TID 0000.0001) %MON fCoriG_max                   =   5.0000000000000E-01
(PID.TID 0000.0001) %MON fCoriG_min                   =   5.0000000000000E-01
(PID.TID 0000.0001) %MON fCoriG_mean                  =   5.0000000000000E-01
(PID.TID 0000.0001) %MON fCoriG_sd                    =   0.0000000000000E+00
(PID.TID 0000.0001) %MON fCoriCos_max                 =   0.0000000000000E+00
(PID.TID 0000.0001) %MON fCoriCos_min                 =   0.0000000000000E+00
(PID.TID 0000.0001) %MON fCoriCos_mean                =   0.0000000000000E+00
(PID.TID 0000.0001) %MON fCoriCos_sd                  =   0.0000000000000E+00
(PID.TID 0000.0001) // CG2D normalisation factor =          0.3069372132817614229338687E+01
(PID.TID 0000.0001) 
(PID.TID 0000.0001) // CG3D normalisation factor =          0.3237049690004649704633266E+02
(PID.TID 0000.0001) 
(PID.TID 0000.0001) CONFIG_CHECK: OK
(PID.TID 0000.0001) // =======================================================
(PID.TID 0000.0001) // Model configuration
(PID.TID 0000.0001) // =======================================================
(PID.TID 0000.0001) //
(PID.TID 0000.0001) // "Physical" paramters ( PARM01 in namelist )
(PID.TID 0000.0001) //
(PID.TID 0000.0001) buoyancyRelation = OCEANIC
(PID.TID 0000.0001) tRef =   /* Reference temperature profile ( oC or oK ) */
(PID.TID 0000.0001)    29 @  2.000000000000000E+01              /* K =  1: 29 */
(PID.TID 0000.0001)     ;
(PID.TID 0000.0001) sRef =   /* Reference salinity profile ( ppt ) */
(PID.TID 0000.0001)    29 @  3.500000000000000E+01              /* K =  1: 29 */
(PID.TID 0000.0001)     ;
(PID.TID 0000.0001) viscAh =   /* Lateral eddy viscosity ( m^2/s ) */
(PID.TID 0000.0001)                 5.000000000000000E-06
(PID.TID 0000.0001)     ;
(PID.TID 0000.0001) viscAhMax =   /* Maximum lateral eddy viscosity ( m^2/s ) */
(PID.TID 0000.0001)                 1.000000000000000E+21
(PID.TID 0000.0001)     ;
(PID.TID 0000.0001) viscAhGrid =   /* Grid dependent lateral eddy viscosity ( non-dim. ) */
(PID.TID 0000.0001)                 0.000000000000000E+00
(PID.TID 0000.0001)     ;
(PID.TID 0000.0001) viscC2leith =   /* Leith harmonic viscosity factor ( non-dom. ) */
(PID.TID 0000.0001)                 0.000000000000000E+00
(PID.TID 0000.0001)     ;
(PID.TID 0000.0001) viscA4 =   /* Lateral biharmonic viscosity ( m^4/s ) */
(PID.TID 0000.0001)                 0.000000000000000E+00
(PID.TID 0000.0001)     ;
(PID.TID 0000.0001) viscA4Max =   /* Maximum biharmonic viscosity ( m^2/s ) */
(PID.TID 0000.0001)                 1.000000000000000E+21
(PID.TID 0000.0001)     ;
(PID.TID 0000.0001) viscA4Grid =   /* Grid dependent biharmonic viscosity ( non-dim. ) */
(PID.TID 0000.0001)                 0.000000000000000E+00
(PID.TID 0000.0001)     ;
(PID.TID 0000.0001) viscC4leith =   /* Leith biharmonic viscosity factor ( non-dom. ) */
(PID.TID 0000.0001)                 0.000000000000000E+00
(PID.TID 0000.0001)     ;
(PID.TID 0000.0001) no_slip_sides =  /* Viscous BCs: No-slip sides */
(PID.TID 0000.0001)                   F
(PID.TID 0000.0001)     ;
(PID.TID 0000.0001) viscAr =   /* Vertical eddy viscosity ( units of r^2/s ) */
(PID.TID 0000.0001)                 5.000000000000000E-06
(PID.TID 0000.0001)     ;
(PID.TID 0000.0001) diffKhT =   /* Laplacian diffusion of heat laterally ( m^2/s ) */
(PID.TID 0000.0001)                 2.500000000000000E-06
(PID.TID 0000.0001)     ;
(PID.TID 0000.0001) diffK4T =   /* Bihaarmonic diffusion of heat laterally ( m^4/s ) */
(PID.TID 0000.0001)                 0.000000000000000E+00
(PID.TID 0000.0001)     ;
(PID.TID 0000.0001) diffKrT =   /* Laplacian diffusion of heat vertically ( m^2/s ) */
(PID.TID 0000.0001)                 2.500000000000000E-06
(PID.TID 0000.0001)     ;
(PID.TID 0000.0001) diffKhS =   /* Laplacian diffusion of salt laterally ( m^2/s ) */
(PID.TID 0000.0001)                 1.000000000000000E-06
(PID.TID 0000.0001)     ;
(PID.TID 0000.0001) diffK4S =   /* Bihaarmonic diffusion of salt laterally ( m^4/s ) */
(PID.TID 0000.0001)                 0.000000000000000E+00
(PID.TID 0000.0001)     ;
(PID.TID 0000.0001) diffKrS =   /* Laplacian diffusion of salt vertically ( m^2/s ) */
(PID.TID 0000.0001)                 1.000000000000000E-06
(PID.TID 0000.0001)     ;
(PID.TID 0000.0001) diffKrBL79surf =   /* Surface diffusion for Bryan and Lewis 1979 ( m^2/s ) */
(PID.TID 0000.0001)                 0.000000000000000E+00
(PID.TID 0000.0001)     ;
(PID.TID 0000.0001) diffKrBL79deep =   /* Deep diffusion for Bryan and Lewis 1979 ( m^2/s ) */
(PID.TID 0000.0001)                 0.000000000000000E+00
(PID.TID 0000.0001)     ;
(PID.TID 0000.0001) diffKrBL79scl =   /* Depth scale for Bryan and Lewis 1979 ( m ) */
(PID.TID 0000.0001)                 2.000000000000000E+02
(PID.TID 0000.0001)     ;
(PID.TID 0000.0001) diffKrBL79Ho =   /* Turning depth for Bryan and Lewis 1979 ( m ) */
(PID.TID 0000.0001)                -2.000000000000000E+03
(PID.TID 0000.0001)     ;
(PID.TID 0000.0001)  Equation of State : eosType = LINEAR
(PID.TID 0000.0001) tAlpha =   /* Linear EOS thermal expansion coefficient ( 1/degree ) */
(PID.TID 0000.0001)                 2.000000000000000E-04
(PID.TID 0000.0001)     ;
(PID.TID 0000.0001) sBeta =   /* Linear EOS haline contraction coefficient ( 1/ppt ) */
(PID.TID 0000.0001)                 0.000000000000000E+00
(PID.TID 0000.0001)     ;
(PID.TID 0000.0001) rhonil =   /* Reference density ( kg/m^3 ) */
(PID.TID 0000.0001)                 1.000000000000000E+03
(PID.TID 0000.0001)     ;
(PID.TID 0000.0001) rhoConst =   /* Reference density ( kg/m^3 ) */
(PID.TID 0000.0001)                 1.000000000000000E+03
(PID.TID 0000.0001)     ;
(PID.TID 0000.0001) rhoConstFresh =   /* Reference density ( kg/m^3 ) */
(PID.TID 0000.0001)                 1.000000000000000E+03
(PID.TID 0000.0001)     ;
(PID.TID 0000.0001) gravity =   /* Gravitational acceleration ( m/s^2 ) */
(PID.TID 0000.0001)                 9.810000000000000E+00
(PID.TID 0000.0001)     ;
(PID.TID 0000.0001) gBaro =   /* Barotropic gravity ( m/s^2 ) */
(PID.TID 0000.0001)                 9.810000000000000E+00
(PID.TID 0000.0001)     ;
(PID.TID 0000.0001) rotationPeriod =   /* Rotation Period ( s ) */
(PID.TID 0000.0001)                 8.640000000000000E+04
(PID.TID 0000.0001)     ;
(PID.TID 0000.0001) omega =   /* Angular velocity ( rad/s ) */
(PID.TID 0000.0001)                 7.272205216643040E-05
(PID.TID 0000.0001)     ;
(PID.TID 0000.0001) f0 =   /* Reference coriolis parameter ( 1/s ) */
(PID.TID 0000.0001)                 5.000000000000000E-01
(PID.TID 0000.0001)     ;
(PID.TID 0000.0001) beta =   /* Beta ( 1/(m.s) ) */
(PID.TID 0000.0001)                 0.000000000000000E+00
(PID.TID 0000.0001)     ;
(PID.TID 0000.0001) freeSurfFac =   /* Implicit free surface factor */
(PID.TID 0000.0001)                 0.000000000000000E+00
(PID.TID 0000.0001)     ;
(PID.TID 0000.0001) implicitFreeSurface =   /* Implicit free surface on/off flag */
(PID.TID 0000.0001)                   F
(PID.TID 0000.0001)     ;
(PID.TID 0000.0001) rigidLid =   /* Rigid lid on/off flag */
(PID.TID 0000.0001)                   T
(PID.TID 0000.0001)     ;
(PID.TID 0000.0001) implicSurfPress =   /* Surface Pressure implicit factor (0-1)*/
(PID.TID 0000.0001)                 1.000000000000000E+00
(PID.TID 0000.0001)     ;
(PID.TID 0000.0001) implicDiv2Dflow =   /* Barot. Flow Div. implicit factor (0-1)*/
(PID.TID 0000.0001)                 1.000000000000000E+00
(PID.TID 0000.0001)     ;
(PID.TID 0000.0001) exactConserv =   /* Exact Volume Conservation on/off flag*/
(PID.TID 0000.0001)                   F
(PID.TID 0000.0001)     ;
(PID.TID 0000.0001) uniformLin_PhiSurf =   /* use uniform Bo_surf on/off flag*/
(PID.TID 0000.0001)                   T
(PID.TID 0000.0001)     ;
(PID.TID 0000.0001) nonlinFreeSurf =   /* Non-linear Free Surf. options (-1,0,1,2,3)*/
(PID.TID 0000.0001)                       0
(PID.TID 0000.0001)     ;
(PID.TID 0000.0001)      -1,0= Off ; 1,2,3= On, 2=+rescale gU,gV, 3=+update cg2d solv.
(PID.TID 0000.0001) hFacInf =   /* lower threshold for hFac (nonlinFreeSurf only)*/
(PID.TID 0000.0001)                 2.000000000000000E-01
(PID.TID 0000.0001)     ;
(PID.TID 0000.0001) hFacSup =   /* upper threshold for hFac (nonlinFreeSurf only)*/
(PID.TID 0000.0001)                 2.000000000000000E+00
(PID.TID 0000.0001)     ;
(PID.TID 0000.0001) select_rStar =   /* r* Coordinate options (not yet implemented)*/
(PID.TID 0000.0001)                       0
(PID.TID 0000.0001)     ;
(PID.TID 0000.0001) useRealFreshWaterFlux =   /* Real Fresh Water Flux on/off flag*/
(PID.TID 0000.0001)                   F
(PID.TID 0000.0001)     ;
(PID.TID 0000.0001) convertFW2Salt = /* convert F.W. Flux to Salt Flux (-1=use local S)(ppt)*/
(PID.TID 0000.0001)                 3.500000000000000E+01
(PID.TID 0000.0001)     ;
(PID.TID 0000.0001) nonHydrostatic =  /* Non-Hydrostatic on/off flag */
(PID.TID 0000.0001)                   T
(PID.TID 0000.0001)     ;
(PID.TID 0000.0001) momStepping =  /* Momentum equation on/off flag */
(PID.TID 0000.0001)                   T
(PID.TID 0000.0001)     ;
(PID.TID 0000.0001) momAdvection =  /* Momentum advection on/off flag */
(PID.TID 0000.0001)                   T
(PID.TID 0000.0001)     ;
(PID.TID 0000.0001) momViscosity =  /* Momentum viscosity on/off flag */
(PID.TID 0000.0001)                   T
(PID.TID 0000.0001)     ;
(PID.TID 0000.0001) momImplVertAdv =/* Momentum implicit vert. advection on/off*/
(PID.TID 0000.0001)                   F
(PID.TID 0000.0001)     ;
(PID.TID 0000.0001) implicitViscosity = /* Implicit viscosity on/off flag */
(PID.TID 0000.0001)                   F
(PID.TID 0000.0001)     ;
(PID.TID 0000.0001) useCoriolis =  /* Coriolis on/off flag */
(PID.TID 0000.0001)                   T
(PID.TID 0000.0001)     ;
(PID.TID 0000.0001) useCDscheme =  /* CD scheme on/off flag */
(PID.TID 0000.0001)                   F
(PID.TID 0000.0001)     ;
(PID.TID 0000.0001) useJamartWetPoints= /* Coriolis WetPoints method flag */
(PID.TID 0000.0001)                   F
(PID.TID 0000.0001)     ;
(PID.TID 0000.0001) useJamartMomAdv= /* V.I. Non-linear terms Jamart flag */
(PID.TID 0000.0001)                   F
(PID.TID 0000.0001)     ;
(PID.TID 0000.0001) SadournyCoriolis= /* Sadourny Coriolis discr. flag */
(PID.TID 0000.0001)                   F
(PID.TID 0000.0001)     ;
(PID.TID 0000.0001) upwindVorticity= /* Upwind bias vorticity flag */
(PID.TID 0000.0001)                   F
(PID.TID 0000.0001)     ;
(PID.TID 0000.0001) useAbsVorticity= /* Work with f+zeta in Coriolis */
(PID.TID 0000.0001)                   F
(PID.TID 0000.0001)     ;
(PID.TID 0000.0001) highOrderVorticity= /* High order interp. of vort. flag */
(PID.TID 0000.0001)                   F
(PID.TID 0000.0001)     ;
(PID.TID 0000.0001) momForcing =  /* Momentum forcing on/off flag */
(PID.TID 0000.0001)                   T
(PID.TID 0000.0001)     ;
(PID.TID 0000.0001) momPressureForcing =  /* Momentum pressure term on/off flag */
(PID.TID 0000.0001)                   T
(PID.TID 0000.0001)     ;
(PID.TID 0000.0001) staggerTimeStep =   /* Stagger time stepping on/off flag */
(PID.TID 0000.0001)                   F
(PID.TID 0000.0001)     ;
(PID.TID 0000.0001) multiDimAdvection =   /* enable/disable Multi-Dim Advection */
(PID.TID 0000.0001)                   T
(PID.TID 0000.0001)     ;
(PID.TID 0000.0001) implicitDiffusion =/* Implicit Diffusion on/off flag */
(PID.TID 0000.0001)                   F
(PID.TID 0000.0001)     ;
(PID.TID 0000.0001) tempStepping =  /* Temperature equation on/off flag */
(PID.TID 0000.0001)                   T
(PID.TID 0000.0001)     ;
(PID.TID 0000.0001) tempAdvection=  /* Temperature advection on/off flag */
(PID.TID 0000.0001)                   T
(PID.TID 0000.0001)     ;
(PID.TID 0000.0001) tempImplVertAdv =/* Temp. implicit vert. advection on/off */
(PID.TID 0000.0001)                   F
(PID.TID 0000.0001)     ;
(PID.TID 0000.0001) tempForcing  =  /* Temperature forcing on/off flag */
(PID.TID 0000.0001)                   T
(PID.TID 0000.0001)     ;
(PID.TID 0000.0001) saltStepping =  /* Salinity equation on/off flag */
(PID.TID 0000.0001)                   T
(PID.TID 0000.0001)     ;
(PID.TID 0000.0001) saltAdvection=  /* Salinity advection on/off flag */
(PID.TID 0000.0001)                   T
(PID.TID 0000.0001)     ;
(PID.TID 0000.0001) saltImplVertAdv =/* Sali. implicit vert. advection on/off */
(PID.TID 0000.0001)                   F
(PID.TID 0000.0001)     ;
(PID.TID 0000.0001) saltForcing  =  /* Salinity forcing on/off flag */
(PID.TID 0000.0001)                   T
(PID.TID 0000.0001)     ;
(PID.TID 0000.0001) //
(PID.TID 0000.0001) // Elliptic solver(s) paramters ( PARM02 in namelist )
(PID.TID 0000.0001) //
(PID.TID 0000.0001) cg2dMaxIters =   /* Upper limit on 2d con. grad iterations  */
(PID.TID 0000.0001)                    1000
(PID.TID 0000.0001)     ;
(PID.TID 0000.0001) cg2dChkResFreq =   /* 2d con. grad convergence test frequency */
(PID.TID 0000.0001)                       1
(PID.TID 0000.0001)     ;
(PID.TID 0000.0001) cg2dTargetResidual =   /* 2d con. grad target residual  */
(PID.TID 0000.0001)                 1.000000000000000E-07
(PID.TID 0000.0001)     ;
(PID.TID 0000.0001) //
(PID.TID 0000.0001) // Time stepping paramters ( PARM03 in namelist )
(PID.TID 0000.0001) //
(PID.TID 0000.0001) nIter0 =   /* Base timestep number  */
(PID.TID 0000.0001)                       0
(PID.TID 0000.0001)     ;
(PID.TID 0000.0001) nTimeSteps =   /* Number of timesteps */
(PID.TID 0000.0001)                      20
(PID.TID 0000.0001)     ;
(PID.TID 0000.0001) deltatTmom =   /* Momentum equation timestep ( s ) */
(PID.TID 0000.0001)                 1.000000000000000E-01
(PID.TID 0000.0001)     ;
(PID.TID 0000.0001) deltaTfreesurf =   /* FreeSurface equation timestep ( s ) */
(PID.TID 0000.0001)                 1.000000000000000E-01
(PID.TID 0000.0001)     ;
(PID.TID 0000.0001) deltatTtracer =   /* Tracer equation timestep ( s ) */
(PID.TID 0000.0001)                 1.000000000000000E-01
(PID.TID 0000.0001)     ;
(PID.TID 0000.0001) deltatTClock  =   /* Model clock timestep ( s ) */
(PID.TID 0000.0001)                 1.000000000000000E-01
(PID.TID 0000.0001)     ;
(PID.TID 0000.0001) cAdjFreq =   /* Convective adjustment interval ( s ) */
(PID.TID 0000.0001)                 0.000000000000000E+00
(PID.TID 0000.0001)     ;
(PID.TID 0000.0001) forcing_In_AB =   /* put T,S Forcing in Adams-Bash. stepping */
(PID.TID 0000.0001)                   T
(PID.TID 0000.0001)     ;
(PID.TID 0000.0001) abeps =   /* Adams-Bashforth stabilizing weight */
(PID.TID 0000.0001)                 1.000000000000000E-01
(PID.TID 0000.0001)     ;
(PID.TID 0000.0001) startTime =   /* Run start time ( s ). */
(PID.TID 0000.0001)                 0.000000000000000E+00
(PID.TID 0000.0001)     ;
(PID.TID 0000.0001) endTime =   /* Integration ending time ( s ). */
(PID.TID 0000.0001)                 2.000000000000000E+00
(PID.TID 0000.0001)     ;
(PID.TID 0000.0001) pChkPtFreq =   /* Permanent restart/checkpoint file interval ( s ). */
(PID.TID 0000.0001)                 1.000000000000000E+00
(PID.TID 0000.0001)     ;
(PID.TID 0000.0001) chkPtFreq =   /* Rolling restart/checkpoint file interval ( s ). */
(PID.TID 0000.0001)                 1.000000000000000E+00
(PID.TID 0000.0001)     ;
(PID.TID 0000.0001) dumpFreq =   /* Model state write out interval ( s ). */
(PID.TID 0000.0001)                 1.000000000000000E+00
(PID.TID 0000.0001)     ;
(PID.TID 0000.0001) externForcingPeriod =   /* forcing period (s) */
(PID.TID 0000.0001)                 0.000000000000000E+00
(PID.TID 0000.0001)     ;
(PID.TID 0000.0001) externForcingCycle =   /* period of the cyle (s). */
(PID.TID 0000.0001)                 0.000000000000000E+00
(PID.TID 0000.0001)     ;
(PID.TID 0000.0001) tauThetaClimRelax =   /* relaxation time scale (s) */
(PID.TID 0000.0001)                 0.000000000000000E+00
(PID.TID 0000.0001)     ;
(PID.TID 0000.0001) tauSaltClimRelax =   /* relaxation time scale (s) */
(PID.TID 0000.0001)                 0.000000000000000E+00
(PID.TID 0000.0001)     ;
(PID.TID 0000.0001) latBandClimRelax =   /* max. Lat. where relaxation */
(PID.TID 0000.0001)                 1.234567000000000E+05
(PID.TID 0000.0001)     ;
(PID.TID 0000.0001) //
(PID.TID 0000.0001) // Gridding paramters ( PARM04 in namelist )
(PID.TID 0000.0001) //
(PID.TID 0000.0001) usingCartesianGrid =   /* Cartesian coordinates flag ( True / False ) */
(PID.TID 0000.0001)                   F
(PID.TID 0000.0001)     ;
(PID.TID 0000.0001) usingSphericalPolarGrid =   /* Spherical coordinates flag ( True / False ) */
(PID.TID 0000.0001)                   F
(PID.TID 0000.0001)     ;
(PID.TID 0000.0001) usingCylindricalGrid =   /* Spherical coordinates flag ( True / False ) */
(PID.TID 0000.0001)                   T
(PID.TID 0000.0001)     ;
(PID.TID 0000.0001) groundAtK1 =   /* Lower Boundary (ground) at the surface(k=1) ( T / F ) */
(PID.TID 0000.0001)                   F
(PID.TID 0000.0001)     ;
(PID.TID 0000.0001) Ro_SeaLevel =   /* r(1) ( units of r ) */
(PID.TID 0000.0001)                 0.000000000000000E+00
(PID.TID 0000.0001)     ;
(PID.TID 0000.0001) rkFac =   /* minus Vertical index orientation  */
(PID.TID 0000.0001)                 1.000000000000000E+00
(PID.TID 0000.0001)     ;
(PID.TID 0000.0001) horiVertRatio =   /* Ratio on units : Horiz - Vertical */
(PID.TID 0000.0001)                 1.000000000000000E+00
(PID.TID 0000.0001)     ;
(PID.TID 0000.0001) drC =   /* C spacing ( units of r ) */
(PID.TID 0000.0001)                 2.500000000000000E-03,      /* K =  1 */
(PID.TID 0000.0001)    28 @  5.000000000000000E-03              /* K =  2: 29 */
(PID.TID 0000.0001)     ;
(PID.TID 0000.0001) drF =   /* W spacing ( units of r ) */
(PID.TID 0000.0001)    29 @  5.000000000000000E-03              /* K =  1: 29 */
(PID.TID 0000.0001)     ;
(PID.TID 0000.0001) delX =   /* U spacing ( m - cartesian, degrees - spherical ) */
(PID.TID 0000.0001)   120 @  3.000000000000000E+00              /* I =  1:120 */
(PID.TID 0000.0001)     ;
(PID.TID 0000.0001) delY =   /* V spacing ( m - cartesian, degrees - spherical ) */
(PID.TID 0000.0001)    31 @  1.000000000000000E-02              /* J =  1: 31 */
(PID.TID 0000.0001)     ;
(PID.TID 0000.0001) phiMin =    /* South edge (ignored - cartesian, degrees - spherical ) */
(PID.TID 0000.0001)                 0.000000000000000E+00
(PID.TID 0000.0001)     ;
(PID.TID 0000.0001) thetaMin =    /* West edge ( ignored - cartesian, degrees - spherical ) */
(PID.TID 0000.0001)                 0.000000000000000E+00
(PID.TID 0000.0001)     ;
(PID.TID 0000.0001) rSphere =    /* Radius ( ignored - cartesian, m - spherical ) */
(PID.TID 0000.0001)                 6.370000000000000E+06
(PID.TID 0000.0001)     ;
(PID.TID 0000.0001) xcoord =   /* P-point X coord ( m - cartesian, degrees - spherical ) */
(PID.TID 0000.0001)                 1.500000000000000E+00,      /* I =  1 */
(PID.TID 0000.0001)                 4.500000000000000E+00,      /* I =  2 */
(PID.TID 0000.0001)                 7.500000000000000E+00,      /* I =  3 */
(PID.TID 0000.0001)                 1.050000000000000E+01,      /* I =  4 */
(PID.TID 0000.0001)                 1.350000000000000E+01,      /* I =  5 */
(PID.TID 0000.0001)                 1.650000000000000E+01,      /* I =  6 */
(PID.TID 0000.0001)                 1.950000000000000E+01,      /* I =  7 */
(PID.TID 0000.0001)                 2.250000000000000E+01,      /* I =  8 */
(PID.TID 0000.0001)                 2.550000000000000E+01,      /* I =  9 */
(PID.TID 0000.0001)                 2.850000000000000E+01,      /* I = 10 */
(PID.TID 0000.0001)                 3.150000000000000E+01,      /* I = 11 */
(PID.TID 0000.0001)                 3.450000000000000E+01,      /* I = 12 */
(PID.TID 0000.0001)                 3.750000000000000E+01,      /* I = 13 */
(PID.TID 0000.0001)                 4.050000000000000E+01,      /* I = 14 */
(PID.TID 0000.0001)                 4.350000000000000E+01,      /* I = 15 */
(PID.TID 0000.0001)                 4.650000000000000E+01,      /* I = 16 */
(PID.TID 0000.0001)                 4.950000000000000E+01,      /* I = 17 */
(PID.TID 0000.0001)                 5.250000000000000E+01,      /* I = 18 */
(PID.TID 0000.0001)                 5.550000000000000E+01,      /* I = 19 */
(PID.TID 0000.0001)                 5.850000000000000E+01,      /* I = 20 */
(PID.TID 0000.0001)                 6.150000000000000E+01,      /* I = 21 */
(PID.TID 0000.0001)                 6.450000000000000E+01,      /* I = 22 */
(PID.TID 0000.0001)                 6.750000000000000E+01,      /* I = 23 */
(PID.TID 0000.0001)                 7.050000000000000E+01,      /* I = 24 */
(PID.TID 0000.0001)                 7.350000000000000E+01,      /* I = 25 */
(PID.TID 0000.0001)                 7.650000000000000E+01,      /* I = 26 */
(PID.TID 0000.0001)                 7.950000000000000E+01,      /* I = 27 */
(PID.TID 0000.0001)                 8.250000000000000E+01,      /* I = 28 */
(PID.TID 0000.0001)                 8.550000000000000E+01,      /* I = 29 */
(PID.TID 0000.0001)                 8.850000000000000E+01,      /* I = 30 */
(PID.TID 0000.0001)                 9.150000000000000E+01,      /* I = 31 */
(PID.TID 0000.0001)                 9.450000000000000E+01,      /* I = 32 */
(PID.TID 0000.0001)                 9.750000000000000E+01,      /* I = 33 */
(PID.TID 0000.0001)                 1.005000000000000E+02,      /* I = 34 */
(PID.TID 0000.0001)                 1.035000000000000E+02,      /* I = 35 */
(PID.TID 0000.0001)                 1.065000000000000E+02,      /* I = 36 */
(PID.TID 0000.0001)                 1.095000000000000E+02,      /* I = 37 */
(PID.TID 0000.0001)                 1.125000000000000E+02,      /* I = 38 */
(PID.TID 0000.0001)                 1.155000000000000E+02,      /* I = 39 */
(PID.TID 0000.0001)                 1.185000000000000E+02,      /* I = 40 */
(PID.TID 0000.0001)                 1.215000000000000E+02,      /* I = 41 */
(PID.TID 0000.0001)                 1.245000000000000E+02,      /* I = 42 */
(PID.TID 0000.0001)                 1.275000000000000E+02,      /* I = 43 */
(PID.TID 0000.0001)                 1.305000000000000E+02,      /* I = 44 */
(PID.TID 0000.0001)                 1.335000000000000E+02,      /* I = 45 */
(PID.TID 0000.0001)                 1.365000000000000E+02,      /* I = 46 */
(PID.TID 0000.0001)                 1.395000000000000E+02,      /* I = 47 */
(PID.TID 0000.0001)                 1.425000000000000E+02,      /* I = 48 */
(PID.TID 0000.0001)                 1.455000000000000E+02,      /* I = 49 */
(PID.TID 0000.0001)                 1.485000000000000E+02,      /* I = 50 */
(PID.TID 0000.0001)                 1.515000000000000E+02,      /* I = 51 */
(PID.TID 0000.0001)                 1.545000000000000E+02,      /* I = 52 */
(PID.TID 0000.0001)                 1.575000000000000E+02,      /* I = 53 */
(PID.TID 0000.0001)                 1.605000000000000E+02,      /* I = 54 */
(PID.TID 0000.0001)                 1.635000000000000E+02,      /* I = 55 */
(PID.TID 0000.0001)                 1.665000000000000E+02,      /* I = 56 */
(PID.TID 0000.0001)                 1.695000000000000E+02,      /* I = 57 */
(PID.TID 0000.0001)                 1.725000000000000E+02,      /* I = 58 */
(PID.TID 0000.0001)                 1.755000000000000E+02,      /* I = 59 */
(PID.TID 0000.0001)                 1.785000000000000E+02,      /* I = 60 */
(PID.TID 0000.0001)                 1.815000000000000E+02,      /* I = 61 */
(PID.TID 0000.0001)                 1.845000000000000E+02,      /* I = 62 */
(PID.TID 0000.0001)                 1.875000000000000E+02,      /* I = 63 */
(PID.TID 0000.0001)                 1.905000000000000E+02,      /* I = 64 */
(PID.TID 0000.0001)                 1.935000000000000E+02,      /* I = 65 */
(PID.TID 0000.0001)                 1.965000000000000E+02,      /* I = 66 */
(PID.TID 0000.0001)                 1.995000000000000E+02,      /* I = 67 */
(PID.TID 0000.0001)                 2.025000000000000E+02,      /* I = 68 */
(PID.TID 0000.0001)                 2.055000000000000E+02,      /* I = 69 */
(PID.TID 0000.0001)                 2.085000000000000E+02,      /* I = 70 */
(PID.TID 0000.0001)                 2.115000000000000E+02,      /* I = 71 */
(PID.TID 0000.0001)                 2.145000000000000E+02,      /* I = 72 */
(PID.TID 0000.0001)                 2.175000000000000E+02,      /* I = 73 */
(PID.TID 0000.0001)                 2.205000000000000E+02,      /* I = 74 */
(PID.TID 0000.0001)                 2.235000000000000E+02,      /* I = 75 */
(PID.TID 0000.0001)                 2.265000000000000E+02,      /* I = 76 */
(PID.TID 0000.0001)                 2.295000000000000E+02,      /* I = 77 */
(PID.TID 0000.0001)                 2.325000000000000E+02,      /* I = 78 */
(PID.TID 0000.0001)                 2.355000000000000E+02,      /* I = 79 */
(PID.TID 0000.0001)                 2.385000000000000E+02,      /* I = 80 */
(PID.TID 0000.0001)                 2.415000000000000E+02,      /* I = 81 */
(PID.TID 0000.0001)                 2.445000000000000E+02,      /* I = 82 */
(PID.TID 0000.0001)                 2.475000000000000E+02,      /* I = 83 */
(PID.TID 0000.0001)                 2.505000000000000E+02,      /* I = 84 */
(PID.TID 0000.0001)                 2.535000000000000E+02,      /* I = 85 */
(PID.TID 0000.0001)                 2.565000000000000E+02,      /* I = 86 */
(PID.TID 0000.0001)                 2.595000000000000E+02,      /* I = 87 */
(PID.TID 0000.0001)                 2.625000000000000E+02,      /* I = 88 */
(PID.TID 0000.0001)                 2.655000000000000E+02,      /* I = 89 */
(PID.TID 0000.0001)                 2.685000000000000E+02,      /* I = 90 */
(PID.TID 0000.0001)                 2.715000000000000E+02,      /* I = 91 */
(PID.TID 0000.0001)                 2.745000000000000E+02,      /* I = 92 */
(PID.TID 0000.0001)                 2.775000000000000E+02,      /* I = 93 */
(PID.TID 0000.0001)                 2.805000000000000E+02,      /* I = 94 */
(PID.TID 0000.0001)                 2.835000000000000E+02,      /* I = 95 */
(PID.TID 0000.0001)                 2.865000000000000E+02,      /* I = 96 */
(PID.TID 0000.0001)                 2.895000000000000E+02,      /* I = 97 */
(PID.TID 0000.0001)                 2.925000000000000E+02,      /* I = 98 */
(PID.TID 0000.0001)                 2.955000000000000E+02,      /* I = 99 */
(PID.TID 0000.0001)                 2.985000000000000E+02,      /* I =100 */
(PID.TID 0000.0001)                 3.015000000000000E+02,      /* I =101 */
(PID.TID 0000.0001)                 3.045000000000000E+02,      /* I =102 */
(PID.TID 0000.0001)                 3.075000000000000E+02,      /* I =103 */
(PID.TID 0000.0001)                 3.105000000000000E+02,      /* I =104 */
(PID.TID 0000.0001)                 3.135000000000000E+02,      /* I =105 */
(PID.TID 0000.0001)                 3.165000000000000E+02,      /* I =106 */
(PID.TID 0000.0001)                 3.195000000000000E+02,      /* I =107 */
(PID.TID 0000.0001)                 3.225000000000000E+02,      /* I =108 */
(PID.TID 0000.0001)                 3.255000000000000E+02,      /* I =109 */
(PID.TID 0000.0001)                 3.285000000000000E+02,      /* I =110 */
(PID.TID 0000.0001)                 3.315000000000000E+02,      /* I =111 */
(PID.TID 0000.0001)                 3.345000000000000E+02,      /* I =112 */
(PID.TID 0000.0001)                 3.375000000000000E+02,      /* I =113 */
(PID.TID 0000.0001)                 3.405000000000000E+02,      /* I =114 */
(PID.TID 0000.0001)                 3.435000000000000E+02,      /* I =115 */
(PID.TID 0000.0001)                 3.465000000000000E+02,      /* I =116 */
(PID.TID 0000.0001)                 3.495000000000000E+02,      /* I =117 */
(PID.TID 0000.0001)                 3.525000000000000E+02,      /* I =118 */
(PID.TID 0000.0001)                 3.555000000000000E+02,      /* I =119 */
(PID.TID 0000.0001)                 3.585000000000000E+02       /* I =120 */
(PID.TID 0000.0001)     ;
(PID.TID 0000.0001) ycoord =   /* P-point Y coord ( m - cartesian, degrees - spherical ) */
(PID.TID 0000.0001)                 5.000000000000004E-03,      /* J =  1 */
(PID.TID 0000.0001)                 1.500000000000000E-02,      /* J =  2 */
(PID.TID 0000.0001)                 2.500000000000000E-02,      /* J =  3 */
(PID.TID 0000.0001)                 3.500000000000000E-02,      /* J =  4 */
(PID.TID 0000.0001)                 4.500000000000001E-02,      /* J =  5 */
(PID.TID 0000.0001)                 5.500000000000001E-02,      /* J =  6 */
(PID.TID 0000.0001)                 6.500000000000000E-02,      /* J =  7 */
(PID.TID 0000.0001)                 7.500000000000001E-02,      /* J =  8 */
(PID.TID 0000.0001)                 8.499999999999999E-02,      /* J =  9 */
(PID.TID 0000.0001)                 9.500000000000000E-02,      /* J = 10 */
(PID.TID 0000.0001)                 1.050000000000000E-01,      /* J = 11 */
(PID.TID 0000.0001)                 1.150000000000000E-01,      /* J = 12 */
(PID.TID 0000.0001)                 1.250000000000000E-01,      /* J = 13 */
(PID.TID 0000.0001)                 1.350000000000000E-01,      /* J = 14 */
(PID.TID 0000.0001)                 1.450000000000000E-01,      /* J = 15 */
(PID.TID 0000.0001)                 1.550000000000000E-01,      /* J = 16 */
(PID.TID 0000.0001)                 1.650000000000000E-01,      /* J = 17 */
(PID.TID 0000.0001)                 1.750000000000000E-01,      /* J = 18 */
(PID.TID 0000.0001)                 1.850000000000000E-01,      /* J = 19 */
(PID.TID 0000.0001)                 1.950000000000000E-01,      /* J = 20 */
(PID.TID 0000.0001)                 2.050000000000000E-01,      /* J = 21 */
(PID.TID 0000.0001)                 2.150000000000001E-01,      /* J = 22 */
(PID.TID 0000.0001)                 2.250000000000001E-01,      /* J = 23 */
(PID.TID 0000.0001)                 2.350000000000001E-01,      /* J = 24 */
(PID.TID 0000.0001)                 2.450000000000001E-01,      /* J = 25 */
(PID.TID 0000.0001)                 2.550000000000001E-01,      /* J = 26 */
(PID.TID 0000.0001)                 2.650000000000001E-01,      /* J = 27 */
(PID.TID 0000.0001)                 2.750000000000001E-01,      /* J = 28 */
(PID.TID 0000.0001)                 2.850000000000001E-01,      /* J = 29 */
(PID.TID 0000.0001)                 2.950000000000001E-01,      /* J = 30 */
(PID.TID 0000.0001)                 3.050000000000001E-01       /* J = 31 */
(PID.TID 0000.0001)     ;
(PID.TID 0000.0001) rcoord =   /* P-point R coordinate (  units of r ) */
(PID.TID 0000.0001)                -2.500000000000000E-03,      /* K =  1 */
(PID.TID 0000.0001)                -7.500000000000000E-03,      /* K =  2 */
(PID.TID 0000.0001)                -1.250000000000000E-02,      /* K =  3 */
(PID.TID 0000.0001)                -1.750000000000000E-02,      /* K =  4 */
(PID.TID 0000.0001)                -2.250000000000000E-02,      /* K =  5 */
(PID.TID 0000.0001)                -2.750000000000000E-02,      /* K =  6 */
(PID.TID 0000.0001)                -3.250000000000000E-02,      /* K =  7 */
(PID.TID 0000.0001)                -3.750000000000000E-02,      /* K =  8 */
(PID.TID 0000.0001)                -4.250000000000000E-02,      /* K =  9 */
(PID.TID 0000.0001)                -4.749999999999999E-02,      /* K = 10 */
(PID.TID 0000.0001)                -5.249999999999999E-02,      /* K = 11 */
(PID.TID 0000.0001)                -5.749999999999999E-02,      /* K = 12 */
(PID.TID 0000.0001)                -6.249999999999999E-02,      /* K = 13 */
(PID.TID 0000.0001)                -6.749999999999999E-02,      /* K = 14 */
(PID.TID 0000.0001)                -7.250000000000000E-02,      /* K = 15 */
(PID.TID 0000.0001)                -7.750000000000000E-02,      /* K = 16 */
(PID.TID 0000.0001)                -8.250000000000000E-02,      /* K = 17 */
(PID.TID 0000.0001)                -8.750000000000001E-02,      /* K = 18 */
(PID.TID 0000.0001)                -9.250000000000001E-02,      /* K = 19 */
(PID.TID 0000.0001)                -9.750000000000002E-02,      /* K = 20 */
(PID.TID 0000.0001)                -1.025000000000000E-01,      /* K = 21 */
(PID.TID 0000.0001)                -1.075000000000000E-01,      /* K = 22 */
(PID.TID 0000.0001)                -1.125000000000000E-01,      /* K = 23 */
(PID.TID 0000.0001)                -1.175000000000000E-01,      /* K = 24 */
(PID.TID 0000.0001)                -1.225000000000000E-01,      /* K = 25 */
(PID.TID 0000.0001)                -1.275000000000000E-01,      /* K = 26 */
(PID.TID 0000.0001)                -1.325000000000000E-01,      /* K = 27 */
(PID.TID 0000.0001)                -1.375000000000000E-01,      /* K = 28 */
(PID.TID 0000.0001)                -1.425000000000000E-01       /* K = 29 */
(PID.TID 0000.0001)     ;
(PID.TID 0000.0001) rF =   /* W-Interf. R coordinate (  units of r ) */
(PID.TID 0000.0001)                 0.000000000000000E+00,      /* K =  1 */
(PID.TID 0000.0001)                -5.000000000000000E-03,      /* K =  2 */
(PID.TID 0000.0001)                -1.000000000000000E-02,      /* K =  3 */
(PID.TID 0000.0001)                -1.500000000000000E-02,      /* K =  4 */
(PID.TID 0000.0001)                -2.000000000000000E-02,      /* K =  5 */
(PID.TID 0000.0001)                -2.500000000000000E-02,      /* K =  6 */
(PID.TID 0000.0001)                -3.000000000000000E-02,      /* K =  7 */
(PID.TID 0000.0001)                -3.500000000000000E-02,      /* K =  8 */
(PID.TID 0000.0001)                -4.000000000000000E-02,      /* K =  9 */
(PID.TID 0000.0001)                -4.500000000000000E-02,      /* K = 10 */
(PID.TID 0000.0001)                -5.000000000000000E-02,      /* K = 11 */
(PID.TID 0000.0001)                -5.499999999999999E-02,      /* K = 12 */
(PID.TID 0000.0001)                -5.999999999999999E-02,      /* K = 13 */
(PID.TID 0000.0001)                -6.499999999999999E-02,      /* K = 14 */
(PID.TID 0000.0001)                -6.999999999999999E-02,      /* K = 15 */
(PID.TID 0000.0001)                -7.500000000000000E-02,      /* K = 16 */
(PID.TID 0000.0001)                -8.000000000000000E-02,      /* K = 17 */
(PID.TID 0000.0001)                -8.500000000000001E-02,      /* K = 18 */
(PID.TID 0000.0001)                -9.000000000000001E-02,      /* K = 19 */
(PID.TID 0000.0001)                -9.500000000000001E-02,      /* K = 20 */
(PID.TID 0000.0001)                -1.000000000000000E-01,      /* K = 21 */
(PID.TID 0000.0001)                -1.050000000000000E-01,      /* K = 22 */
(PID.TID 0000.0001)                -1.100000000000000E-01,      /* K = 23 */
(PID.TID 0000.0001)                -1.150000000000000E-01,      /* K = 24 */
(PID.TID 0000.0001)                -1.200000000000000E-01,      /* K = 25 */
(PID.TID 0000.0001)                -1.250000000000000E-01,      /* K = 26 */
(PID.TID 0000.0001)                -1.300000000000000E-01,      /* K = 27 */
(PID.TID 0000.0001)                -1.350000000000000E-01,      /* K = 28 */
(PID.TID 0000.0001)                -1.400000000000000E-01,      /* K = 29 */
(PID.TID 0000.0001)                -1.450000000000000E-01       /* K = 30 */
(PID.TID 0000.0001)     ;
(PID.TID 0000.0001) dxF =  /* dxF(:,1,:,1) ( m - cartesian, degrees - spherical ) */
(PID.TID 0000.0001)   120 @  2.617993877991496E-04              /* I =  1:120 */
(PID.TID 0000.0001)     ;
(PID.TID 0000.0001) dxF =  /* dxF(1,:,1,:) ( m - cartesian, degrees - spherical ) */
(PID.TID 0000.0001)                 2.617993877991496E-04,      /* J =  1 */
(PID.TID 0000.0001)                 7.853981633974484E-04,      /* J =  2 */
(PID.TID 0000.0001)                 1.308996938995747E-03,      /* J =  3 */
(PID.TID 0000.0001)                 1.832595714594046E-03,      /* J =  4 */
(PID.TID 0000.0001)                 2.356194490192346E-03,      /* J =  5 */
(PID.TID 0000.0001)                 2.879793265790644E-03,      /* J =  6 */
(PID.TID 0000.0001)                 3.403392041388943E-03,      /* J =  7 */
(PID.TID 0000.0001)                 3.926990816987242E-03,      /* J =  8 */
(PID.TID 0000.0001)                 4.450589592585540E-03,      /* J =  9 */
(PID.TID 0000.0001)                 4.974188368183839E-03,      /* J = 10 */
(PID.TID 0000.0001)                 5.497787143782137E-03,      /* J = 11 */
(PID.TID 0000.0001)                 6.021385919380436E-03,      /* J = 12 */
(PID.TID 0000.0001)                 6.544984694978735E-03,      /* J = 13 */
(PID.TID 0000.0001)                 7.068583470577034E-03,      /* J = 14 */
(PID.TID 0000.0001)                 7.592182246175333E-03,      /* J = 15 */
(PID.TID 0000.0001)                 8.115781021773632E-03,      /* J = 16 */
(PID.TID 0000.0001)                 8.639379797371931E-03,      /* J = 17 */
(PID.TID 0000.0001)                 9.162978572970231E-03,      /* J = 18 */
(PID.TID 0000.0001)                 9.686577348568530E-03,      /* J = 19 */
(PID.TID 0000.0001)                 1.021017612416683E-02,      /* J = 20 */
(PID.TID 0000.0001)                 1.073377489976513E-02,      /* J = 21 */
(PID.TID 0000.0001)                 1.125737367536343E-02,      /* J = 22 */
(PID.TID 0000.0001)                 1.178097245096173E-02,      /* J = 23 */
(PID.TID 0000.0001)                 1.230457122656003E-02,      /* J = 24 */
(PID.TID 0000.0001)                 1.282817000215833E-02,      /* J = 25 */
(PID.TID 0000.0001)                 1.335176877775662E-02,      /* J = 26 */
(PID.TID 0000.0001)                 1.387536755335492E-02,      /* J = 27 */
(PID.TID 0000.0001)                 1.439896632895322E-02,      /* J = 28 */
(PID.TID 0000.0001)                 1.492256510455152E-02,      /* J = 29 */
(PID.TID 0000.0001)                 1.544616388014982E-02,      /* J = 30 */
(PID.TID 0000.0001)                 1.596976265574812E-02       /* J = 31 */
(PID.TID 0000.0001)     ;
(PID.TID 0000.0001) dyF =  /* dyF(:,1,:,1) ( m - cartesian, degrees - spherical ) */
(PID.TID 0000.0001)   120 @  1.000000000000000E-02              /* I =  1:120 */
(PID.TID 0000.0001)     ;
(PID.TID 0000.0001) dyF =  /* dyF(1,:,1,:) ( m - cartesian, degrees - spherical ) */
(PID.TID 0000.0001)    31 @  1.000000000000000E-02              /* J =  1: 31 */
(PID.TID 0000.0001)     ;
(PID.TID 0000.0001) dxG =  /* dxG(:,1,:,1) ( m - cartesian, degrees - spherical ) */
(PID.TID 0000.0001)   120 @  1.816598176046163E-19              /* I =  1:120 */
(PID.TID 0000.0001)     ;
(PID.TID 0000.0001) dxG =  /* dxG(1,:,1,:) ( m - cartesian, degrees - spherical ) */
(PID.TID 0000.0001)                 1.816598176046163E-19,      /* J =  1 */
(PID.TID 0000.0001)                 5.235987755982990E-04,      /* J =  2 */
(PID.TID 0000.0001)                 1.047197551196598E-03,      /* J =  3 */
(PID.TID 0000.0001)                 1.570796326794897E-03,      /* J =  4 */
(PID.TID 0000.0001)                 2.094395102393196E-03,      /* J =  5 */
(PID.TID 0000.0001)                 2.617993877991495E-03,      /* J =  6 */
(PID.TID 0000.0001)                 3.141592653589794E-03,      /* J =  7 */
(PID.TID 0000.0001)                 3.665191429188093E-03,      /* J =  8 */
(PID.TID 0000.0001)                 4.188790204786391E-03,      /* J =  9 */
(PID.TID 0000.0001)                 4.712388980384690E-03,      /* J = 10 */
(PID.TID 0000.0001)                 5.235987755982988E-03,      /* J = 11 */
(PID.TID 0000.0001)                 5.759586531581287E-03,      /* J = 12 */
(PID.TID 0000.0001)                 6.283185307179586E-03,      /* J = 13 */
(PID.TID 0000.0001)                 6.806784082777884E-03,      /* J = 14 */
(PID.TID 0000.0001)                 7.330382858376183E-03,      /* J = 15 */
(PID.TID 0000.0001)                 7.853981633974483E-03,      /* J = 16 */
(PID.TID 0000.0001)                 8.377580409572783E-03,      /* J = 17 */
(PID.TID 0000.0001)                 8.901179185171082E-03,      /* J = 18 */
(PID.TID 0000.0001)                 9.424777960769381E-03,      /* J = 19 */
(PID.TID 0000.0001)                 9.948376736367680E-03,      /* J = 20 */
(PID.TID 0000.0001)                 1.047197551196598E-02,      /* J = 21 */
(PID.TID 0000.0001)                 1.099557428756428E-02,      /* J = 22 */
(PID.TID 0000.0001)                 1.151917306316258E-02,      /* J = 23 */
(PID.TID 0000.0001)                 1.204277183876088E-02,      /* J = 24 */
(PID.TID 0000.0001)                 1.256637061435918E-02,      /* J = 25 */
(PID.TID 0000.0001)                 1.308996938995747E-02,      /* J = 26 */
(PID.TID 0000.0001)                 1.361356816555577E-02,      /* J = 27 */
(PID.TID 0000.0001)                 1.413716694115407E-02,      /* J = 28 */
(PID.TID 0000.0001)                 1.466076571675237E-02,      /* J = 29 */
(PID.TID 0000.0001)                 1.518436449235067E-02,      /* J = 30 */
(PID.TID 0000.0001)                 1.570796326794897E-02       /* J = 31 */
(PID.TID 0000.0001)     ;
(PID.TID 0000.0001) dyG =  /* dyG(:,1,:,1) ( m - cartesian, degrees - spherical ) */
(PID.TID 0000.0001)   120 @  1.000000000000000E-02              /* I =  1:120 */
(PID.TID 0000.0001)     ;
(PID.TID 0000.0001) dyG =  /* dyG(1,:,1,:) ( m - cartesian, degrees - spherical ) */
(PID.TID 0000.0001)    31 @  1.000000000000000E-02              /* J =  1: 31 */
(PID.TID 0000.0001)     ;
(PID.TID 0000.0001) dxC =  /* dxC(:,1,:,1) ( m - cartesian, degrees - spherical ) */
(PID.TID 0000.0001)   120 @  2.617993877991496E-04              /* I =  1:120 */
(PID.TID 0000.0001)     ;
(PID.TID 0000.0001) dxC =  /* dxC(1,:,1,:) ( m - cartesian, degrees - spherical ) */
(PID.TID 0000.0001)                 2.617993877991496E-04,      /* J =  1 */
(PID.TID 0000.0001)                 7.853981633974484E-04,      /* J =  2 */
(PID.TID 0000.0001)                 1.308996938995747E-03,      /* J =  3 */
(PID.TID 0000.0001)                 1.832595714594046E-03,      /* J =  4 */
(PID.TID 0000.0001)                 2.356194490192346E-03,      /* J =  5 */
(PID.TID 0000.0001)                 2.879793265790644E-03,      /* J =  6 */
(PID.TID 0000.0001)                 3.403392041388943E-03,      /* J =  7 */
(PID.TID 0000.0001)                 3.926990816987242E-03,      /* J =  8 */
(PID.TID 0000.0001)                 4.450589592585540E-03,      /* J =  9 */
(PID.TID 0000.0001)                 4.974188368183839E-03,      /* J = 10 */
(PID.TID 0000.0001)                 5.497787143782137E-03,      /* J = 11 */
(PID.TID 0000.0001)                 6.021385919380436E-03,      /* J = 12 */
(PID.TID 0000.0001)                 6.544984694978735E-03,      /* J = 13 */
(PID.TID 0000.0001)                 7.068583470577034E-03,      /* J = 14 */
(PID.TID 0000.0001)                 7.592182246175333E-03,      /* J = 15 */
(PID.TID 0000.0001)                 8.115781021773632E-03,      /* J = 16 */
(PID.TID 0000.0001)                 8.639379797371931E-03,      /* J = 17 */
(PID.TID 0000.0001)                 9.162978572970231E-03,      /* J = 18 */
(PID.TID 0000.0001)                 9.686577348568530E-03,      /* J = 19 */
(PID.TID 0000.0001)                 1.021017612416683E-02,      /* J = 20 */
(PID.TID 0000.0001)                 1.073377489976513E-02,      /* J = 21 */
(PID.TID 0000.0001)                 1.125737367536343E-02,      /* J = 22 */
(PID.TID 0000.0001)                 1.178097245096173E-02,      /* J = 23 */
(PID.TID 0000.0001)                 1.230457122656003E-02,      /* J = 24 */
(PID.TID 0000.0001)                 1.282817000215833E-02,      /* J = 25 */
(PID.TID 0000.0001)                 1.335176877775662E-02,      /* J = 26 */
(PID.TID 0000.0001)                 1.387536755335492E-02,      /* J = 27 */
(PID.TID 0000.0001)                 1.439896632895322E-02,      /* J = 28 */
(PID.TID 0000.0001)                 1.492256510455152E-02,      /* J = 29 */
(PID.TID 0000.0001)                 1.544616388014982E-02,      /* J = 30 */
(PID.TID 0000.0001)                 1.596976265574812E-02       /* J = 31 */
(PID.TID 0000.0001)     ;
(PID.TID 0000.0001) dyC =  /* dyC(:,1,:,1) ( m - cartesian, degrees - spherical ) */
(PID.TID 0000.0001)   120 @  1.000000000000000E-02              /* I =  1:120 */
(PID.TID 0000.0001)     ;
(PID.TID 0000.0001) dyC =  /* dyC(1,:,1,:) ( m - cartesian, degrees - spherical ) */
(PID.TID 0000.0001)    31 @  1.000000000000000E-02              /* J =  1: 31 */
(PID.TID 0000.0001)     ;
(PID.TID 0000.0001) dxV =  /* dxV(:,1,:,1) ( m - cartesian, degrees - spherical ) */
(PID.TID 0000.0001)   120 @  1.816598176046163E-19              /* I =  1:120 */
(PID.TID 0000.0001)     ;
(PID.TID 0000.0001) dxV =  /* dxV(1,:,1,:) ( m - cartesian, degrees - spherical ) */
(PID.TID 0000.0001)                 1.816598176046163E-19,      /* J =  1 */
(PID.TID 0000.0001)                 5.235987755982990E-04,      /* J =  2 */
(PID.TID 0000.0001)                 1.047197551196598E-03,      /* J =  3 */
(PID.TID 0000.0001)                 1.570796326794897E-03,      /* J =  4 */
(PID.TID 0000.0001)                 2.094395102393196E-03,      /* J =  5 */
(PID.TID 0000.0001)                 2.617993877991495E-03,      /* J =  6 */
(PID.TID 0000.0001)                 3.141592653589794E-03,      /* J =  7 */
(PID.TID 0000.0001)                 3.665191429188093E-03,      /* J =  8 */
(PID.TID 0000.0001)                 4.188790204786391E-03,      /* J =  9 */
(PID.TID 0000.0001)                 4.712388980384690E-03,      /* J = 10 */
(PID.TID 0000.0001)                 5.235987755982988E-03,      /* J = 11 */
(PID.TID 0000.0001)                 5.759586531581287E-03,      /* J = 12 */
(PID.TID 0000.0001)                 6.283185307179586E-03,      /* J = 13 */
(PID.TID 0000.0001)                 6.806784082777884E-03,      /* J = 14 */
(PID.TID 0000.0001)                 7.330382858376183E-03,      /* J = 15 */
(PID.TID 0000.0001)                 7.853981633974483E-03,      /* J = 16 */
(PID.TID 0000.0001)                 8.377580409572783E-03,      /* J = 17 */
(PID.TID 0000.0001)                 8.901179185171082E-03,      /* J = 18 */
(PID.TID 0000.0001)                 9.424777960769381E-03,      /* J = 19 */
(PID.TID 0000.0001)                 9.948376736367680E-03,      /* J = 20 */
(PID.TID 0000.0001)                 1.047197551196598E-02,      /* J = 21 */
(PID.TID 0000.0001)                 1.099557428756428E-02,      /* J = 22 */
(PID.TID 0000.0001)                 1.151917306316258E-02,      /* J = 23 */
(PID.TID 0000.0001)                 1.204277183876088E-02,      /* J = 24 */
(PID.TID 0000.0001)                 1.256637061435918E-02,      /* J = 25 */
(PID.TID 0000.0001)                 1.308996938995747E-02,      /* J = 26 */
(PID.TID 0000.0001)                 1.361356816555577E-02,      /* J = 27 */
(PID.TID 0000.0001)                 1.413716694115407E-02,      /* J = 28 */
(PID.TID 0000.0001)                 1.466076571675237E-02,      /* J = 29 */
(PID.TID 0000.0001)                 1.518436449235067E-02,      /* J = 30 */
(PID.TID 0000.0001)                 1.570796326794897E-02       /* J = 31 */
(PID.TID 0000.0001)     ;
(PID.TID 0000.0001) dyU =  /* dyU(:,1,:,1) ( m - cartesian, degrees - spherical ) */
(PID.TID 0000.0001)   120 @  1.000000000000000E-02              /* I =  1:120 */
(PID.TID 0000.0001)     ;
(PID.TID 0000.0001) dyU =  /* dyU(1,:,1,:) ( m - cartesian, degrees - spherical ) */
(PID.TID 0000.0001)    31 @  1.000000000000000E-02              /* J =  1: 31 */
(PID.TID 0000.0001)     ;
(PID.TID 0000.0001) rA =  /* rA(:,1,:,1) ( m - cartesian, degrees - spherical ) */
(PID.TID 0000.0001)   120 @  2.617993877991496E-06              /* I =  1:120 */
(PID.TID 0000.0001)     ;
(PID.TID 0000.0001) rA =  /* rA(1,:,1,:) ( m - cartesian, degrees - spherical ) */
(PID.TID 0000.0001)                 2.617993877991496E-06,      /* J =  1 */
(PID.TID 0000.0001)                 7.853981633974484E-06,      /* J =  2 */
(PID.TID 0000.0001)                 1.308996938995748E-05,      /* J =  3 */
(PID.TID 0000.0001)                 1.832595714594046E-05,      /* J =  4 */
(PID.TID 0000.0001)                 2.356194490192346E-05,      /* J =  5 */
(PID.TID 0000.0001)                 2.879793265790644E-05,      /* J =  6 */
(PID.TID 0000.0001)                 3.403392041388943E-05,      /* J =  7 */
(PID.TID 0000.0001)                 3.926990816987242E-05,      /* J =  8 */
(PID.TID 0000.0001)                 4.450589592585540E-05,      /* J =  9 */
(PID.TID 0000.0001)                 4.974188368183839E-05,      /* J = 10 */
(PID.TID 0000.0001)                 5.497787143782137E-05,      /* J = 11 */
(PID.TID 0000.0001)                 6.021385919380436E-05,      /* J = 12 */
(PID.TID 0000.0001)                 6.544984694978735E-05,      /* J = 13 */
(PID.TID 0000.0001)                 7.068583470577034E-05,      /* J = 14 */
(PID.TID 0000.0001)                 7.592182246175333E-05,      /* J = 15 */
(PID.TID 0000.0001)                 8.115781021773632E-05,      /* J = 16 */
(PID.TID 0000.0001)                 8.639379797371931E-05,      /* J = 17 */
(PID.TID 0000.0001)                 9.162978572970230E-05,      /* J = 18 */
(PID.TID 0000.0001)                 9.686577348568531E-05,      /* J = 19 */
(PID.TID 0000.0001)                 1.021017612416683E-04,      /* J = 20 */
(PID.TID 0000.0001)                 1.073377489976513E-04,      /* J = 21 */
(PID.TID 0000.0001)                 1.125737367536343E-04,      /* J = 22 */
(PID.TID 0000.0001)                 1.178097245096173E-04,      /* J = 23 */
(PID.TID 0000.0001)                 1.230457122656003E-04,      /* J = 24 */
(PID.TID 0000.0001)                 1.282817000215833E-04,      /* J = 25 */
(PID.TID 0000.0001)                 1.335176877775663E-04,      /* J = 26 */
(PID.TID 0000.0001)                 1.387536755335492E-04,      /* J = 27 */
(PID.TID 0000.0001)                 1.439896632895322E-04,      /* J = 28 */
(PID.TID 0000.0001)                 1.492256510455152E-04,      /* J = 29 */
(PID.TID 0000.0001)                 1.544616388014982E-04,      /* J = 30 */
(PID.TID 0000.0001)                 1.596976265574812E-04       /* J = 31 */
(PID.TID 0000.0001)     ;
(PID.TID 0000.0001) rAw =  /* rAw(:,1,:,1) ( m - cartesian, degrees - spherical ) */
(PID.TID 0000.0001)   120 @  2.617993877991496E-06              /* I =  1:120 */
(PID.TID 0000.0001)     ;
(PID.TID 0000.0001) rAw =  /* rAw(1,:,1,:) ( m - cartesian, degrees - spherical ) */
(PID.TID 0000.0001)                 2.617993877991496E-06,      /* J =  1 */
(PID.TID 0000.0001)                 7.853981633974484E-06,      /* J =  2 */
(PID.TID 0000.0001)                 1.308996938995748E-05,      /* J =  3 */
(PID.TID 0000.0001)                 1.832595714594046E-05,      /* J =  4 */
(PID.TID 0000.0001)                 2.356194490192346E-05,      /* J =  5 */
(PID.TID 0000.0001)                 2.879793265790644E-05,      /* J =  6 */
(PID.TID 0000.0001)                 3.403392041388943E-05,      /* J =  7 */
(PID.TID 0000.0001)                 3.926990816987242E-05,      /* J =  8 */
(PID.TID 0000.0001)                 4.450589592585540E-05,      /* J =  9 */
(PID.TID 0000.0001)                 4.974188368183839E-05,      /* J = 10 */
(PID.TID 0000.0001)                 5.497787143782137E-05,      /* J = 11 */
(PID.TID 0000.0001)                 6.021385919380436E-05,      /* J = 12 */
(PID.TID 0000.0001)                 6.544984694978735E-05,      /* J = 13 */
(PID.TID 0000.0001)                 7.068583470577034E-05,      /* J = 14 */
(PID.TID 0000.0001)                 7.592182246175333E-05,      /* J = 15 */
(PID.TID 0000.0001)                 8.115781021773632E-05,      /* J = 16 */
(PID.TID 0000.0001)                 8.639379797371931E-05,      /* J = 17 */
(PID.TID 0000.0001)                 9.162978572970230E-05,      /* J = 18 */
(PID.TID 0000.0001)                 9.686577348568531E-05,      /* J = 19 */
(PID.TID 0000.0001)                 1.021017612416683E-04,      /* J = 20 */
(PID.TID 0000.0001)                 1.073377489976513E-04,      /* J = 21 */
(PID.TID 0000.0001)                 1.125737367536343E-04,      /* J = 22 */
(PID.TID 0000.0001)                 1.178097245096173E-04,      /* J = 23 */
(PID.TID 0000.0001)                 1.230457122656003E-04,      /* J = 24 */
(PID.TID 0000.0001)                 1.282817000215833E-04,      /* J = 25 */
(PID.TID 0000.0001)                 1.335176877775663E-04,      /* J = 26 */
(PID.TID 0000.0001)                 1.387536755335492E-04,      /* J = 27 */
(PID.TID 0000.0001)                 1.439896632895322E-04,      /* J = 28 */
(PID.TID 0000.0001)                 1.492256510455152E-04,      /* J = 29 */
(PID.TID 0000.0001)                 1.544616388014982E-04,      /* J = 30 */
(PID.TID 0000.0001)                 1.596976265574812E-04       /* J = 31 */
(PID.TID 0000.0001)     ;
(PID.TID 0000.0001) rAs =  /* rAs(:,1,:,1) ( m - cartesian, degrees - spherical ) */
(PID.TID 0000.0001)   120 @  1.816598176046163E-21              /* I =  1:120 */
(PID.TID 0000.0001)     ;
(PID.TID 0000.0001) rAs =  /* rAs(1,:,1,:) ( m - cartesian, degrees - spherical ) */
(PID.TID 0000.0001)                 1.816598176046163E-21,      /* J =  1 */
(PID.TID 0000.0001)                 5.235987755982990E-06,      /* J =  2 */
(PID.TID 0000.0001)                 1.047197551196598E-05,      /* J =  3 */
(PID.TID 0000.0001)                 1.570796326794897E-05,      /* J =  4 */
(PID.TID 0000.0001)                 2.094395102393196E-05,      /* J =  5 */
(PID.TID 0000.0001)                 2.617993877991495E-05,      /* J =  6 */
(PID.TID 0000.0001)                 3.141592653589793E-05,      /* J =  7 */
(PID.TID 0000.0001)                 3.665191429188093E-05,      /* J =  8 */
(PID.TID 0000.0001)                 4.188790204786392E-05,      /* J =  9 */
(PID.TID 0000.0001)                 4.712388980384690E-05,      /* J = 10 */
(PID.TID 0000.0001)                 5.235987755982988E-05,      /* J = 11 */
(PID.TID 0000.0001)                 5.759586531581287E-05,      /* J = 12 */
(PID.TID 0000.0001)                 6.283185307179586E-05,      /* J = 13 */
(PID.TID 0000.0001)                 6.806784082777885E-05,      /* J = 14 */
(PID.TID 0000.0001)                 7.330382858376184E-05,      /* J = 15 */
(PID.TID 0000.0001)                 7.853981633974484E-05,      /* J = 16 */
(PID.TID 0000.0001)                 8.377580409572783E-05,      /* J = 17 */
(PID.TID 0000.0001)                 8.901179185171082E-05,      /* J = 18 */
(PID.TID 0000.0001)                 9.424777960769381E-05,      /* J = 19 */
(PID.TID 0000.0001)                 9.948376736367680E-05,      /* J = 20 */
(PID.TID 0000.0001)                 1.047197551196598E-04,      /* J = 21 */
(PID.TID 0000.0001)                 1.099557428756428E-04,      /* J = 22 */
(PID.TID 0000.0001)                 1.151917306316258E-04,      /* J = 23 */
(PID.TID 0000.0001)                 1.204277183876088E-04,      /* J = 24 */
(PID.TID 0000.0001)                 1.256637061435918E-04,      /* J = 25 */
(PID.TID 0000.0001)                 1.308996938995748E-04,      /* J = 26 */
(PID.TID 0000.0001)                 1.361356816555577E-04,      /* J = 27 */
(PID.TID 0000.0001)                 1.413716694115407E-04,      /* J = 28 */
(PID.TID 0000.0001)                 1.466076571675237E-04,      /* J = 29 */
(PID.TID 0000.0001)                 1.518436449235067E-04,      /* J = 30 */
(PID.TID 0000.0001)                 1.570796326794897E-04       /* J = 31 */
(PID.TID 0000.0001)     ;
(PID.TID 0000.0001) 
(PID.TID 0000.0001)  MDSREADFIELD: opening global file: thetaPol.bin
(PID.TID 0000.0001) // =======================================================
(PID.TID 0000.0001) // Field Initial Temperature at iteration          1
(PID.TID 0000.0001) // CMIN =          2.000000000000000E+01
(PID.TID 0000.0001) // CMAX =          2.000099945068359E+01
(PID.TID 0000.0001) // CINT =          3.701669198495371E-05
(PID.TID 0000.0001) // SYMBOLS (CMIN->CMAX): -abcdefghijklmnopqrstuvwxyz+
(PID.TID 0000.0001) //                  0.0: .
(PID.TID 0000.0001) // RANGE I (Lo:Hi:Step):(   1: 120:   1)
(PID.TID 0000.0001) // RANGE J (Lo:Hi:Step):(  31:   1:  -1)
(PID.TID 0000.0001) // RANGE K (Lo:Hi:Step):(   1:   1:   1)
(PID.TID 0000.0001) // =======================================================
(PID.TID 0000.0001) K =   1
(PID.TID 0000.0001)                I=10      I=20      I=30      I=40      I=50      I=60      I=70      I=80      I=90      I=100     I=110     I=120
(PID.TID 0000.0001) |--J--|123456789|123456789|123456789|123456789|123456789|123456789|123456789|123456789|123456789|123456789|123456789|123456789|
(PID.TID 0000.0001)     31 ........................................................................................................................
(PID.TID 0000.0001)     30 jqkmeosabgtxgpnovswlxtomhwbjrvvfwtjzbmdwyosmgblmlswfrzuvmwqfgneqryhcrcdjxgpewppnqtnldbvcsglmkhjqmizdfsjypmxvpbrlknorerac
(PID.TID 0000.0001)     29 epwfxnxnicpxjlsfb-ghoxrykpkvcritpwusuyxzrggtrh+zleqiheyzgditnwepcrwduavvzutnwjmfzctwftosbmdphegggmevcp-ucuzmpuokoxyqqwap
(PID.TID 0000.0001)     28 cghwkxhmovssawbyvmoxyhyzmlajzodsfkbgcugskly++-joetmwqvhhjhxiodlbyrhujpxne-azfmeqgrveiexbzduozr+zpcxvokxpfesufaqjteifgqim
(PID.TID 0000.0001)     27 ypypntlzbrwqwgcnon+gfhittzwumigkpx+qqexykfps-igejsdiyzgcxzovutqomkw-raywgoztezucrtfwcesezfefursyfajdtuukdr-pkihs+cdqjptn
(PID.TID 0000.0001)     26 okayagtjfkuudyasuxerekiundtfztfrituaqwliqilodlnxgufsddaxmzmjqgth+vdcyiiujurczkqarvnqnofdcztvnlymnpbytqtmihicpdqubwfpqdma
(PID.TID 0000.0001)     25 +shwlqggfcwvjpfdonktamdluhutdjgdsnhjrvnxnpnvzjnc-rbusnboqdowjqbmchauhalglwugkbeixbarjgtwjokqtg-sutyalixtyllsi+zrfsefuhas
(PID.TID 0000.0001)     24 ktbnftiwqpaicqqsccfeaypiikitbcwtdszeghxkmq+lcnij-huhqi-tyw+wbod+kyeekiuhjnmbcvipolmftahdgniwrgzynksaucekpwcfzjfeqiqjkydo
(PID.TID 0000.0001)     23 mtsytwtmosljuikvmbr-gojcpvpefzmsybyrvdtaeljnqbcwcxkcsluvxgdovfwirrgzhbxnhumy-mxawonanxgr-hsbtumraplyuwhssxsdnlczcnxh+dtq
(PID.TID 0000.0001)     22 bnopfhxuatjexkkzosskxzetsvoiktakutliphwurlty+dlrckqmhno+bfjzbhwyqwvznekthfypvvwmhlbb-jday+jdmudjcpgichezogzzjdruodvtsnbz
(PID.TID 0000.0001)     21 aiuruchvglazywkelmfvnjgwnxsbvkbg+xqvebfelpjmypdkyhvalhcaujvivlzxqmuqchpjfolsem+xntylspdpcgerdtrvdozygjzykmtepasbz+ojevtx
(PID.TID 0000.0001)     20 qduptxvqho-+kydbdqbdfxrjbydhgbjbdndk-dfugcak+w-harq+jtcikmz+fb-corbukbwki-kyzenfmqpzyfnpxnvualivagouiopralnsl-csvkoduyfw
(PID.TID 0000.0001)     19 unhnwhoajydodykwyeonaudfe+gmcwe-qyusstzsrqerbccdjuupjsrbugccfeibpjjgqaukexrc+yfginw+fvnhbomihnvfxxffuqiphmdxzjdawbctxjmd
(PID.TID 0000.0001)     18 mnlokihg+tt+ybouziufnlxjwqujeuyjvbwpnmedfwizfuyqtiymjn-fjonbfrkaohgyabyamgp-rqy-btzcxtwpkldb+ixkeavj+lxzlpb-bplz+crxqjtr
(PID.TID 0000.0001)     17 ypcvcqgxamuonerteaslib-py-pervlennhegnpdivdk-igtykvqexpakqcwhq+iovacuhkjmvwereingydpgkusxltdkzuplapygwnhpfynkpc+vhtsfxgu
(PID.TID 0000.0001)     16 pcnhwxhsqmcvwltgaecot+qcntmxncji+jgoupkysesfnhelv+fyqsgapiznqvwkspbidoyrtzgxlqrsdcwtuboaofynn-hnzg-ooklqrtgzutziunyrcsqo
(PID.TID 0000.0001)     15 djefm+fkqztxj-ts+wp-mneycedptcn-phullwjpfks-lokdegjdpwssqimory-ayytnbbzt-akg-dcclnlagpiwcu-mpi+pz-o-qsqktdzbrvmlvvzpwcya
(PID.TID 0000.0001)     14 tpofinkljg-dtfzntrrvyxtkrxkihq+vyksjuaumcifjvyobwmumibazyaafpxhivjxi+fgzppqowbhqvikfdpjaetdqaoe+yiuuypmvfarbuvyai-pivk-c
(PID.TID 0000.0001)     13 qnuhzrlqfu-wwwu-svjflrscynlwdlhvslyvrpk+dsugmhkzqkmbsslneyzneczot+xxuzhaccmddnrnbwhtatmefanuttgygneeakztkigtujxuswtvrwqp
(PID.TID 0000.0001)     12 dn+wglekflrazoltz+zuvrdjipvvkzjenplkzwdsulzk-qzwvnutqhsaysdakmilgpotcnjgrzldzxu-nta+ahrbwxoksbphqacseonvrulavreacwaxraui
(PID.TID 0000.0001)     11 uklggyoppbg-pawxfoxxlgwihjvrpcvednlwispvywtniendlgmfoymvpgfgvttezputjq-vlwbcuuu+ukfmjawmdtpdcrbv-qgcdslgdbgdxxhfrrnvcsrw
(PID.TID 0000.0001)     10 zzxqtkkjtfpnkzdpjllvntoqlqc-zt-iuebatj+acod-jjuxtxnncsbo-sflrxez-nl-q-vfqxpc-xhzlfytocshtqqvrjlczlcnxfap-tvrkdbgmgtrqrja
(PID.TID 0000.0001)      9 nftks+ifmvfqlbqjzuxdjh+vrqmpishznwddvucrcfvqrwwexmrenptfjczpkxfsjjhnsqnwhcqovyyvhjtlwmzmzzdvvlcvnnlrhqczdtvxmi+cztyzgutp
(PID.TID 0000.0001)      8 ........................................................................................................................
(PID.TID 0000.0001)      7 ........................................................................................................................
(PID.TID 0000.0001)      6 ........................................................................................................................
(PID.TID 0000.0001)      5 ........................................................................................................................
(PID.TID 0000.0001)      4 ........................................................................................................................
(PID.TID 0000.0001)      3 ........................................................................................................................
(PID.TID 0000.0001)      2 ........................................................................................................................
(PID.TID 0000.0001)      1 ........................................................................................................................
(PID.TID 0000.0001) // =======================================================
(PID.TID 0000.0001) // END OF FIELD                                          =
(PID.TID 0000.0001) // =======================================================
(PID.TID 0000.0001) 
(PID.TID 0000.0001) // =======================================================
(PID.TID 0000.0001) // Field Initial Salinity at iteration          1
(PID.TID 0000.0001) // CMIN =          3.500000000000000E+01
(PID.TID 0000.0001) // CMAX =          3.500000000000000E+01
(PID.TID 0000.0001) // CINT =          0.000000000000000E+00
(PID.TID 0000.0001) // SYMBOLS (CMIN->CMAX): -abcdefghijklmnopqrstuvwxyz+
(PID.TID 0000.0001) //                  0.0: .
(PID.TID 0000.0001) // RANGE I (Lo:Hi:Step):(   1: 120:   1)
(PID.TID 0000.0001) // RANGE J (Lo:Hi:Step):(  31:   1:  -1)
(PID.TID 0000.0001) // RANGE K (Lo:Hi:Step):(   1:   1:   1)
(PID.TID 0000.0001) // =======================================================
(PID.TID 0000.0001) // =======================================================
(PID.TID 0000.0001) // END OF FIELD                                          =
(PID.TID 0000.0001) // =======================================================
(PID.TID 0000.0001) 
(PID.TID 0000.0001) Start initial hydrostatic pressure computation
(PID.TID 0000.0001) Pressure is predetermined for buoyancyRelation OCEANIC
(PID.TID 0000.0001) 
(PID.TID 0000.0001) // =======================================================
(PID.TID 0000.0001) // Model current state
(PID.TID 0000.0001) // =======================================================
(PID.TID 0000.0001) 
(PID.TID 0000.0001) // =======================================================
(PID.TID 0000.0001) // Begin MONITOR dynamic field statistics
(PID.TID 0000.0001) // =======================================================
(PID.TID 0000.0001) %MON time_tsnumber                =                     0
(PID.TID 0000.0001) %MON time_secondsf                =   0.0000000000000E+00
(PID.TID 0000.0001) %MON dynstat_eta_max              =   0.0000000000000E+00
(PID.TID 0000.0001) %MON dynstat_eta_min              =   0.0000000000000E+00
(PID.TID 0000.0001) %MON dynstat_eta_mean             =   0.0000000000000E+00
(PID.TID 0000.0001) %MON dynstat_eta_sd               =   0.0000000000000E+00
(PID.TID 0000.0001) %MON dynstat_eta_del2             =   0.0000000000000E+00
(PID.TID 0000.0001) %MON dynstat_uvel_max             =   0.0000000000000E+00
(PID.TID 0000.0001) %MON dynstat_uvel_min             =   0.0000000000000E+00
(PID.TID 0000.0001) %MON dynstat_uvel_mean            =   0.0000000000000E+00
(PID.TID 0000.0001) %MON dynstat_uvel_sd              =   0.0000000000000E+00
(PID.TID 0000.0001) %MON dynstat_uvel_del2            =   0.0000000000000E+00
(PID.TID 0000.0001) %MON dynstat_vvel_max             =   0.0000000000000E+00
(PID.TID 0000.0001) %MON dynstat_vvel_min             =   0.0000000000000E+00
(PID.TID 0000.0001) %MON dynstat_vvel_mean            =   0.0000000000000E+00
(PID.TID 0000.0001) %MON dynstat_vvel_sd              =   0.0000000000000E+00
(PID.TID 0000.0001) %MON dynstat_vvel_del2            =   0.0000000000000E+00
(PID.TID 0000.0001) %MON dynstat_wvel_max             =   0.0000000000000E+00
(PID.TID 0000.0001) %MON dynstat_wvel_min             =   0.0000000000000E+00
(PID.TID 0000.0001) %MON dynstat_wvel_mean            =   0.0000000000000E+00
(PID.TID 0000.0001) %MON dynstat_wvel_sd              =   0.0000000000000E+00
(PID.TID 0000.0001) %MON dynstat_wvel_del2            =   0.0000000000000E+00
(PID.TID 0000.0001) %MON dynstat_theta_max            =   2.0000999450684E+01
(PID.TID 0000.0001) %MON dynstat_theta_min            =   2.0000000000000E+01
(PID.TID 0000.0001) %MON dynstat_theta_mean           =   2.0000506097539E+01
(PID.TID 0000.0001) %MON dynstat_theta_sd             =   2.8863770164391E-04
(PID.TID 0000.0001) %MON dynstat_theta_del2           =   2.7062929037845E-04
(PID.TID 0000.0001) %MON dynstat_salt_max             =   3.5000000000000E+01
(PID.TID 0000.0001) %MON dynstat_salt_min             =   3.5000000000000E+01
(PID.TID 0000.0001) %MON dynstat_salt_mean            =   3.4999999999986E+01
(PID.TID 0000.0001) %MON dynstat_salt_sd              =   1.4040324458618E-11
(PID.TID 0000.0001) %MON dynstat_salt_del2            =   0.0000000000000E+00
(PID.TID 0000.0001) %MON advcfl_uvel_max              =   0.0000000000000E+00
(PID.TID 0000.0001) %MON advcfl_vvel_max              =   0.0000000000000E+00
(PID.TID 0000.0001) %MON advcfl_wvel_max              =   0.0000000000000E+00
(PID.TID 0000.0001) %MON advcfl_W_hf_max              =   0.0000000000000E+00
(PID.TID 0000.0001) %MON pe_b_mean                    =   0.0000000000000E+00
(PID.TID 0000.0001) %MON ke_max                       =   0.0000000000000E+00
(PID.TID 0000.0001) %MON ke_mean                      =   0.0000000000000E+00
(PID.TID 0000.0001) %MON ke_vol                       =   3.8082386146826E-02
(PID.TID 0000.0001) %MON vort_r_min                   =   0.0000000000000E+00
(PID.TID 0000.0001) %MON vort_r_max                   =   0.0000000000000E+00
(PID.TID 0000.0001) %MON vort_a_mean                  =   5.0000000000000E-01
(PID.TID 0000.0001) %MON vort_a_sd                    =   0.0000000000000E+00
(PID.TID 0000.0001) %MON vort_p_mean                  =   5.3488372093024E-01
(PID.TID 0000.0001) %MON vort_p_sd                    =   2.2607234994453E-01
(PID.TID 0000.0001) %MON surfExpan_theta_mean         =   0.0000000000000E+00
(PID.TID 0000.0001) %MON surfExpan_salt_mean          =   0.0000000000000E+00
(PID.TID 0000.0001) // =======================================================
(PID.TID 0000.0001) // End MONITOR dynamic field statistics
(PID.TID 0000.0001) // =======================================================
 cg2d: Sum(rhs),rhsMax =   6.80011602582908E-15  2.54626495526243E-07
(PID.TID 0000.0001)                    cg2d_init_res =    1.79605131991234E+01
(PID.TID 0000.0001)                       cg2d_iters =   100
(PID.TID 0000.0001)                         cg2d_res =    9.10810452070590E-08
 cg3d: Sum(rhs),rhsMax =  -2.08166817117217E-14  8.94057495890099E-08
(PID.TID 0000.0001)                    cg3d_init_res =    5.78014489203573E+01
(PID.TID 0000.0001)                       cg3d_iters =    10
(PID.TID 0000.0001)                         cg3d_res =    2.29125546074568E-01
(PID.TID 0000.0001) // =======================================================
(PID.TID 0000.0001) // Begin MONITOR dynamic field statistics
(PID.TID 0000.0001) // =======================================================
(PID.TID 0000.0001) %MON time_tsnumber                =                     1
(PID.TID 0000.0001) %MON time_secondsf                =   1.0000000000000E-01
(PID.TID 0000.0001) %MON dynstat_eta_max              =   7.1336480475350E-09
(PID.TID 0000.0001) %MON dynstat_eta_min              =  -7.3583871238601E-09
(PID.TID 0000.0001) %MON dynstat_eta_mean             =  -1.9972474168298E-11
(PID.TID 0000.0001) %MON dynstat_eta_sd               =   4.1852466764881E-09
(PID.TID 0000.0001) %MON dynstat_eta_del2             =   3.9241247104211E-09
(PID.TID 0000.0001) %MON dynstat_uvel_max             =   8.4185990504402E-08
(PID.TID 0000.0001) %MON dynstat_uvel_min             =  -8.4185991550517E-08
(PID.TID 0000.0001) %MON dynstat_uvel_mean            =  -1.2163102555095E-24
(PID.TID 0000.0001) %MON dynstat_uvel_sd              =   8.9282950016598E-09
(PID.TID 0000.0001) %MON dynstat_uvel_del2            =   3.0679360556715E-09
(PID.TID 0000.0001) %MON dynstat_vvel_max             =   8.8720044112140E-08
(PID.TID 0000.0001) %MON dynstat_vvel_min             =  -8.8720049774966E-08
(PID.TID 0000.0001) %MON dynstat_vvel_mean            =  -6.5467571597351E-16
(PID.TID 0000.0001) %MON dynstat_vvel_sd              =   9.1021344232702E-09
(PID.TID 0000.0001) %MON dynstat_vvel_del2            =   2.8578172581190E-09
(PID.TID 0000.0001) %MON dynstat_wvel_max             =   3.3825388664832E-07
(PID.TID 0000.0001) %MON dynstat_wvel_min             =  -2.7219015811267E-07
(PID.TID 0000.0001) %MON dynstat_wvel_mean            =  -2.8078482573511E-25
(PID.TID 0000.0001) %MON dynstat_wvel_sd              =   5.8295526636026E-08
(PID.TID 0000.0001) %MON dynstat_wvel_del2            =   5.4489383527925E-08
(PID.TID 0000.0001) %MON dynstat_theta_max            =   2.0000994014334E+01
(PID.TID 0000.0001) %MON dynstat_theta_min            =   1.9994446794576E+01
(PID.TID 0000.0001) %MON dynstat_theta_mean           =   2.0000391250740E+01
(PID.TID 0000.0001) %MON dynstat_theta_sd             =   8.3826057293056E-04
(PID.TID 0000.0001) %MON dynstat_theta_del2           =   3.6945169391937E-04
(PID.TID 0000.0001) %MON dynstat_salt_max             =   3.5000000000000E+01
(PID.TID 0000.0001) %MON dynstat_salt_min             =   3.5000000000000E+01
(PID.TID 0000.0001) %MON dynstat_salt_mean            =   3.4999999999986E+01
(PID.TID 0000.0001) %MON dynstat_salt_sd              =   1.4040324458618E-11
(PID.TID 0000.0001) %MON dynstat_salt_del2            =   0.0000000000000E+00
(PID.TID 0000.0001) %MON advcfl_uvel_max              =   1.8915694156740E-06
(PID.TID 0000.0001) %MON advcfl_vvel_max              =   8.8720049774966E-07
(PID.TID 0000.0001) %MON advcfl_wvel_max              =   6.7650777329664E-06
(PID.TID 0000.0001) %MON advcfl_W_hf_max              =   6.7650777329664E-06
(PID.TID 0000.0001) %MON pe_b_mean                    =   5.9254729512281E-16
(PID.TID 0000.0001) %MON ke_max                       =   3.1694490752185E-15
(PID.TID 0000.0001) %MON ke_mean                      =   7.9398722914794E-17
(PID.TID 0000.0001) %MON ke_vol                       =   3.8082386146826E-02
(PID.TID 0000.0001) %MON vort_r_min                   =  -8.9447614910927E-06
(PID.TID 0000.0001) %MON vort_r_max                   =   8.9447616022425E-06
(PID.TID 0000.0001) %MON vort_a_mean                  =   5.0000000000002E-01
(PID.TID 0000.0001) %MON vort_a_sd                    =   3.0881735348795E-07
(PID.TID 0000.0001) %MON vort_p_mean                  =   5.3488372093026E-01
(PID.TID 0000.0001) %MON vort_p_sd                    =   2.2607234994541E-01
(PID.TID 0000.0001) %MON surfExpan_theta_mean         =   0.0000000000000E+00
(PID.TID 0000.0001) %MON surfExpan_salt_mean          =   0.0000000000000E+00
(PID.TID 0000.0001) // =======================================================
(PID.TID 0000.0001) // End MONITOR dynamic field statistics
(PID.TID 0000.0001) // =======================================================
 cg2d: Sum(rhs),rhsMax =   5.17225151597245E-14  5.04382260493957E-07
(PID.TID 0000.0001)                    cg2d_init_res =    8.28764588418345E+00
(PID.TID 0000.0001)                       cg2d_iters =    58
(PID.TID 0000.0001)                         cg2d_res =    9.91500643955097E-08
 cg3d: Sum(rhs),rhsMax =   1.02459707385094E-13  1.77074629187892E-07
(PID.TID 0000.0001)                    cg3d_init_res =    2.66814891186456E+01
(PID.TID 0000.0001)                       cg3d_iters =    10
(PID.TID 0000.0001)                         cg3d_res =    1.59193770073641E+00
(PID.TID 0000.0001) // =======================================================
(PID.TID 0000.0001) // Begin MONITOR dynamic field statistics
(PID.TID 0000.0001) // =======================================================
(PID.TID 0000.0001) %MON time_tsnumber                =                     2
(PID.TID 0000.0001) %MON time_secondsf                =   2.0000000000000E-01
(PID.TID 0000.0001) %MON dynstat_eta_max              =   1.4070631004128E-08
(PID.TID 0000.0001) %MON dynstat_eta_min              =  -1.2984319170552E-07
(PID.TID 0000.0001) %MON dynstat_eta_mean             =   4.3620907496868E-09
(PID.TID 0000.0001) %MON dynstat_eta_sd               =   1.8817998136174E-08
(PID.TID 0000.0001) %MON dynstat_eta_del2             =   6.4420345238899E-09
(PID.TID 0000.0001) %MON dynstat_uvel_max             =   2.5134700816742E-07
(PID.TID 0000.0001) %MON dynstat_uvel_min             =  -2.5033466033707E-07
(PID.TID 0000.0001) %MON dynstat_uvel_mean            =  -4.9993419400628E-17
(PID.TID 0000.0001) %MON dynstat_uvel_sd              =   2.3551889648442E-08
(PID.TID 0000.0001) %MON dynstat_uvel_del2            =   1.7169722131931E-08
(PID.TID 0000.0001) %MON dynstat_vvel_max             =   1.2952615357262E-06
(PID.TID 0000.0001) %MON dynstat_vvel_min             =  -1.2963386687406E-06
(PID.TID 0000.0001) %MON dynstat_vvel_mean            =   1.7066442632831E-16
(PID.TID 0000.0001) %MON dynstat_vvel_sd              =   1.2879630572822E-07
(PID.TID 0000.0001) %MON dynstat_vvel_del2            =   1.6634047840450E-08
(PID.TID 0000.0001) %MON dynstat_wvel_max             =   2.6330211206953E-06
(PID.TID 0000.0001) %MON dynstat_wvel_min             =  -4.4226708207523E-06
(PID.TID 0000.0001) %MON dynstat_wvel_mean            =   6.8019511743106E-24
(PID.TID 0000.0001) %MON dynstat_wvel_sd              =   4.1694394163782E-07
(PID.TID 0000.0001) %MON dynstat_wvel_del2            =   3.1280162017218E-07
(PID.TID 0000.0001) %MON dynstat_theta_max            =   2.0000990530340E+01
(PID.TID 0000.0001) %MON dynstat_theta_min            =   1.9988838963205E+01
(PID.TID 0000.0001) %MON dynstat_theta_mean           =   2.0000276455827E+01
(PID.TID 0000.0001) %MON dynstat_theta_sd             =   1.6064968957935E-03
(PID.TID 0000.0001) %MON dynstat_theta_del2           =   4.9294820475397E-04
(PID.TID 0000.0001) %MON dynstat_salt_max             =   3.5000000000000E+01
(PID.TID 0000.0001) %MON dynstat_salt_min             =   3.5000000000000E+01
(PID.TID 0000.0001) %MON dynstat_salt_mean            =   3.4999999999986E+01
(PID.TID 0000.0001) %MON dynstat_salt_sd              =   1.4040324458618E-11
(PID.TID 0000.0001) %MON dynstat_salt_del2            =   0.0000000000000E+00
(PID.TID 0000.0001) %MON advcfl_uvel_max              =   5.0530255302573E-06
(PID.TID 0000.0001) %MON advcfl_vvel_max              =   1.2963386687406E-05
(PID.TID 0000.0001) %MON advcfl_wvel_max              =   8.8453416415046E-05
(PID.TID 0000.0001) %MON advcfl_W_hf_max              =   8.8453416415046E-05
(PID.TID 0000.0001) %MON pe_b_mean                    =   1.2622590919302E-14
(PID.TID 0000.0001) %MON ke_max                       =   5.1574492084729E-13
(PID.TID 0000.0001) %MON ke_mean                      =   8.1945788383214E-15
(PID.TID 0000.0001) %MON ke_vol                       =   3.8082386146826E-02
(PID.TID 0000.0001) %MON vort_r_min                   =  -2.2810806707979E-05
(PID.TID 0000.0001) %MON vort_r_max                   =   2.3001048188430E-05
(PID.TID 0000.0001) %MON vort_a_mean                  =   5.0000000000007E-01
(PID.TID 0000.0001) %MON vort_a_sd                    =   8.5223699914389E-07
(PID.TID 0000.0001) %MON vort_p_mean                  =   5.3488372093032E-01
(PID.TID 0000.0001) %MON vort_p_sd                    =   2.2607234995157E-01
(PID.TID 0000.0001) %MON surfExpan_theta_mean         =   0.0000000000000E+00
(PID.TID 0000.0001) %MON surfExpan_salt_mean          =   0.0000000000000E+00
(PID.TID 0000.0001) // =======================================================
(PID.TID 0000.0001) // End MONITOR dynamic field statistics
(PID.TID 0000.0001) // =======================================================
 cg2d: Sum(rhs),rhsMax =   1.87905246917808E-14  6.59737230599879E-07
(PID.TID 0000.0001)                    cg2d_init_res =    3.89254516722829E+00
(PID.TID 0000.0001)                       cg2d_iters =    46
(PID.TID 0000.0001)                         cg2d_res =    9.65027902622322E-08
 cg3d: Sum(rhs),rhsMax =  -1.41553435639707E-14  2.31644542042194E-07
(PID.TID 0000.0001)                    cg3d_init_res =    1.25861471648713E+01
(PID.TID 0000.0001)                       cg3d_iters =    10
(PID.TID 0000.0001)                         cg3d_res =    1.23335098897021E+00
(PID.TID 0000.0001) // =======================================================
(PID.TID 0000.0001) // Begin MONITOR dynamic field statistics
(PID.TID 0000.0001) // =======================================================
(PID.TID 0000.0001) %MON time_tsnumber                =                     3
(PID.TID 0000.0001) %MON time_secondsf                =   3.0000000000000E-01
(PID.TID 0000.0001) %MON dynstat_eta_max              =   1.8418512101257E-08
(PID.TID 0000.0001) %MON dynstat_eta_min              =  -2.0653697329666E-07
(PID.TID 0000.0001) %MON dynstat_eta_mean             =   7.0960333961587E-09
(PID.TID 0000.0001) %MON dynstat_eta_sd               =   3.0109362879642E-08
(PID.TID 0000.0001) %MON dynstat_eta_del2             =   8.2222928575798E-09
(PID.TID 0000.0001) %MON dynstat_uvel_max             =   2.9175798135965E-07
(PID.TID 0000.0001) %MON dynstat_uvel_min             =  -2.9456278107225E-07
(PID.TID 0000.0001) %MON dynstat_uvel_mean            =  -1.8213309967871E-17
(PID.TID 0000.0001) %MON dynstat_uvel_sd              =   2.9993369676955E-08
(PID.TID 0000.0001) %MON dynstat_uvel_del2            =   2.1016466612686E-08
(PID.TID 0000.0001) %MON dynstat_vvel_max             =   3.0892351704709E-06
(PID.TID 0000.0001) %MON dynstat_vvel_min             =  -3.0998177239199E-06
(PID.TID 0000.0001) %MON dynstat_vvel_mean            =   1.2262229496357E-17
(PID.TID 0000.0001) %MON dynstat_vvel_sd              =   2.9558056115247E-07
(PID.TID 0000.0001) %MON dynstat_vvel_del2            =   2.4123040033381E-08
(PID.TID 0000.0001) %MON dynstat_wvel_max             =   2.8952069376383E-06
(PID.TID 0000.0001) %MON dynstat_wvel_min             =  -7.8307830885412E-06
(PID.TID 0000.0001) %MON dynstat_wvel_mean            =   7.1436547161411E-24
(PID.TID 0000.0001) %MON dynstat_wvel_sd              =   7.2363044105334E-07
(PID.TID 0000.0001) %MON dynstat_wvel_del2            =   3.9555628834415E-07
(PID.TID 0000.0001) %MON dynstat_theta_max            =   2.0000987074119E+01
(PID.TID 0000.0001) %MON dynstat_theta_min            =   1.9983246801799E+01
(PID.TID 0000.0001) %MON dynstat_theta_mean           =   2.0000161693097E+01
(PID.TID 0000.0001) %MON dynstat_theta_sd             =   2.3888437601242E-03
(PID.TID 0000.0001) %MON dynstat_theta_del2           =   6.1571469830526E-04
(PID.TID 0000.0001) %MON dynstat_salt_max             =   3.5000000000000E+01
(PID.TID 0000.0001) %MON dynstat_salt_min             =   3.5000000000000E+01
(PID.TID 0000.0001) %MON dynstat_salt_mean            =   3.4999999999986E+01
(PID.TID 0000.0001) %MON dynstat_salt_sd              =   1.4040324458618E-11
(PID.TID 0000.0001) %MON dynstat_salt_del2            =   0.0000000000000E+00
(PID.TID 0000.0001) %MON advcfl_uvel_max              =   6.0628196637568E-06
(PID.TID 0000.0001) %MON advcfl_vvel_max              =   3.0998177239199E-05
(PID.TID 0000.0001) %MON advcfl_wvel_max              =   1.5661566177082E-04
(PID.TID 0000.0001) %MON advcfl_W_hf_max              =   1.5661566177082E-04
(PID.TID 0000.0001) %MON pe_b_mean                    =   3.2370544894502E-14
(PID.TID 0000.0001) %MON ke_max                       =   2.9099920635048E-12
(PID.TID 0000.0001) %MON ke_mean                      =   4.2148101811261E-14
(PID.TID 0000.0001) %MON ke_vol                       =   3.8082386146826E-02
(PID.TID 0000.0001) %MON vort_r_min                   =  -2.8669567228316E-05
(PID.TID 0000.0001) %MON vort_r_max                   =   2.8558984741674E-05
(PID.TID 0000.0001) %MON vort_a_mean                  =   5.0000000000007E-01
(PID.TID 0000.0001) %MON vort_a_sd                    =   1.1352543319169E-06
(PID.TID 0000.0001) %MON vort_p_mean                  =   5.3488372093031E-01
(PID.TID 0000.0001) %MON vort_p_sd                    =   2.2607234995573E-01
(PID.TID 0000.0001) %MON surfExpan_theta_mean         =   0.0000000000000E+00
(PID.TID 0000.0001) %MON surfExpan_salt_mean          =   0.0000000000000E+00
(PID.TID 0000.0001) // =======================================================
(PID.TID 0000.0001) // End MONITOR dynamic field statistics
(PID.TID 0000.0001) // =======================================================
 cg2d: Sum(rhs),rhsMax =   1.92762472650543E-14  8.14807313966168E-07
(PID.TID 0000.0001)                    cg2d_init_res =    3.13874880787352E+00
(PID.TID 0000.0001)                       cg2d_iters =    57
(PID.TID 0000.0001)                         cg2d_res =    8.92426256410707E-08
 cg3d: Sum(rhs),rhsMax =   9.60620472056917E-14  2.85998633986993E-07
(PID.TID 0000.0001)                    cg3d_init_res =    1.01402254355082E+01
(PID.TID 0000.0001)                       cg3d_iters =    10
(PID.TID 0000.0001)                         cg3d_res =    9.73239139645502E-01
(PID.TID 0000.0001) // =======================================================
(PID.TID 0000.0001) // Begin MONITOR dynamic field statistics
(PID.TID 0000.0001) // =======================================================
(PID.TID 0000.0001) %MON time_tsnumber                =                     4
(PID.TID 0000.0001) %MON time_secondsf                =   4.0000000000000E-01
(PID.TID 0000.0001) %MON dynstat_eta_max              =   2.2765106638677E-08
(PID.TID 0000.0001) %MON dynstat_eta_min              =  -2.8309675998826E-07
(PID.TID 0000.0001) %MON dynstat_eta_mean             =   9.8287581674390E-09
(PID.TID 0000.0001) %MON dynstat_eta_sd               =   4.1477607710850E-08
(PID.TID 0000.0001) %MON dynstat_eta_del2             =   9.9959527462623E-09
(PID.TID 0000.0001) %MON dynstat_uvel_max             =   5.4050889956502E-07
(PID.TID 0000.0001) %MON dynstat_uvel_min             =  -5.4562084648692E-07
(PID.TID 0000.0001) %MON dynstat_uvel_mean            =  -2.2164107000025E-17
(PID.TID 0000.0001) %MON dynstat_uvel_sd              =   4.9408823267008E-08
(PID.TID 0000.0001) %MON dynstat_uvel_del2            =   3.1857887386242E-08
(PID.TID 0000.0001) %MON dynstat_vvel_max             =   5.6317506738303E-06
(PID.TID 0000.0001) %MON dynstat_vvel_min             =  -5.6550672544395E-06
(PID.TID 0000.0001) %MON dynstat_vvel_mean            =  -8.7336587389158E-18
(PID.TID 0000.0001) %MON dynstat_vvel_sd              =   5.1430172755108E-07
(PID.TID 0000.0001) %MON dynstat_vvel_del2            =   3.8013303089239E-08
(PID.TID 0000.0001) %MON dynstat_wvel_max             =   4.5392623826883E-06
(PID.TID 0000.0001) %MON dynstat_wvel_min             =  -1.3091604918697E-05
(PID.TID 0000.0001) %MON dynstat_wvel_mean            =  -2.2209919045292E-23
(PID.TID 0000.0001) %MON dynstat_wvel_sd              =   1.2370906068747E-06
(PID.TID 0000.0001) %MON dynstat_wvel_del2            =   6.3138786141123E-07
(PID.TID 0000.0001) %MON dynstat_theta_max            =   2.0000983645170E+01
(PID.TID 0000.0001) %MON dynstat_theta_min            =   1.9977668033509E+01
(PID.TID 0000.0001) %MON dynstat_theta_mean           =   2.0000046962493E+01
(PID.TID 0000.0001) %MON dynstat_theta_sd             =   3.1731480641080E-03
(PID.TID 0000.0001) %MON dynstat_theta_del2           =   7.3774032943812E-04
(PID.TID 0000.0001) %MON dynstat_salt_max             =   3.5000000000000E+01
(PID.TID 0000.0001) %MON dynstat_salt_min             =   3.5000000000000E+01
(PID.TID 0000.0001) %MON dynstat_salt_mean            =   3.4999999999986E+01
(PID.TID 0000.0001) %MON dynstat_salt_sd              =   1.4040324458618E-11
(PID.TID 0000.0001) %MON dynstat_salt_del2            =   0.0000000000000E+00
(PID.TID 0000.0001) %MON advcfl_uvel_max              =   1.0969042708090E-05
(PID.TID 0000.0001) %MON advcfl_vvel_max              =   5.6550672544395E-05
(PID.TID 0000.0001) %MON advcfl_wvel_max              =   2.6183209837393E-04
(PID.TID 0000.0001) %MON advcfl_W_hf_max              =   2.6183209837393E-04
(PID.TID 0000.0001) %MON pe_b_mean                    =   6.1464603323676E-14
(PID.TID 0000.0001) %MON ke_max                       =   9.6174942808615E-12
(PID.TID 0000.0001) %MON ke_mean                      =   1.2746224332197E-13
(PID.TID 0000.0001) %MON ke_vol                       =   3.8082386146826E-02
(PID.TID 0000.0001) %MON vort_r_min                   =  -4.9410462098159E-05
(PID.TID 0000.0001) %MON vort_r_max                   =   4.9864664283077E-05
(PID.TID 0000.0001) %MON vort_a_mean                  =   5.0000000000007E-01
(PID.TID 0000.0001) %MON vort_a_sd                    =   1.9453721328299E-06
(PID.TID 0000.0001) %MON vort_p_mean                  =   5.3488372093031E-01
(PID.TID 0000.0001) %MON vort_p_sd                    =   2.2607234997837E-01
(PID.TID 0000.0001) %MON surfExpan_theta_mean         =   0.0000000000000E+00
(PID.TID 0000.0001) %MON surfExpan_salt_mean          =   0.0000000000000E+00
(PID.TID 0000.0001) // =======================================================
(PID.TID 0000.0001) // End MONITOR dynamic field statistics
(PID.TID 0000.0001) // =======================================================
 cg2d: Sum(rhs),rhsMax =  -7.81319453579954E-15  9.69511574650598E-07
(PID.TID 0000.0001)                    cg2d_init_res =    2.62047917027759E+00
(PID.TID 0000.0001)                       cg2d_iters =    41
(PID.TID 0000.0001)                         cg2d_res =    8.36968395538267E-08
 cg3d: Sum(rhs),rhsMax =   1.21985754830689E-13  3.40259492856190E-07
(PID.TID 0000.0001)                    cg3d_init_res =    8.45016211395649E+00
(PID.TID 0000.0001)                       cg3d_iters =    10
(PID.TID 0000.0001)                         cg3d_res =    9.25377959095587E-01
(PID.TID 0000.0001) // =======================================================
(PID.TID 0000.0001) // Begin MONITOR dynamic field statistics
(PID.TID 0000.0001) // =======================================================
(PID.TID 0000.0001) %MON time_tsnumber                =                     5
(PID.TID 0000.0001) %MON time_secondsf                =   5.0000000000000E-01
(PID.TID 0000.0001) %MON dynstat_eta_max              =   2.7110436075609E-08
(PID.TID 0000.0001) %MON dynstat_eta_min              =  -3.5947612025185E-07
(PID.TID 0000.0001) %MON dynstat_eta_mean             =   1.2559561201114E-08
(PID.TID 0000.0001) %MON dynstat_eta_sd               =   5.2846892297462E-08
(PID.TID 0000.0001) %MON dynstat_eta_del2             =   1.1758979117068E-08
(PID.TID 0000.0001) %MON dynstat_uvel_max             =   8.5079736033636E-07
(PID.TID 0000.0001) %MON dynstat_uvel_min             =  -8.4959846542932E-07
(PID.TID 0000.0001) %MON dynstat_uvel_mean            =  -2.3182005071031E-17
(PID.TID 0000.0001) %MON dynstat_uvel_sd              =   7.6161013335068E-08
(PID.TID 0000.0001) %MON dynstat_uvel_del2            =   4.1061860142380E-08
(PID.TID 0000.0001) %MON dynstat_vvel_max             =   8.7168872352056E-06
(PID.TID 0000.0001) %MON dynstat_vvel_min             =  -8.7707244029250E-06
(PID.TID 0000.0001) %MON dynstat_vvel_mean            =   8.8193543097749E-17
(PID.TID 0000.0001) %MON dynstat_vvel_sd              =   7.7840923561859E-07
(PID.TID 0000.0001) %MON dynstat_vvel_del2            =   5.2832905302792E-08
(PID.TID 0000.0001) %MON dynstat_wvel_max             =   5.7280555095931E-06
(PID.TID 0000.0001) %MON dynstat_wvel_min             =  -1.9483823998586E-05
(PID.TID 0000.0001) %MON dynstat_wvel_mean            =  -6.0820830023806E-23
(PID.TID 0000.0001) %MON dynstat_wvel_sd              =   1.8315730254427E-06
(PID.TID 0000.0001) %MON dynstat_wvel_del2            =   8.5665294102771E-07
(PID.TID 0000.0001) %MON dynstat_theta_max            =   2.0000981080157E+01
(PID.TID 0000.0001) %MON dynstat_theta_min            =   1.9972102817517E+01
(PID.TID 0000.0001) %MON dynstat_theta_mean           =   1.9999932263921E+01
(PID.TID 0000.0001) %MON dynstat_theta_sd             =   3.9568689476171E-03
(PID.TID 0000.0001) %MON dynstat_theta_del2           =   8.5905029554135E-04
(PID.TID 0000.0001) %MON dynstat_salt_max             =   3.5000000000000E+01
(PID.TID 0000.0001) %MON dynstat_salt_min             =   3.5000000000000E+01
(PID.TID 0000.0001) %MON dynstat_salt_mean            =   3.4999999999986E+01
(PID.TID 0000.0001) %MON dynstat_salt_sd              =   1.4040324458618E-11
(PID.TID 0000.0001) %MON dynstat_salt_del2            =   0.0000000000000E+00
(PID.TID 0000.0001) %MON advcfl_uvel_max              =   1.7104244901103E-05
(PID.TID 0000.0001) %MON advcfl_vvel_max              =   8.7707244029250E-05
(PID.TID 0000.0001) %MON advcfl_wvel_max              =   3.8967647997171E-04
(PID.TID 0000.0001) %MON advcfl_W_hf_max              =   3.8967647997171E-04
(PID.TID 0000.0001) %MON pe_b_mean                    =   9.9809531296728E-14
(PID.TID 0000.0001) %MON ke_max                       =   2.3228263903166E-11
(PID.TID 0000.0001) %MON ke_mean                      =   2.9208978861290E-13
(PID.TID 0000.0001) %MON ke_vol                       =   3.8082386146826E-02
(PID.TID 0000.0001) %MON vort_r_min                   =  -7.3539892524868E-05
(PID.TID 0000.0001) %MON vort_r_max                   =   7.3323751451274E-05
(PID.TID 0000.0001) %MON vort_a_mean                  =   5.0000000000007E-01
(PID.TID 0000.0001) %MON vort_a_sd                    =   3.1043092393875E-06
(PID.TID 0000.0001) %MON vort_p_mean                  =   5.3488372093032E-01
(PID.TID 0000.0001) %MON vort_p_sd                    =   2.2607235003919E-01
(PID.TID 0000.0001) %MON surfExpan_theta_mean         =   0.0000000000000E+00
(PID.TID 0000.0001) %MON surfExpan_salt_mean          =   0.0000000000000E+00
(PID.TID 0000.0001) // =======================================================
(PID.TID 0000.0001) // End MONITOR dynamic field statistics
(PID.TID 0000.0001) // =======================================================
 cg2d: Sum(rhs),rhsMax =  -2.82343592949985E-14  1.12382114312540E-06
(PID.TID 0000.0001)                    cg2d_init_res =    2.24579215208378E+00
(PID.TID 0000.0001)                       cg2d_iters =    41
(PID.TID 0000.0001)                         cg2d_res =    8.16607550251271E-08
 cg3d: Sum(rhs),rhsMax =  -1.97411531566161E-13  3.94286058744346E-07
(PID.TID 0000.0001)                    cg3d_init_res =    7.25510982791014E+00
(PID.TID 0000.0001)                       cg3d_iters =    10
(PID.TID 0000.0001)                         cg3d_res =    7.17703415699125E-01
(PID.TID 0000.0001) // =======================================================
(PID.TID 0000.0001) // Begin MONITOR dynamic field statistics
(PID.TID 0000.0001) // =======================================================
(PID.TID 0000.0001) %MON time_tsnumber                =                     6
(PID.TID 0000.0001) %MON time_secondsf                =   6.0000000000000E-01
(PID.TID 0000.0001) %MON dynstat_eta_max              =   3.1481885543001E-08
(PID.TID 0000.0001) %MON dynstat_eta_min              =  -4.3562658029082E-07
(PID.TID 0000.0001) %MON dynstat_eta_mean             =   1.5288412960538E-08
(PID.TID 0000.0001) %MON dynstat_eta_sd               =   6.4198813725030E-08
(PID.TID 0000.0001) %MON dynstat_eta_del2             =   1.3511819344079E-08
(PID.TID 0000.0001) %MON dynstat_uvel_max             =   1.2625797894561E-06
(PID.TID 0000.0001) %MON dynstat_uvel_min             =  -1.2738860075275E-06
(PID.TID 0000.0001) %MON dynstat_uvel_mean            =  -1.6197704833099E-17
(PID.TID 0000.0001) %MON dynstat_uvel_sd              =   1.1738464609303E-07
(PID.TID 0000.0001) %MON dynstat_uvel_del2            =   4.9500668390042E-08
(PID.TID 0000.0001) %MON dynstat_vvel_max             =   1.2510866819184E-05
(PID.TID 0000.0001) %MON dynstat_vvel_min             =  -1.2596542150241E-05
(PID.TID 0000.0001) %MON dynstat_vvel_mean            =  -1.0195687658768E-17
(PID.TID 0000.0001) %MON dynstat_vvel_sd              =   1.0921688509991E-06
(PID.TID 0000.0001) %MON dynstat_vvel_del2            =   6.8362484342641E-08
(PID.TID 0000.0001) %MON dynstat_wvel_max             =   6.8722403330457E-06
(PID.TID 0000.0001) %MON dynstat_wvel_min             =  -2.5366258122792E-05
(PID.TID 0000.0001) %MON dynstat_wvel_mean            =  -3.3546481583645E-23
(PID.TID 0000.0001) %MON dynstat_wvel_sd              =   2.5566108194567E-06
(PID.TID 0000.0001) %MON dynstat_wvel_del2            =   1.0944044803952E-06
(PID.TID 0000.0001) %MON dynstat_theta_max            =   2.0000979689030E+01
(PID.TID 0000.0001) %MON dynstat_theta_min            =   1.9966552676621E+01
(PID.TID 0000.0001) %MON dynstat_theta_mean           =   1.9999817597288E+01
(PID.TID 0000.0001) %MON dynstat_theta_sd             =   4.7391590932058E-03
(PID.TID 0000.0001) %MON dynstat_theta_del2           =   9.7966705489522E-04
(PID.TID 0000.0001) %MON dynstat_salt_max             =   3.5000000000000E+01
(PID.TID 0000.0001) %MON dynstat_salt_min             =   3.5000000000000E+01
(PID.TID 0000.0001) %MON dynstat_salt_mean            =   3.4999999999986E+01
(PID.TID 0000.0001) %MON dynstat_salt_sd              =   1.4040324458618E-11
(PID.TID 0000.0001) %MON dynstat_salt_del2            =   0.0000000000000E+00
(PID.TID 0000.0001) %MON advcfl_uvel_max              =   2.5609926951613E-05
(PID.TID 0000.0001) %MON advcfl_vvel_max              =   1.2596542150241E-04
(PID.TID 0000.0001) %MON advcfl_wvel_max              =   5.0732516245585E-04
(PID.TID 0000.0001) %MON advcfl_W_hf_max              =   5.0732516245585E-04
(PID.TID 0000.0001) %MON pe_b_mean                    =   1.4732669009363E-13
(PID.TID 0000.0001) %MON ke_max                       =   4.8027537325689E-11
(PID.TID 0000.0001) %MON ke_mean                      =   5.7619614077231E-13
(PID.TID 0000.0001) %MON ke_vol                       =   3.8082386146826E-02
(PID.TID 0000.0001) %MON vort_r_min                   =  -1.0936831224768E-04
(PID.TID 0000.0001) %MON vort_r_max                   =   1.1107109607845E-04
(PID.TID 0000.0001) %MON vort_a_mean                  =   5.0000000000007E-01
(PID.TID 0000.0001) %MON vort_a_sd                    =   4.9040613467700E-06
(PID.TID 0000.0001) %MON vort_p_mean                  =   5.3488372093031E-01
(PID.TID 0000.0001) %MON vort_p_sd                    =   2.2607235020622E-01
(PID.TID 0000.0001) %MON surfExpan_theta_mean         =   0.0000000000000E+00
(PID.TID 0000.0001) %MON surfExpan_salt_mean          =   0.0000000000000E+00
(PID.TID 0000.0001) // =======================================================
(PID.TID 0000.0001) // End MONITOR dynamic field statistics
(PID.TID 0000.0001) // =======================================================
 cg2d: Sum(rhs),rhsMax =  -1.77774461818103E-14  1.27772287269573E-06
(PID.TID 0000.0001)                    cg2d_init_res =    1.96231581643809E+00
(PID.TID 0000.0001)                       cg2d_iters =    40
(PID.TID 0000.0001)                         cg2d_res =    9.81740906674196E-08
 cg3d: Sum(rhs),rhsMax =   3.03645997234980E-14  4.48167500183330E-07
(PID.TID 0000.0001)                    cg3d_init_res =    6.32909950387527E+00
(PID.TID 0000.0001)                       cg3d_iters =    10
(PID.TID 0000.0001)                         cg3d_res =    7.18451407221004E-01
(PID.TID 0000.0001) // =======================================================
(PID.TID 0000.0001) // Begin MONITOR dynamic field statistics
(PID.TID 0000.0001) // =======================================================
(PID.TID 0000.0001) %MON time_tsnumber                =                     7
(PID.TID 0000.0001) %MON time_secondsf                =   7.0000000000000E-01
(PID.TID 0000.0001) %MON dynstat_eta_max              =   3.5850802013655E-08
(PID.TID 0000.0001) %MON dynstat_eta_min              =  -5.1154836370187E-07
(PID.TID 0000.0001) %MON dynstat_eta_mean             =   1.8015281961503E-08
(PID.TID 0000.0001) %MON dynstat_eta_sd               =   7.5526127039274E-08
(PID.TID 0000.0001) %MON dynstat_eta_del2             =   1.5255021470390E-08
(PID.TID 0000.0001) %MON dynstat_uvel_max             =   1.9280622385071E-06
(PID.TID 0000.0001) %MON dynstat_uvel_min             =  -1.9294233433236E-06
(PID.TID 0000.0001) %MON dynstat_uvel_mean            =  -1.9501206835669E-17
(PID.TID 0000.0001) %MON dynstat_uvel_sd              =   1.7459279964582E-07
(PID.TID 0000.0001) %MON dynstat_uvel_del2            =   6.0883627360008E-08
(PID.TID 0000.0001) %MON dynstat_vvel_max             =   1.6838376217125E-05
(PID.TID 0000.0001) %MON dynstat_vvel_min             =  -1.6980449002630E-05
(PID.TID 0000.0001) %MON dynstat_vvel_mean            =   4.3770860131509E-17
(PID.TID 0000.0001) %MON dynstat_vvel_sd              =   1.4499311422951E-06
(PID.TID 0000.0001) %MON dynstat_vvel_del2            =   8.6478314128901E-08
(PID.TID 0000.0001) %MON dynstat_wvel_max             =   8.9796611256576E-06
(PID.TID 0000.0001) %MON dynstat_wvel_min             =  -3.4438036897085E-05
(PID.TID 0000.0001) %MON dynstat_wvel_mean            =  -2.1648542092858E-22
(PID.TID 0000.0001) %MON dynstat_wvel_sd              =   3.3904886858229E-06
(PID.TID 0000.0001) %MON dynstat_wvel_del2            =   1.3924317159646E-06
(PID.TID 0000.0001) %MON dynstat_theta_max            =   2.0000978296376E+01
(PID.TID 0000.0001) %MON dynstat_theta_min            =   1.9961017240352E+01
(PID.TID 0000.0001) %MON dynstat_theta_mean           =   1.9999702962503E+01
(PID.TID 0000.0001) %MON dynstat_theta_sd             =   5.5196621547140E-03
(PID.TID 0000.0001) %MON dynstat_theta_del2           =   1.0996353551128E-03
(PID.TID 0000.0001) %MON dynstat_salt_max             =   3.5000000000000E+01
(PID.TID 0000.0001) %MON dynstat_salt_min             =   3.5000000000000E+01
(PID.TID 0000.0001) %MON dynstat_salt_mean            =   3.4999999999986E+01
(PID.TID 0000.0001) %MON dynstat_salt_sd              =   1.4040324458618E-11
(PID.TID 0000.0001) %MON dynstat_salt_del2            =   0.0000000000000E+00
(PID.TID 0000.0001) %MON advcfl_uvel_max              =   3.8788706830338E-05
(PID.TID 0000.0001) %MON advcfl_vvel_max              =   1.6980449002630E-04
(PID.TID 0000.0001) %MON advcfl_wvel_max              =   6.8876073794169E-04
(PID.TID 0000.0001) %MON advcfl_W_hf_max              =   6.8876073794169E-04
(PID.TID 0000.0001) %MON pe_b_mean                    =   2.0393793348134E-13
(PID.TID 0000.0001) %MON ke_max                       =   8.7835353283944E-11
(PID.TID 0000.0001) %MON ke_mean                      =   1.0186119288743E-12
(PID.TID 0000.0001) %MON ke_vol                       =   3.8082386146826E-02
(PID.TID 0000.0001) %MON vort_r_min                   =  -1.5489002605111E-04
(PID.TID 0000.0001) %MON vort_r_max                   =   1.5502711823344E-04
(PID.TID 0000.0001) %MON vort_a_mean                  =   5.0000000000006E-01
(PID.TID 0000.0001) %MON vort_a_sd                    =   7.4218030326373E-06
(PID.TID 0000.0001) %MON vort_p_mean                  =   5.3488372093031E-01
(PID.TID 0000.0001) %MON vort_p_sd                    =   2.2607235059141E-01
(PID.TID 0000.0001) %MON surfExpan_theta_mean         =   0.0000000000000E+00
(PID.TID 0000.0001) %MON surfExpan_salt_mean          =   0.0000000000000E+00
(PID.TID 0000.0001) // =======================================================
(PID.TID 0000.0001) // End MONITOR dynamic field statistics
(PID.TID 0000.0001) // =======================================================
 cg2d: Sum(rhs),rhsMax =  -6.01949046163952E-14  1.43119526507413E-06
(PID.TID 0000.0001)                    cg2d_init_res =    1.74040961442896E+00
(PID.TID 0000.0001)                       cg2d_iters =    40
(PID.TID 0000.0001)                         cg2d_res =    9.47130273307335E-08
 cg3d: Sum(rhs),rhsMax =   1.61877455884252E-13  5.01799101718836E-07
(PID.TID 0000.0001)                    cg3d_init_res =    5.62169528886541E+00
(PID.TID 0000.0001)                       cg3d_iters =    10
(PID.TID 0000.0001)                         cg3d_res =    5.68597700383171E-01
(PID.TID 0000.0001) // =======================================================
(PID.TID 0000.0001) // Begin MONITOR dynamic field statistics
(PID.TID 0000.0001) // =======================================================
(PID.TID 0000.0001) %MON time_tsnumber                =                     8
(PID.TID 0000.0001) %MON time_secondsf                =   8.0000000000000E-01
(PID.TID 0000.0001) %MON dynstat_eta_max              =   4.0217115640775E-08
(PID.TID 0000.0001) %MON dynstat_eta_min              =  -5.8724191719058E-07
(PID.TID 0000.0001) %MON dynstat_eta_mean             =   2.0740124498103E-08
(PID.TID 0000.0001) %MON dynstat_eta_sd               =   8.6825431406736E-08
(PID.TID 0000.0001) %MON dynstat_eta_del2             =   1.6988994332245E-08
(PID.TID 0000.0001) %MON dynstat_uvel_max             =   2.6048167924693E-06
(PID.TID 0000.0001) %MON dynstat_uvel_min             =  -2.6242866371065E-06
(PID.TID 0000.0001) %MON dynstat_uvel_mean            =  -1.5866531106347E-17
(PID.TID 0000.0001) %MON dynstat_uvel_sd              =   2.4911610744407E-07
(PID.TID 0000.0001) %MON dynstat_uvel_del2            =   6.8131680277272E-08
(PID.TID 0000.0001) %MON dynstat_vvel_max             =   2.1833547923172E-05
(PID.TID 0000.0001) %MON dynstat_vvel_min             =  -2.2032683340256E-05
(PID.TID 0000.0001) %MON dynstat_vvel_mean            =   2.4076499393997E-17
(PID.TID 0000.0001) %MON dynstat_vvel_sd              =   1.8559737663400E-06
(PID.TID 0000.0001) %MON dynstat_vvel_del2            =   1.0312984323799E-07
(PID.TID 0000.0001) %MON dynstat_wvel_max             =   1.0117952100645E-05
(PID.TID 0000.0001) %MON dynstat_wvel_min             =  -4.2077236848636E-05
(PID.TID 0000.0001) %MON dynstat_wvel_mean            =  -2.4674598708011E-22
(PID.TID 0000.0001) %MON dynstat_wvel_sd              =   4.3373617966268E-06
(PID.TID 0000.0001) %MON dynstat_wvel_del2            =   1.6460962932454E-06
(PID.TID 0000.0001) %MON dynstat_theta_max            =   2.0000976902293E+01
(PID.TID 0000.0001) %MON dynstat_theta_min            =   1.9955496057557E+01
(PID.TID 0000.0001) %MON dynstat_theta_mean           =   1.9999588359473E+01
(PID.TID 0000.0001) %MON dynstat_theta_sd             =   6.2982069459347E-03
(PID.TID 0000.0001) %MON dynstat_theta_del2           =   1.2189916619535E-03
(PID.TID 0000.0001) %MON dynstat_salt_max             =   3.5000000000000E+01
(PID.TID 0000.0001) %MON dynstat_salt_min             =   3.5000000000000E+01
(PID.TID 0000.0001) %MON dynstat_salt_mean            =   3.4999999999986E+01
(PID.TID 0000.0001) %MON dynstat_salt_sd              =   1.4040324458618E-11
(PID.TID 0000.0001) %MON dynstat_salt_del2            =   0.0000000000000E+00
(PID.TID 0000.0001) %MON advcfl_uvel_max              =   5.2758087206591E-05
(PID.TID 0000.0001) %MON advcfl_vvel_max              =   2.2032683340256E-04
(PID.TID 0000.0001) %MON advcfl_wvel_max              =   8.4154473697272E-04
(PID.TID 0000.0001) %MON advcfl_W_hf_max              =   8.4154473697272E-04
(PID.TID 0000.0001) %MON pe_b_mean                    =   2.6956554984140E-13
(PID.TID 0000.0001) %MON ke_max                       =   1.4850770173920E-10
(PID.TID 0000.0001) %MON ke_mean                      =   1.6750614867705E-12
(PID.TID 0000.0001) %MON ke_vol                       =   3.8082386146826E-02
(PID.TID 0000.0001) %MON vort_r_min                   =  -2.1053215089992E-04
(PID.TID 0000.0001) %MON vort_r_max                   =   2.1394568912254E-04
(PID.TID 0000.0001) %MON vort_a_mean                  =   5.0000000000007E-01
(PID.TID 0000.0001) %MON vort_a_sd                    =   1.0733690773634E-05
(PID.TID 0000.0001) %MON vort_p_mean                  =   5.3488372093032E-01
(PID.TID 0000.0001) %MON vort_p_sd                    =   2.2607235137642E-01
(PID.TID 0000.0001) %MON surfExpan_theta_mean         =   0.0000000000000E+00
(PID.TID 0000.0001) %MON surfExpan_salt_mean          =   0.0000000000000E+00
(PID.TID 0000.0001) // =======================================================
(PID.TID 0000.0001) // End MONITOR dynamic field statistics
(PID.TID 0000.0001) // =======================================================
 cg2d: Sum(rhs),rhsMax =   3.70051211895372E-14  1.58422876840735E-06
(PID.TID 0000.0001)                    cg2d_init_res =    1.56200793961536E+00
(PID.TID 0000.0001)                       cg2d_iters =    40
(PID.TID 0000.0001)                         cg2d_res =    8.81137034075922E-08
 cg3d: Sum(rhs),rhsMax =   1.70245761932364E-13  5.55244740929961E-07
(PID.TID 0000.0001)                    cg3d_init_res =    5.03967394568195E+00
(PID.TID 0000.0001)                       cg3d_iters =    10
(PID.TID 0000.0001)                         cg3d_res =    5.70939227018654E-01
(PID.TID 0000.0001) // =======================================================
(PID.TID 0000.0001) // Begin MONITOR dynamic field statistics
(PID.TID 0000.0001) // =======================================================
(PID.TID 0000.0001) %MON time_tsnumber                =                     9
(PID.TID 0000.0001) %MON time_secondsf                =   9.0000000000000E-01
(PID.TID 0000.0001) %MON dynstat_eta_max              =   4.4580753107087E-08
(PID.TID 0000.0001) %MON dynstat_eta_min              =  -6.6270713198871E-07
(PID.TID 0000.0001) %MON dynstat_eta_mean             =   2.3462896147029E-08
(PID.TID 0000.0001) %MON dynstat_eta_sd               =   9.8094938431555E-08
(PID.TID 0000.0001) %MON dynstat_eta_del2             =   1.8714393775899E-08
(PID.TID 0000.0001) %MON dynstat_uvel_max             =   3.6765894914607E-06
(PID.TID 0000.0001) %MON dynstat_uvel_min             =  -3.6851450675451E-06
(PID.TID 0000.0001) %MON dynstat_uvel_mean            =  -1.5282074729752E-17
(PID.TID 0000.0001) %MON dynstat_uvel_sd              =   3.4420807481854E-07
(PID.TID 0000.0001) %MON dynstat_uvel_del2            =   7.9966381187693E-08
(PID.TID 0000.0001) %MON dynstat_vvel_max             =   2.7344397198298E-05
(PID.TID 0000.0001) %MON dynstat_vvel_min             =  -2.7629966728154E-05
(PID.TID 0000.0001) %MON dynstat_vvel_mean            =  -4.6001048323905E-18
(PID.TID 0000.0001) %MON dynstat_vvel_sd              =   2.3055287304847E-06
(PID.TID 0000.0001) %MON dynstat_vvel_del2            =   1.2329344926524E-07
(PID.TID 0000.0001) %MON dynstat_wvel_max             =   1.2213718305617E-05
(PID.TID 0000.0001) %MON dynstat_wvel_min             =  -5.2385321431800E-05
(PID.TID 0000.0001) %MON dynstat_wvel_mean            =   4.0651238775750E-22
(PID.TID 0000.0001) %MON dynstat_wvel_sd              =   5.3999353050194E-06
(PID.TID 0000.0001) %MON dynstat_wvel_del2            =   1.9817401010656E-06
(PID.TID 0000.0001) %MON dynstat_theta_max            =   2.0000975506948E+01
(PID.TID 0000.0001) %MON dynstat_theta_min            =   1.9949988673688E+01
(PID.TID 0000.0001) %MON dynstat_theta_mean           =   1.9999473788108E+01
(PID.TID 0000.0001) %MON dynstat_theta_sd             =   7.0747047563044E-03
(PID.TID 0000.0001) %MON dynstat_theta_del2           =   1.3377318942675E-03
(PID.TID 0000.0001) %MON dynstat_salt_max             =   3.5000000000000E+01
(PID.TID 0000.0001) %MON dynstat_salt_min             =   3.5000000000000E+01
(PID.TID 0000.0001) %MON dynstat_salt_mean            =   3.4999999999986E+01
(PID.TID 0000.0001) %MON dynstat_salt_sd              =   1.4040324458618E-11
(PID.TID 0000.0001) %MON dynstat_salt_del2            =   0.0000000000000E+00
(PID.TID 0000.0001) %MON advcfl_uvel_max              =   7.4085354127644E-05
(PID.TID 0000.0001) %MON advcfl_vvel_max              =   2.7629966728154E-04
(PID.TID 0000.0001) %MON advcfl_wvel_max              =   1.0477064286360E-03
(PID.TID 0000.0001) %MON advcfl_W_hf_max              =   1.0477064286360E-03
(PID.TID 0000.0001) %MON pe_b_mean                    =   3.4413224403813E-13
(PID.TID 0000.0001) %MON ke_max                       =   2.3525420531344E-10
(PID.TID 0000.0001) %MON ke_mean                      =   2.5961649918594E-12
(PID.TID 0000.0001) %MON ke_vol                       =   3.8082386146826E-02
(PID.TID 0000.0001) %MON vort_r_min                   =  -2.8301289775396E-04
(PID.TID 0000.0001) %MON vort_r_max                   =   2.8424448192056E-04
(PID.TID 0000.0001) %MON vort_a_mean                  =   5.0000000000006E-01
(PID.TID 0000.0001) %MON vort_a_sd                    =   1.4982663721664E-05
(PID.TID 0000.0001) %MON vort_p_mean                  =   5.3488372093031E-01
(PID.TID 0000.0001) %MON vort_p_sd                    =   2.2607235284736E-01
(PID.TID 0000.0001) %MON surfExpan_theta_mean         =   0.0000000000000E+00
(PID.TID 0000.0001) %MON surfExpan_salt_mean          =   0.0000000000000E+00
(PID.TID 0000.0001) // =======================================================
(PID.TID 0000.0001) // End MONITOR dynamic field statistics
(PID.TID 0000.0001) // =======================================================
 cg2d: Sum(rhs),rhsMax =   1.12826414877532E-13  1.73680193231588E-06
(PID.TID 0000.0001)                    cg2d_init_res =    1.41549314713038E+00
(PID.TID 0000.0001)                       cg2d_iters =    40
(PID.TID 0000.0001)                         cg2d_res =    7.91668658724718E-08
 cg3d: Sum(rhs),rhsMax =  -1.63861979540769E-14  6.08434544001596E-07
(PID.TID 0000.0001)                    cg3d_init_res =    4.57225188937844E+00
(PID.TID 0000.0001)                       cg3d_iters =    10
(PID.TID 0000.0001)                         cg3d_res =    4.70796690327536E-01
(PID.TID 0000.0001) // =======================================================
(PID.TID 0000.0001) // Begin MONITOR dynamic field statistics
(PID.TID 0000.0001) // =======================================================
(PID.TID 0000.0001) %MON time_tsnumber                =                    10
(PID.TID 0000.0001) %MON time_secondsf                =   1.0000000000000E+00
(PID.TID 0000.0001) %MON dynstat_eta_max              =   4.8941617000159E-08
(PID.TID 0000.0001) %MON dynstat_eta_min              =  -7.3794436279850E-07
(PID.TID 0000.0001) %MON dynstat_eta_mean             =   2.6183539004855E-08
(PID.TID 0000.0001) %MON dynstat_eta_sd               =   1.0933361660617E-07
(PID.TID 0000.0001) %MON dynstat_eta_del2             =   2.0430705987668E-08
(PID.TID 0000.0001) %MON dynstat_uvel_max             =   4.7586267051715E-06
(PID.TID 0000.0001) %MON dynstat_uvel_min             =  -4.7922830183523E-06
(PID.TID 0000.0001) %MON dynstat_uvel_mean            =  -1.6320904526041E-17
(PID.TID 0000.0001) %MON dynstat_uvel_sd              =   4.6057327453032E-07
(PID.TID 0000.0001) %MON dynstat_uvel_del2            =   8.7057605975199E-08
(PID.TID 0000.0001) %MON dynstat_vvel_max             =   3.3493595974705E-05
(PID.TID 0000.0001) %MON dynstat_vvel_min             =  -3.3865599556734E-05
(PID.TID 0000.0001) %MON dynstat_vvel_mean            =  -6.3724722375704E-19
(PID.TID 0000.0001) %MON dynstat_vvel_sd              =   2.8017592890559E-06
(PID.TID 0000.0001) %MON dynstat_vvel_del2            =   1.4100666921221E-07
(PID.TID 0000.0001) %MON dynstat_wvel_max             =   1.3310877829317E-05
(PID.TID 0000.0001) %MON dynstat_wvel_min             =  -6.1664664154796E-05
(PID.TID 0000.0001) %MON dynstat_wvel_mean            =   3.2128487494143E-22
(PID.TID 0000.0001) %MON dynstat_wvel_sd              =   6.5719083562295E-06
(PID.TID 0000.0001) %MON dynstat_wvel_del2            =   2.2566513622344E-06
(PID.TID 0000.0001) %MON dynstat_theta_max            =   2.0000974110405E+01
(PID.TID 0000.0001) %MON dynstat_theta_min            =   1.9944494543016E+01
(PID.TID 0000.0001) %MON dynstat_theta_mean           =   1.9999359248315E+01
(PID.TID 0000.0001) %MON dynstat_theta_sd             =   7.8491081215003E-03
(PID.TID 0000.0001) %MON dynstat_theta_del2           =   1.4558840143136E-03
(PID.TID 0000.0001) %MON dynstat_salt_max             =   3.5000000000000E+01
(PID.TID 0000.0001) %MON dynstat_salt_min             =   3.5000000000000E+01
(PID.TID 0000.0001) %MON dynstat_salt_mean            =   3.4999999999986E+01
(PID.TID 0000.0001) %MON dynstat_salt_sd              =   1.4040324458618E-11
(PID.TID 0000.0001) %MON dynstat_salt_del2            =   0.0000000000000E+00
(PID.TID 0000.0001) %MON advcfl_uvel_max              =   9.6343014450457E-05
(PID.TID 0000.0001) %MON advcfl_vvel_max              =   3.3865599556734E-04
(PID.TID 0000.0001) %MON advcfl_wvel_max              =   1.2332932830959E-03
(PID.TID 0000.0001) %MON advcfl_W_hf_max              =   1.2332932830959E-03
(PID.TID 0000.0001) %MON pe_b_mean                    =   4.2756098288739E-13
(PID.TID 0000.0001) %MON ke_max                       =   3.5517395031984E-10
(PID.TID 0000.0001) %MON ke_mean                      =   3.8525856294690E-12
(PID.TID 0000.0001) %MON ke_vol                       =   3.8082386146826E-02
(PID.TID 0000.0001) %MON vort_r_min                   =  -3.6633407934355E-04
(PID.TID 0000.0001) %MON vort_r_max                   =   3.7225270621802E-04
(PID.TID 0000.0001) %MON vort_a_mean                  =   5.0000000000007E-01
(PID.TID 0000.0001) %MON vort_a_sd                    =   2.0221188694957E-05
(PID.TID 0000.0001) %MON vort_p_mean                  =   5.3488372093032E-01
(PID.TID 0000.0001) %MON vort_p_sd                    =   2.2607235539456E-01
(PID.TID 0000.0001) %MON surfExpan_theta_mean         =   0.0000000000000E+00
(PID.TID 0000.0001) %MON surfExpan_salt_mean          =   0.0000000000000E+00
(PID.TID 0000.0001) // =======================================================
(PID.TID 0000.0001) // End MONITOR dynamic field statistics
(PID.TID 0000.0001) // =======================================================
 cg2d: Sum(rhs),rhsMax =   5.03069808033274E-15  1.88890951057043E-06
(PID.TID 0000.0001)                    cg2d_init_res =    1.29303417132220E+00
(PID.TID 0000.0001)                       cg2d_iters =    39
(PID.TID 0000.0001)                         cg2d_res =    9.07413709821836E-08
 cg3d: Sum(rhs),rhsMax =  -2.07403538787787E-14  6.61394122750672E-07
(PID.TID 0000.0001)                    cg3d_init_res =    4.17376854389245E+00
(PID.TID 0000.0001)                       cg3d_iters =    10
(PID.TID 0000.0001)                         cg3d_res =    4.67281234603451E-01
(PID.TID 0000.0001) // =======================================================
(PID.TID 0000.0001) // Begin MONITOR dynamic field statistics
(PID.TID 0000.0001) // =======================================================
(PID.TID 0000.0001) %MON time_tsnumber                =                    11
(PID.TID 0000.0001) %MON time_secondsf                =   1.1000000000000E+00
(PID.TID 0000.0001) %MON dynstat_eta_max              =   5.3299615009524E-08
(PID.TID 0000.0001) %MON dynstat_eta_min              =  -8.1295321554354E-07
(PID.TID 0000.0001) %MON dynstat_eta_mean             =   2.8901996094206E-08
(PID.TID 0000.0001) %MON dynstat_eta_sd               =   1.2054083572142E-07
(PID.TID 0000.0001) %MON dynstat_eta_del2             =   2.2139102032539E-08
(PID.TID 0000.0001) %MON dynstat_uvel_max             =   6.2603646447378E-06
(PID.TID 0000.0001) %MON dynstat_uvel_min             =  -6.2825630891083E-06
(PID.TID 0000.0001) %MON dynstat_uvel_mean            =  -1.6238917275220E-17
(PID.TID 0000.0001) %MON dynstat_uvel_sd              =   6.0138840321244E-07
(PID.TID 0000.0001) %MON dynstat_uvel_del2            =   9.9441401891907E-08
(PID.TID 0000.0001) %MON dynstat_vvel_max             =   4.0132673554557E-05
(PID.TID 0000.0001) %MON dynstat_vvel_min             =  -4.0623797859217E-05
(PID.TID 0000.0001) %MON dynstat_vvel_mean            =   1.2385167906265E-17
(PID.TID 0000.0001) %MON dynstat_vvel_sd              =   3.3407281615909E-06
(PID.TID 0000.0001) %MON dynstat_vvel_del2            =   1.6272884337119E-07
(PID.TID 0000.0001) %MON dynstat_wvel_max             =   1.5442595344389E-05
(PID.TID 0000.0001) %MON dynstat_wvel_min             =  -7.3280986049077E-05
(PID.TID 0000.0001) %MON dynstat_wvel_mean            =   9.1529906558638E-23
(PID.TID 0000.0001) %MON dynstat_wvel_sd              =   7.8600137744557E-06
(PID.TID 0000.0001) %MON dynstat_wvel_del2            =   2.6202456616924E-06
(PID.TID 0000.0001) %MON dynstat_theta_max            =   2.0000972712851E+01
(PID.TID 0000.0001) %MON dynstat_theta_min            =   1.9939013132613E+01
(PID.TID 0000.0001) %MON dynstat_theta_mean           =   1.9999244740006E+01
(PID.TID 0000.0001) %MON dynstat_theta_sd             =   8.6213920422775E-03
(PID.TID 0000.0001) %MON dynstat_theta_del2           =   1.5734960515999E-03
(PID.TID 0000.0001) %MON dynstat_salt_max             =   3.5000000000000E+01
(PID.TID 0000.0001) %MON dynstat_salt_min             =   3.5000000000000E+01
(PID.TID 0000.0001) %MON dynstat_salt_mean            =   3.4999999999986E+01
(PID.TID 0000.0001) %MON dynstat_salt_sd              =   1.4040324458618E-11
(PID.TID 0000.0001) %MON dynstat_salt_del2            =   0.0000000000000E+00
(PID.TID 0000.0001) %MON advcfl_uvel_max              =   1.2630328053704E-04
(PID.TID 0000.0001) %MON advcfl_vvel_max              =   4.0623797859217E-04
(PID.TID 0000.0001) %MON advcfl_wvel_max              =   1.4656197209815E-03
(PID.TID 0000.0001) %MON advcfl_W_hf_max              =   1.4656197209815E-03
(PID.TID 0000.0001) %MON pe_b_mean                    =   5.1977501737949E-13
(PID.TID 0000.0001) %MON ke_max                       =   5.1550719741139E-10
(PID.TID 0000.0001) %MON ke_mean                      =   5.5074194067250E-12
(PID.TID 0000.0001) %MON ke_vol                       =   3.8082386146826E-02
(PID.TID 0000.0001) %MON vort_r_min                   =  -4.6926489170573E-04
(PID.TID 0000.0001) %MON vort_r_max                   =   4.7267404328774E-04
(PID.TID 0000.0001) %MON vort_a_mean                  =   5.0000000000007E-01
(PID.TID 0000.0001) %MON vort_a_sd                    =   2.6585966366538E-05
(PID.TID 0000.0001) %MON vort_p_mean                  =   5.3488372093031E-01
(PID.TID 0000.0001) %MON vort_p_sd                    =   2.2607235957879E-01
(PID.TID 0000.0001) %MON surfExpan_theta_mean         =   0.0000000000000E+00
(PID.TID 0000.0001) %MON surfExpan_salt_mean          =   0.0000000000000E+00
(PID.TID 0000.0001) // =======================================================
(PID.TID 0000.0001) // End MONITOR dynamic field statistics
(PID.TID 0000.0001) // =======================================================
 cg2d: Sum(rhs),rhsMax =  -1.21500032257416E-14  2.04139880953064E-06
(PID.TID 0000.0001)                    cg2d_init_res =    1.18867394063303E+00
(PID.TID 0000.0001)                       cg2d_iters =    39
(PID.TID 0000.0001)                         cg2d_res =    8.27661261523664E-08
 cg3d: Sum(rhs),rhsMax =   1.73853986762396E-14  7.14558114586248E-07
(PID.TID 0000.0001)                    cg3d_init_res =    3.83928592063628E+00
(PID.TID 0000.0001)                       cg3d_iters =    10
(PID.TID 0000.0001)                         cg3d_res =    4.00633138729390E-01
(PID.TID 0000.0001) // =======================================================
(PID.TID 0000.0001) // Begin MONITOR dynamic field statistics
(PID.TID 0000.0001) // =======================================================
(PID.TID 0000.0001) %MON time_tsnumber                =                    12
(PID.TID 0000.0001) %MON time_secondsf                =   1.2000000000000E+00
(PID.TID 0000.0001) %MON dynstat_eta_max              =   5.7654632201456E-08
(PID.TID 0000.0001) %MON dynstat_eta_min              =  -8.8773390143519E-07
(PID.TID 0000.0001) %MON dynstat_eta_mean             =   3.1618195944321E-08
(PID.TID 0000.0001) %MON dynstat_eta_sd               =   1.3171617676547E-07
(PID.TID 0000.0001) %MON dynstat_eta_del2             =   2.3839493897195E-08
(PID.TID 0000.0001) %MON dynstat_uvel_max             =   7.8238735687745E-06
(PID.TID 0000.0001) %MON dynstat_uvel_min             =  -7.8788274426099E-06
(PID.TID 0000.0001) %MON dynstat_uvel_mean            =  -1.5273628847406E-17
(PID.TID 0000.0001) %MON dynstat_uvel_sd              =   7.6748669133866E-07
(PID.TID 0000.0001) %MON dynstat_uvel_del2            =   1.0746425149931E-07
(PID.TID 0000.0001) %MON dynstat_vvel_max             =   4.7384608709954E-05
(PID.TID 0000.0001) %MON dynstat_vvel_min             =  -4.7993638606840E-05
(PID.TID 0000.0001) %MON dynstat_vvel_mean            =  -6.1522940156476E-17
(PID.TID 0000.0001) %MON dynstat_vvel_sd              =   3.9247792858607E-06
(PID.TID 0000.0001) %MON dynstat_vvel_del2            =   1.8164885939409E-07
(PID.TID 0000.0001) %MON dynstat_wvel_max             =   1.6558641665017E-05
(PID.TID 0000.0001) %MON dynstat_wvel_min             =  -8.4093202919674E-05
(PID.TID 0000.0001) %MON dynstat_wvel_mean            =  -2.2414831795326E-22
(PID.TID 0000.0001) %MON dynstat_wvel_sd              =   9.2561985621209E-06
(PID.TID 0000.0001) %MON dynstat_wvel_del2            =   2.9211633155932E-06
(PID.TID 0000.0001) %MON dynstat_theta_max            =   2.0000971314328E+01
(PID.TID 0000.0001) %MON dynstat_theta_min            =   1.9933543812086E+01
(PID.TID 0000.0001) %MON dynstat_theta_mean           =   1.9999130263090E+01
(PID.TID 0000.0001) %MON dynstat_theta_sd             =   9.3915445812665E-03
(PID.TID 0000.0001) %MON dynstat_theta_del2           =   1.6905864861245E-03
(PID.TID 0000.0001) %MON dynstat_salt_max             =   3.5000000000000E+01
(PID.TID 0000.0001) %MON dynstat_salt_min             =   3.5000000000000E+01
(PID.TID 0000.0001) %MON dynstat_salt_mean            =   3.4999999999986E+01
(PID.TID 0000.0001) %MON dynstat_salt_sd              =   1.4040324458618E-11
(PID.TID 0000.0001) %MON dynstat_salt_del2            =   0.0000000000000E+00
(PID.TID 0000.0001) %MON advcfl_uvel_max              =   1.5839423156961E-04
(PID.TID 0000.0001) %MON advcfl_vvel_max              =   4.7993638606840E-04
(PID.TID 0000.0001) %MON advcfl_wvel_max              =   1.6818640583935E-03
(PID.TID 0000.0001) %MON advcfl_W_hf_max              =   1.6818640583935E-03
(PID.TID 0000.0001) %MON pe_b_mean                    =   6.2069769542376E-13
(PID.TID 0000.0001) %MON ke_max                       =   7.2399776142084E-10
(PID.TID 0000.0001) %MON ke_mean                      =   7.6463756674417E-12
(PID.TID 0000.0001) %MON ke_vol                       =   3.8082386146826E-02
(PID.TID 0000.0001) %MON vort_r_min                   =  -5.8675434532918E-04
(PID.TID 0000.0001) %MON vort_r_max                   =   5.9617769560300E-04
(PID.TID 0000.0001) %MON vort_a_mean                  =   5.0000000000006E-01
(PID.TID 0000.0001) %MON vort_a_sd                    =   3.4137693597185E-05
(PID.TID 0000.0001) %MON vort_p_mean                  =   5.3488372093031E-01
(PID.TID 0000.0001) %MON vort_p_sd                    =   2.2607236611450E-01
(PID.TID 0000.0001) %MON surfExpan_theta_mean         =   0.0000000000000E+00
(PID.TID 0000.0001) %MON surfExpan_salt_mean          =   0.0000000000000E+00
(PID.TID 0000.0001) // =======================================================
(PID.TID 0000.0001) // End MONITOR dynamic field statistics
(PID.TID 0000.0001) // =======================================================
 cg2d: Sum(rhs),rhsMax =  -3.77753384128710E-14  2.19372484667775E-06
(PID.TID 0000.0001)                    cg2d_init_res =    1.09896593156813E+00
(PID.TID 0000.0001)                       cg2d_iters =    39
(PID.TID 0000.0001)                         cg2d_res =    7.73294952582928E-08
 cg3d: Sum(rhs),rhsMax =   2.59379323575004E-13  7.67396065074395E-07
(PID.TID 0000.0001)                    cg3d_init_res =    3.54838927048224E+00
(PID.TID 0000.0001)                       cg3d_iters =    10
(PID.TID 0000.0001)                         cg3d_res =    3.92727974864805E-01
(PID.TID 0000.0001) // =======================================================
(PID.TID 0000.0001) // Begin MONITOR dynamic field statistics
(PID.TID 0000.0001) // =======================================================
(PID.TID 0000.0001) %MON time_tsnumber                =                    13
(PID.TID 0000.0001) %MON time_secondsf                =   1.3000000000000E+00
(PID.TID 0000.0001) %MON dynstat_eta_max              =   6.2006553668572E-08
(PID.TID 0000.0001) %MON dynstat_eta_min              =  -9.6228578253117E-07
(PID.TID 0000.0001) %MON dynstat_eta_mean             =   3.4332069128642E-08
(PID.TID 0000.0001) %MON dynstat_eta_sd               =   1.4285935166296E-07
(PID.TID 0000.0001) %MON dynstat_eta_del2             =   2.5533699623827E-08
(PID.TID 0000.0001) %MON dynstat_uvel_max             =   9.8352022927568E-06
(PID.TID 0000.0001) %MON dynstat_uvel_min             =  -9.8790710740859E-06
(PID.TID 0000.0001) %MON dynstat_uvel_mean            =  -2.0324175977865E-17
(PID.TID 0000.0001) %MON dynstat_uvel_sd              =   9.6173651339038E-07
(PID.TID 0000.0001) %MON dynstat_uvel_del2            =   1.2071904001426E-07
(PID.TID 0000.0001) %MON dynstat_vvel_max             =   5.5097163180698E-05
(PID.TID 0000.0001) %MON dynstat_vvel_min             =  -5.5858951556734E-05
(PID.TID 0000.0001) %MON dynstat_vvel_mean            =   6.9297927468218E-17
(PID.TID 0000.0001) %MON dynstat_vvel_sd              =   4.5505152835729E-06
(PID.TID 0000.0001) %MON dynstat_vvel_del2            =   2.0457906574387E-07
(PID.TID 0000.0001) %MON dynstat_wvel_max             =   1.8835819338423E-05
(PID.TID 0000.0001) %MON dynstat_wvel_min             =  -9.7164115997859E-05
(PID.TID 0000.0001) %MON dynstat_wvel_mean            =  -1.8773688122090E-22
(PID.TID 0000.0001) %MON dynstat_wvel_sd              =   1.0766109738735E-05
(PID.TID 0000.0001) %MON dynstat_wvel_del2            =   3.3042257159867E-06
(PID.TID 0000.0001) %MON dynstat_theta_max            =   2.0000969915031E+01
(PID.TID 0000.0001) %MON dynstat_theta_min            =   1.9928085977662E+01
(PID.TID 0000.0001) %MON dynstat_theta_mean           =   1.9999015817477E+01
(PID.TID 0000.0001) %MON dynstat_theta_sd             =   1.0159561795767E-02
(PID.TID 0000.0001) %MON dynstat_theta_del2           =   1.8073212300119E-03
(PID.TID 0000.0001) %MON dynstat_salt_max             =   3.5000000000000E+01
(PID.TID 0000.0001) %MON dynstat_salt_min             =   3.5000000000000E+01
(PID.TID 0000.0001) %MON dynstat_salt_mean            =   3.4999999999986E+01
(PID.TID 0000.0001) %MON dynstat_salt_sd              =   1.4040324458618E-11
(PID.TID 0000.0001) %MON dynstat_salt_del2            =   0.0000000000000E+00
(PID.TID 0000.0001) %MON advcfl_uvel_max              =   1.9860669405435E-04
(PID.TID 0000.0001) %MON advcfl_vvel_max              =   5.5858951556734E-04
(PID.TID 0000.0001) %MON advcfl_wvel_max              =   1.9432823199572E-03
(PID.TID 0000.0001) %MON advcfl_W_hf_max              =   1.9432823199572E-03
(PID.TID 0000.0001) %MON pe_b_mean                    =   7.3025252093015E-13
(PID.TID 0000.0001) %MON ke_max                       =   9.8963176105552E-10
(PID.TID 0000.0001) %MON ke_mean                      =   1.0345445293924E-11
(PID.TID 0000.0001) %MON ke_vol                       =   3.8082386146826E-02
(PID.TID 0000.0001) %MON vort_r_min                   =  -7.2475265340955E-04
(PID.TID 0000.0001) %MON vort_r_max                   =   7.3173490579680E-04
(PID.TID 0000.0001) %MON vort_a_mean                  =   5.0000000000007E-01
(PID.TID 0000.0001) %MON vort_a_sd                    =   4.2998667166909E-05
(PID.TID 0000.0001) %MON vort_p_mean                  =   5.3488372093031E-01
(PID.TID 0000.0001) %MON vort_p_sd                    =   2.2607237595734E-01
(PID.TID 0000.0001) %MON surfExpan_theta_mean         =   0.0000000000000E+00
(PID.TID 0000.0001) %MON surfExpan_salt_mean          =   0.0000000000000E+00
(PID.TID 0000.0001) // =======================================================
(PID.TID 0000.0001) // End MONITOR dynamic field statistics
(PID.TID 0000.0001) // =======================================================
 cg2d: Sum(rhs),rhsMax =  -2.29712082688849E-14  2.34545771654601E-06
(PID.TID 0000.0001)                    cg2d_init_res =    1.02122419972135E+00
(PID.TID 0000.0001)                       cg2d_iters =    39
(PID.TID 0000.0001)                         cg2d_res =    7.36875571732288E-08
 cg3d: Sum(rhs),rhsMax =  -1.94160659772180E-13  8.19941177647271E-07
(PID.TID 0000.0001)                    cg3d_init_res =    3.29970874711029E+00
(PID.TID 0000.0001)                       cg3d_iters =    10
(PID.TID 0000.0001)                         cg3d_res =    3.47197818341963E-01
(PID.TID 0000.0001) // =======================================================
(PID.TID 0000.0001) // Begin MONITOR dynamic field statistics
(PID.TID 0000.0001) // =======================================================
(PID.TID 0000.0001) %MON time_tsnumber                =                    14
(PID.TID 0000.0001) %MON time_secondsf                =   1.4000000000000E+00
(PID.TID 0000.0001) %MON dynstat_eta_max              =   6.6355240088010E-08
(PID.TID 0000.0001) %MON dynstat_eta_min              =  -1.0366089194198E-06
(PID.TID 0000.0001) %MON dynstat_eta_mean             =   3.7043531016509E-08
(PID.TID 0000.0001) %MON dynstat_eta_sd               =   1.5397013864748E-07
(PID.TID 0000.0001) %MON dynstat_eta_del2             =   2.7222697088236E-08
(PID.TID 0000.0001) %MON dynstat_uvel_max             =   1.1955635212996E-05
(PID.TID 0000.0001) %MON dynstat_uvel_min             =  -1.2039766871305E-05
(PID.TID 0000.0001) %MON dynstat_uvel_mean            =  -1.3272756439596E-17
(PID.TID 0000.0001) %MON dynstat_uvel_sd              =   1.1851761114193E-06
(PID.TID 0000.0001) %MON dynstat_uvel_del2            =   1.3040968195810E-07
(PID.TID 0000.0001) %MON dynstat_vvel_max             =   6.3400376504235E-05
(PID.TID 0000.0001) %MON dynstat_vvel_min             =  -6.4311531007233E-05
(PID.TID 0000.0001) %MON dynstat_vvel_mean            =  -1.9011437534483E-17
(PID.TID 0000.0001) %MON dynstat_vvel_sd              =   5.2197241556404E-06
(PID.TID 0000.0001) %MON dynstat_vvel_del2            =   2.2483176739528E-07
(PID.TID 0000.0001) %MON dynstat_wvel_max             =   2.0912385967029E-05
(PID.TID 0000.0001) %MON dynstat_wvel_min             =  -1.0950691464369E-04
(PID.TID 0000.0001) %MON dynstat_wvel_mean            =  -2.8369784498346E-22
(PID.TID 0000.0001) %MON dynstat_wvel_sd              =   1.2383185769912E-05
(PID.TID 0000.0001) %MON dynstat_wvel_del2            =   3.6327380003360E-06
(PID.TID 0000.0001) %MON dynstat_theta_max            =   2.0000968514992E+01
(PID.TID 0000.0001) %MON dynstat_theta_min            =   1.9922638924898E+01
(PID.TID 0000.0001) %MON dynstat_theta_mean           =   1.9998901403078E+01
(PID.TID 0000.0001) %MON dynstat_theta_sd             =   1.0925444840334E-02
(PID.TID 0000.0001) %MON dynstat_theta_del2           =   1.9236640388382E-03
(PID.TID 0000.0001) %MON dynstat_salt_max             =   3.5000000000000E+01
(PID.TID 0000.0001) %MON dynstat_salt_min             =   3.5000000000000E+01
(PID.TID 0000.0001) %MON dynstat_salt_mean            =   3.4999999999986E+01
(PID.TID 0000.0001) %MON dynstat_salt_sd              =   1.4040324458618E-11
(PID.TID 0000.0001) %MON dynstat_salt_del2            =   0.0000000000000E+00
(PID.TID 0000.0001) %MON advcfl_uvel_max              =   2.4204485194639E-04
(PID.TID 0000.0001) %MON advcfl_vvel_max              =   6.4311531007233E-04
(PID.TID 0000.0001) %MON advcfl_wvel_max              =   2.1901382928737E-03
(PID.TID 0000.0001) %MON advcfl_W_hf_max              =   2.1901382928737E-03
(PID.TID 0000.0001) %MON pe_b_mean                    =   8.4836294056445E-13
(PID.TID 0000.0001) %MON ke_max                       =   1.3214437513770E-09
(PID.TID 0000.0001) %MON ke_mean                      =   1.3705864968456E-11
(PID.TID 0000.0001) %MON ke_vol                       =   3.8082386146826E-02
(PID.TID 0000.0001) %MON vort_r_min                   =  -8.8261443549714E-04
(PID.TID 0000.0001) %MON vort_r_max                   =   8.9698552895608E-04
(PID.TID 0000.0001) %MON vort_a_mean                  =   5.0000000000007E-01
(PID.TID 0000.0001) %MON vort_a_sd                    =   5.3236496895170E-05
(PID.TID 0000.0001) %MON vort_p_mean                  =   5.3488372093032E-01
(PID.TID 0000.0001) %MON vort_p_sd                    =   2.2607239027688E-01
(PID.TID 0000.0001) %MON surfExpan_theta_mean         =   0.0000000000000E+00
(PID.TID 0000.0001) %MON surfExpan_salt_mean          =   0.0000000000000E+00
(PID.TID 0000.0001) // =======================================================
(PID.TID 0000.0001) // End MONITOR dynamic field statistics
(PID.TID 0000.0001) // =======================================================
 cg2d: Sum(rhs),rhsMax =  -4.95610497086574E-14  2.49657986883821E-06
(PID.TID 0000.0001)                    cg2d_init_res =    9.53217664813329E-01
(PID.TID 0000.0001)                       cg2d_iters =    39
(PID.TID 0000.0001)                         cg2d_res =    7.12523368564867E-08
 cg3d: Sum(rhs),rhsMax =  -8.98482677147427E-14  8.72135037846833E-07
(PID.TID 0000.0001)                    cg3d_init_res =    3.07959653560666E+00
(PID.TID 0000.0001)                       cg3d_iters =    10
(PID.TID 0000.0001)                         cg3d_res =    3.37382810543365E-01
(PID.TID 0000.0001) // =======================================================
(PID.TID 0000.0001) // Begin MONITOR dynamic field statistics
(PID.TID 0000.0001) // =======================================================
(PID.TID 0000.0001) %MON time_tsnumber                =                    15
(PID.TID 0000.0001) %MON time_secondsf                =   1.5000000000000E+00
(PID.TID 0000.0001) %MON dynstat_eta_max              =   7.0700546136255E-08
(PID.TID 0000.0001) %MON dynstat_eta_min              =  -1.1107024718830E-06
(PID.TID 0000.0001) %MON dynstat_eta_mean             =   3.9752500032071E-08
(PID.TID 0000.0001) %MON dynstat_eta_sd               =   1.6504836446033E-07
(PID.TID 0000.0001) %MON dynstat_eta_del2             =   2.8905987092119E-08
(PID.TID 0000.0001) %MON dynstat_uvel_max             =   1.4549353457821E-05
(PID.TID 0000.0001) %MON dynstat_uvel_min             =  -1.4623998482380E-05
(PID.TID 0000.0001) %MON dynstat_uvel_mean            =  -1.6711959150612E-17
(PID.TID 0000.0001) %MON dynstat_uvel_sd              =   1.4403779667798E-06
(PID.TID 0000.0001) %MON dynstat_uvel_del2            =   1.4506968763980E-07
(PID.TID 0000.0001) %MON dynstat_vvel_max             =   7.2134150132258E-05
(PID.TID 0000.0001) %MON dynstat_vvel_min             =  -7.3230245354275E-05
(PID.TID 0000.0001) %MON dynstat_vvel_mean            =   4.3665086445088E-17
(PID.TID 0000.0001) %MON dynstat_vvel_sd              =   5.9293422938145E-06
(PID.TID 0000.0001) %MON dynstat_vvel_del2            =   2.4884904204002E-07
(PID.TID 0000.0001) %MON dynstat_wvel_max             =   2.3702542339596E-05
(PID.TID 0000.0001) %MON dynstat_wvel_min             =  -1.2410998333621E-04
(PID.TID 0000.0001) %MON dynstat_wvel_mean            =   2.5160735661297E-22
(PID.TID 0000.0001) %MON dynstat_wvel_sd              =   1.4110845362194E-05
(PID.TID 0000.0001) %MON dynstat_wvel_del2            =   4.0344708286963E-06
(PID.TID 0000.0001) %MON dynstat_theta_max            =   2.0000967114401E+01
(PID.TID 0000.0001) %MON dynstat_theta_min            =   1.9917201985772E+01
(PID.TID 0000.0001) %MON dynstat_theta_mean           =   1.9998787019805E+01
(PID.TID 0000.0001) %MON dynstat_theta_sd             =   1.1689198228143E-02
(PID.TID 0000.0001) %MON dynstat_theta_del2           =   2.0396153916929E-03
(PID.TID 0000.0001) %MON dynstat_salt_max             =   3.5000000000000E+01
(PID.TID 0000.0001) %MON dynstat_salt_min             =   3.5000000000000E+01
(PID.TID 0000.0001) %MON dynstat_salt_mean            =   3.4999999999986E+01
(PID.TID 0000.0001) %MON dynstat_salt_sd              =   1.4040324458618E-11
(PID.TID 0000.0001) %MON dynstat_salt_del2            =   0.0000000000000E+00
(PID.TID 0000.0001) %MON advcfl_uvel_max              =   2.9399768163021E-04
(PID.TID 0000.0001) %MON advcfl_vvel_max              =   7.3230245354275E-04
(PID.TID 0000.0001) %MON advcfl_wvel_max              =   2.4821996667242E-03
(PID.TID 0000.0001) %MON advcfl_W_hf_max              =   2.4821996667242E-03
(PID.TID 0000.0001) %MON pe_b_mean                    =   9.7495243504464E-13
(PID.TID 0000.0001) %MON ke_max                       =   1.7295834194767E-09
(PID.TID 0000.0001) %MON ke_mean                      =   1.7816869361349E-11
(PID.TID 0000.0001) %MON ke_vol                       =   3.8082386146826E-02
(PID.TID 0000.0001) %MON vort_r_min                   =  -1.0607111161505E-03
(PID.TID 0000.0001) %MON vort_r_max                   =   1.0730057789021E-03
(PID.TID 0000.0001) %MON vort_a_mean                  =   5.0000000000007E-01
(PID.TID 0000.0001) %MON vort_a_sd                    =   6.4962195006225E-05
(PID.TID 0000.0001) %MON vort_p_mean                  =   5.3488372093032E-01
(PID.TID 0000.0001) %MON vort_p_sd                    =   2.2607241056020E-01
(PID.TID 0000.0001) %MON surfExpan_theta_mean         =   0.0000000000000E+00
(PID.TID 0000.0001) %MON surfExpan_salt_mean          =   0.0000000000000E+00
(PID.TID 0000.0001) // =======================================================
(PID.TID 0000.0001) // End MONITOR dynamic field statistics
(PID.TID 0000.0001) // =======================================================
 cg2d: Sum(rhs),rhsMax =  -8.18442535965858E-15  2.64710059649675E-06
(PID.TID 0000.0001)                    cg2d_init_res =    8.93228664338601E-01
(PID.TID 0000.0001)                       cg2d_iters =    38
(PID.TID 0000.0001)                         cg2d_res =    9.63470967350689E-08
 cg3d: Sum(rhs),rhsMax =  -1.05086078727723E-13  9.24013548595814E-07
(PID.TID 0000.0001)                    cg3d_init_res =    2.88762328054538E+00
(PID.TID 0000.0001)                       cg3d_iters =    10
(PID.TID 0000.0001)                         cg3d_res =    3.04629732562252E-01
(PID.TID 0000.0001) // =======================================================
(PID.TID 0000.0001) // Begin MONITOR dynamic field statistics
(PID.TID 0000.0001) // =======================================================
(PID.TID 0000.0001) %MON time_tsnumber                =                    16
(PID.TID 0000.0001) %MON time_secondsf                =   1.6000000000000E+00
(PID.TID 0000.0001) %MON dynstat_eta_max              =   7.5042314485379E-08
(PID.TID 0000.0001) %MON dynstat_eta_min              =  -1.1845663312041E-06
(PID.TID 0000.0001) %MON dynstat_eta_mean             =   4.2458878603623E-08
(PID.TID 0000.0001) %MON dynstat_eta_sd               =   1.7609387305425E-07
(PID.TID 0000.0001) %MON dynstat_eta_del2             =   3.0582950321876E-08
(PID.TID 0000.0001) %MON dynstat_uvel_max             =   1.7297225707967E-05
(PID.TID 0000.0001) %MON dynstat_uvel_min             =  -1.7419005115232E-05
(PID.TID 0000.0001) %MON dynstat_uvel_mean            =  -1.2834107937539E-17
(PID.TID 0000.0001) %MON dynstat_uvel_sd              =   1.7285116943454E-06
(PID.TID 0000.0001) %MON dynstat_uvel_del2            =   1.5695172620787E-07
(PID.TID 0000.0001) %MON dynstat_vvel_max             =   8.1437093660183E-05
(PID.TID 0000.0001) %MON dynstat_vvel_min             =  -8.2711724512827E-05
(PID.TID 0000.0001) %MON dynstat_vvel_mean            =  -1.5131276731838E-17
(PID.TID 0000.0001) %MON dynstat_vvel_sd              =   6.6807932657627E-06
(PID.TID 0000.0001) %MON dynstat_vvel_del2            =   2.7052091455964E-07
(PID.TID 0000.0001) %MON dynstat_wvel_max             =   2.6005440785626E-05
(PID.TID 0000.0001) %MON dynstat_wvel_min             =  -1.3908520946487E-04
(PID.TID 0000.0001) %MON dynstat_wvel_mean            =   1.5753576096015E-22
(PID.TID 0000.0001) %MON dynstat_wvel_sd              =   1.5944339019796E-05
(PID.TID 0000.0001) %MON dynstat_wvel_del2            =   4.3906489869019E-06
(PID.TID 0000.0001) %MON dynstat_theta_max            =   2.0000965713290E+01
(PID.TID 0000.0001) %MON dynstat_theta_min            =   1.9911774390776E+01
(PID.TID 0000.0001) %MON dynstat_theta_mean           =   1.9998672667570E+01
(PID.TID 0000.0001) %MON dynstat_theta_sd             =   1.2450828743606E-02
(PID.TID 0000.0001) %MON dynstat_theta_del2           =   2.1551472739689E-03
(PID.TID 0000.0001) %MON dynstat_salt_max             =   3.5000000000000E+01
(PID.TID 0000.0001) %MON dynstat_salt_min             =   3.5000000000000E+01
(PID.TID 0000.0001) %MON dynstat_salt_mean            =   3.4999999999986E+01
(PID.TID 0000.0001) %MON dynstat_salt_sd              =   1.4040324458618E-11
(PID.TID 0000.0001) %MON dynstat_salt_del2            =   0.0000000000000E+00
(PID.TID 0000.0001) %MON advcfl_uvel_max              =   3.5018788646301E-04
(PID.TID 0000.0001) %MON advcfl_vvel_max              =   8.2711724512827E-04
(PID.TID 0000.0001) %MON advcfl_wvel_max              =   2.7817041892974E-03
(PID.TID 0000.0001) %MON advcfl_W_hf_max              =   2.7817041892974E-03
(PID.TID 0000.0001) %MON pe_b_mean                    =   1.1099442806215E-12
(PID.TID 0000.0001) %MON ke_max                       =   2.2247816041458E-09
(PID.TID 0000.0001) %MON ke_mean                      =   2.2795989335489E-11
(PID.TID 0000.0001) %MON ke_vol                       =   3.8082386146826E-02
(PID.TID 0000.0001) %MON vort_r_min                   =  -1.2642059835169E-03
(PID.TID 0000.0001) %MON vort_r_max                   =   1.2854126707176E-03
(PID.TID 0000.0001) %MON vort_a_mean                  =   5.0000000000007E-01
(PID.TID 0000.0001) %MON vort_a_sd                    =   7.8246597970912E-05
(PID.TID 0000.0001) %MON vort_p_mean                  =   5.3488372093031E-01
(PID.TID 0000.0001) %MON vort_p_sd                    =   2.2607243857650E-01
(PID.TID 0000.0001) %MON surfExpan_theta_mean         =   0.0000000000000E+00
(PID.TID 0000.0001) %MON surfExpan_salt_mean          =   0.0000000000000E+00
(PID.TID 0000.0001) // =======================================================
(PID.TID 0000.0001) // End MONITOR dynamic field statistics
(PID.TID 0000.0001) // =======================================================
 cg2d: Sum(rhs),rhsMax =   9.37583344295945E-14  2.79700193074966E-06
(PID.TID 0000.0001)                    cg2d_init_res =    8.39928972143581E-01
(PID.TID 0000.0001)                       cg2d_iters =    38
(PID.TID 0000.0001)                         cg2d_res =    9.32758702588455E-08
 cg3d: Sum(rhs),rhsMax =   8.48418557630737E-14  9.75523317658776E-07
(PID.TID 0000.0001)                    cg3d_init_res =    2.71531681438003E+00
(PID.TID 0000.0001)                       cg3d_iters =    10
(PID.TID 0000.0001)                         cg3d_res =    2.94544858173654E-01
(PID.TID 0000.0001) // =======================================================
(PID.TID 0000.0001) // Begin MONITOR dynamic field statistics
(PID.TID 0000.0001) // =======================================================
(PID.TID 0000.0001) %MON time_tsnumber                =                    17
(PID.TID 0000.0001) %MON time_secondsf                =   1.7000000000000E+00
(PID.TID 0000.0001) %MON dynstat_eta_max              =   7.9380333983411E-08
(PID.TID 0000.0001) %MON dynstat_eta_min              =  -1.2581995061563E-06
(PID.TID 0000.0001) %MON dynstat_eta_mean             =   4.5162573343014E-08
(PID.TID 0000.0001) %MON dynstat_eta_sd               =   1.8710652629022E-07
(PID.TID 0000.0001) %MON dynstat_eta_del2             =   3.2254279363315E-08
(PID.TID 0000.0001) %MON dynstat_uvel_max             =   2.0542566066735E-05
(PID.TID 0000.0001) %MON dynstat_uvel_min             =  -2.0656607580433E-05
(PID.TID 0000.0001) %MON dynstat_uvel_mean            =  -1.5242381373057E-17
(PID.TID 0000.0001) %MON dynstat_uvel_sd              =   2.0519100505081E-06
(PID.TID 0000.0001) %MON dynstat_uvel_del2            =   1.7353095605514E-07
(PID.TID 0000.0001) %MON dynstat_vvel_max             =   9.1141468633172E-05
(PID.TID 0000.0001) %MON dynstat_vvel_min             =  -9.2629071395527E-05
(PID.TID 0000.0001) %MON dynstat_vvel_mean            =   1.0042987212165E-16
(PID.TID 0000.0001) %MON dynstat_vvel_sd              =   7.4712203431846E-06
(PID.TID 0000.0001) %MON dynstat_vvel_del2            =   2.9562280092451E-07
(PID.TID 0000.0001) %MON dynstat_wvel_max             =   2.8979342957320E-05
(PID.TID 0000.0001) %MON dynstat_wvel_min             =  -1.5505235009360E-04
(PID.TID 0000.0001) %MON dynstat_wvel_mean            =   2.5998408549826E-22
(PID.TID 0000.0001) %MON dynstat_wvel_sd              =   1.7885067303313E-05
(PID.TID 0000.0001) %MON dynstat_wvel_del2            =   4.8116300320162E-06
(PID.TID 0000.0001) %MON dynstat_theta_max            =   2.0000964311840E+01
(PID.TID 0000.0001) %MON dynstat_theta_min            =   1.9906355414897E+01
(PID.TID 0000.0001) %MON dynstat_theta_mean           =   1.9998558346284E+01
(PID.TID 0000.0001) %MON dynstat_theta_sd             =   1.3210344739220E-02
(PID.TID 0000.0001) %MON dynstat_theta_del2           =   2.2702686894786E-03
(PID.TID 0000.0001) %MON dynstat_salt_max             =   3.5000000000000E+01
(PID.TID 0000.0001) %MON dynstat_salt_min             =   3.5000000000000E+01
(PID.TID 0000.0001) %MON dynstat_salt_mean            =   3.4999999999986E+01
(PID.TID 0000.0001) %MON dynstat_salt_sd              =   1.4040324458618E-11
(PID.TID 0000.0001) %MON dynstat_salt_del2            =   0.0000000000000E+00
(PID.TID 0000.0001) %MON advcfl_uvel_max              =   4.1527594154973E-04
(PID.TID 0000.0001) %MON advcfl_vvel_max              =   9.2629071395527E-04
(PID.TID 0000.0001) %MON advcfl_wvel_max              =   3.1010470018721E-03
(PID.TID 0000.0001) %MON advcfl_W_hf_max              =   3.1010470018721E-03
(PID.TID 0000.0001) %MON pe_b_mean                    =   1.2532616730114E-12
(PID.TID 0000.0001) %MON ke_max                       =   2.8180810839377E-09
(PID.TID 0000.0001) %MON ke_mean                      =   2.8746117467332E-11
(PID.TID 0000.0001) %MON ke_vol                       =   3.8082386146826E-02
(PID.TID 0000.0001) %MON vort_r_min                   =  -1.4904989677197E-03
(PID.TID 0000.0001) %MON vort_r_max                   =   1.5090614360122E-03
(PID.TID 0000.0001) %MON vort_a_mean                  =   5.0000000000007E-01
(PID.TID 0000.0001) %MON vort_a_sd                    =   9.3191620861596E-05
(PID.TID 0000.0001) %MON vort_p_mean                  =   5.3488372093031E-01
(PID.TID 0000.0001) %MON vort_p_sd                    =   2.2607247649357E-01
(PID.TID 0000.0001) %MON surfExpan_theta_mean         =   0.0000000000000E+00
(PID.TID 0000.0001) %MON surfExpan_salt_mean          =   0.0000000000000E+00
(PID.TID 0000.0001) // =======================================================
(PID.TID 0000.0001) // End MONITOR dynamic field statistics
(PID.TID 0000.0001) // =======================================================
 cg2d: Sum(rhs),rhsMax =  -1.47694356744665E-14  2.94629488926822E-06
(PID.TID 0000.0001)                    cg2d_init_res =    7.92260889876869E-01
(PID.TID 0000.0001)                       cg2d_iters =    38
(PID.TID 0000.0001)                         cg2d_res =    9.01569695165055E-08
 cg3d: Sum(rhs),rhsMax =  -2.77076972476920E-13  1.02669675092995E-06
(PID.TID 0000.0001)                    cg3d_init_res =    2.56275989434623E+00
(PID.TID 0000.0001)                       cg3d_iters =    10
(PID.TID 0000.0001)                         cg3d_res =    2.69587743137338E-01
(PID.TID 0000.0001) // =======================================================
(PID.TID 0000.0001) // Begin MONITOR dynamic field statistics
(PID.TID 0000.0001) // =======================================================
(PID.TID 0000.0001) %MON time_tsnumber                =                    18
(PID.TID 0000.0001) %MON time_secondsf                =   1.8000000000000E+00
(PID.TID 0000.0001) %MON dynstat_eta_max              =   8.3714473201937E-08
(PID.TID 0000.0001) %MON dynstat_eta_min              =  -1.3316016832935E-06
(PID.TID 0000.0001) %MON dynstat_eta_mean             =   4.7863473903005E-08
(PID.TID 0000.0001) %MON dynstat_eta_sd               =   1.9808618369578E-07
(PID.TID 0000.0001) %MON dynstat_eta_del2             =   3.3918294351834E-08
(PID.TID 0000.0001) %MON dynstat_uvel_max             =   2.3984470802134E-05
(PID.TID 0000.0001) %MON dynstat_uvel_min             =  -2.4150775986696E-05
(PID.TID 0000.0001) %MON dynstat_uvel_mean            =  -7.1322006509665E-18
(PID.TID 0000.0001) %MON dynstat_uvel_sd              =   2.4118103809314E-06
(PID.TID 0000.0001) %MON dynstat_uvel_del2            =   1.8802406820872E-07
(PID.TID 0000.0001) %MON dynstat_vvel_max             =   1.0139310226685E-04
(PID.TID 0000.0001) %MON dynstat_vvel_min             =  -1.0308359324836E-04
(PID.TID 0000.0001) %MON dynstat_vvel_mean            =  -1.1134100114834E-17
(PID.TID 0000.0001) %MON dynstat_vvel_sd              =   8.3017848822723E-06
(PID.TID 0000.0001) %MON dynstat_vvel_del2            =   3.1870975695356E-07
(PID.TID 0000.0001) %MON dynstat_wvel_max             =   3.1487296106717E-05
(PID.TID 0000.0001) %MON dynstat_wvel_min             =  -1.7176127250629E-04
(PID.TID 0000.0001) %MON dynstat_wvel_mean            =  -3.5535619973600E-22
(PID.TID 0000.0001) %MON dynstat_wvel_sd              =   1.9929750418891E-05
(PID.TID 0000.0001) %MON dynstat_wvel_del2            =   5.1949002648141E-06
(PID.TID 0000.0001) %MON dynstat_theta_max            =   2.0000962910082E+01
(PID.TID 0000.0001) %MON dynstat_theta_min            =   1.9900944231651E+01
(PID.TID 0000.0001) %MON dynstat_theta_mean           =   1.9998444055860E+01
(PID.TID 0000.0001) %MON dynstat_theta_sd             =   1.3967755666027E-02
(PID.TID 0000.0001) %MON dynstat_theta_del2           =   2.3848323930794E-03
(PID.TID 0000.0001) %MON dynstat_salt_max             =   3.5000000000000E+01
(PID.TID 0000.0001) %MON dynstat_salt_min             =   3.5000000000000E+01
(PID.TID 0000.0001) %MON dynstat_salt_mean            =   3.4999999999986E+01
(PID.TID 0000.0001) %MON dynstat_salt_sd              =   1.4040324458618E-11
(PID.TID 0000.0001) %MON dynstat_salt_del2            =   0.0000000000000E+00
(PID.TID 0000.0001) %MON advcfl_uvel_max              =   4.8552194245739E-04
(PID.TID 0000.0001) %MON advcfl_vvel_max              =   1.0308359324836E-03
(PID.TID 0000.0001) %MON advcfl_wvel_max              =   3.4352254501258E-03
(PID.TID 0000.0001) %MON advcfl_W_hf_max              =   3.4352254501258E-03
(PID.TID 0000.0001) %MON pe_b_mean                    =   1.4048274616348E-12
(PID.TID 0000.0001) %MON ke_max                       =   3.5220651121020E-09
(PID.TID 0000.0001) %MON ke_mean                      =   3.5801875494547E-11
(PID.TID 0000.0001) %MON ke_vol                       =   3.8082386146826E-02
(PID.TID 0000.0001) %MON vort_r_min                   =  -1.7414030048082E-03
(PID.TID 0000.0001) %MON vort_r_max                   =   1.7717196822391E-03
(PID.TID 0000.0001) %MON vort_a_mean                  =   5.0000000000006E-01
(PID.TID 0000.0001) %MON vort_a_sd                    =   1.0986930664886E-04
(PID.TID 0000.0001) %MON vort_p_mean                  =   5.3488372093031E-01
(PID.TID 0000.0001) %MON vort_p_sd                    =   2.2607252683556E-01
(PID.TID 0000.0001) %MON surfExpan_theta_mean         =   0.0000000000000E+00
(PID.TID 0000.0001) %MON surfExpan_salt_mean          =   0.0000000000000E+00
(PID.TID 0000.0001) // =======================================================
(PID.TID 0000.0001) // End MONITOR dynamic field statistics
(PID.TID 0000.0001) // =======================================================
 cg2d: Sum(rhs),rhsMax =   2.79099660049908E-14  3.09496612797415E-06
(PID.TID 0000.0001)                    cg2d_init_res =    7.49384058188675E-01
(PID.TID 0000.0001)                       cg2d_iters =    38
(PID.TID 0000.0001)                         cg2d_res =    8.68210098756085E-08
 cg3d: Sum(rhs),rhsMax =   5.13790399114811E-14  1.07748247263869E-06
(PID.TID 0000.0001)                    cg3d_init_res =    2.42429014282225E+00
(PID.TID 0000.0001)                       cg3d_iters =    10
(PID.TID 0000.0001)                         cg3d_res =    2.60137758603034E-01
(PID.TID 0000.0001) // =======================================================
(PID.TID 0000.0001) // Begin MONITOR dynamic field statistics
(PID.TID 0000.0001) // =======================================================
(PID.TID 0000.0001) %MON time_tsnumber                =                    19
(PID.TID 0000.0001) %MON time_secondsf                =   1.9000000000000E+00
(PID.TID 0000.0001) %MON dynstat_eta_max              =   8.8044293379159E-08
(PID.TID 0000.0001) %MON dynstat_eta_min              =  -1.4047718620351E-06
(PID.TID 0000.0001) %MON dynstat_eta_mean             =   5.0561475375954E-08
(PID.TID 0000.0001) %MON dynstat_eta_sd               =   2.0903270973424E-07
(PID.TID 0000.0001) %MON dynstat_eta_del2             =   3.5573925816566E-08
(PID.TID 0000.0001) %MON dynstat_uvel_max             =   2.7946533950830E-05
(PID.TID 0000.0001) %MON dynstat_uvel_min             =  -2.8103943124045E-05
(PID.TID 0000.0001) %MON dynstat_uvel_mean            =  -1.0861104756684E-17
(PID.TID 0000.0001) %MON dynstat_uvel_sd              =   2.8103516250345E-06
(PID.TID 0000.0001) %MON dynstat_uvel_del2            =   2.0695980776055E-07
(PID.TID 0000.0001) %MON dynstat_vvel_max             =   1.1201912382990E-04
(PID.TID 0000.0001) %MON dynstat_vvel_min             =  -1.1394296358393E-04
(PID.TID 0000.0001) %MON dynstat_vvel_mean            =   5.7191681812508E-17
(PID.TID 0000.0001) %MON dynstat_vvel_sd              =   9.1697749995320E-06
(PID.TID 0000.0001) %MON dynstat_vvel_del2            =   3.4490251794648E-07
(PID.TID 0000.0001) %MON dynstat_wvel_max             =   3.4620873108126E-05
(PID.TID 0000.0001) %MON dynstat_wvel_min             =  -1.8930135475383E-04
(PID.TID 0000.0001) %MON dynstat_wvel_mean            =   4.1049540504568E-23
(PID.TID 0000.0001) %MON dynstat_wvel_sd              =   2.2078395231335E-05
(PID.TID 0000.0001) %MON dynstat_wvel_del2            =   5.6338558686570E-06
(PID.TID 0000.0001) %MON dynstat_theta_max            =   2.0000961508186E+01
(PID.TID 0000.0001) %MON dynstat_theta_min            =   1.9895540066051E+01
(PID.TID 0000.0001) %MON dynstat_theta_mean           =   1.9998329796212E+01
(PID.TID 0000.0001) %MON dynstat_theta_sd             =   1.4723071753041E-02
(PID.TID 0000.0001) %MON dynstat_theta_del2           =   2.4988243640214E-03
(PID.TID 0000.0001) %MON dynstat_salt_max             =   3.5000000000000E+01
(PID.TID 0000.0001) %MON dynstat_salt_min             =   3.5000000000000E+01
(PID.TID 0000.0001) %MON dynstat_salt_mean            =   3.4999999999986E+01
(PID.TID 0000.0001) %MON dynstat_salt_sd              =   1.4040324458618E-11
(PID.TID 0000.0001) %MON dynstat_salt_del2            =   0.0000000000000E+00
(PID.TID 0000.0001) %MON advcfl_uvel_max              =   5.6499555392403E-04
(PID.TID 0000.0001) %MON advcfl_vvel_max              =   1.1394296358393E-03
(PID.TID 0000.0001) %MON advcfl_wvel_max              =   3.7860270950766E-03
(PID.TID 0000.0001) %MON advcfl_W_hf_max              =   3.7860270950766E-03
(PID.TID 0000.0001) %MON pe_b_mean                    =   1.5645643081700E-12
(PID.TID 0000.0001) %MON ke_max                       =   4.3485381751383E-09
(PID.TID 0000.0001) %MON ke_mean                      =   4.4080407318674E-11
(PID.TID 0000.0001) %MON ke_vol                       =   3.8082386146826E-02
(PID.TID 0000.0001) %MON vort_r_min                   =  -2.0224819906684E-03
(PID.TID 0000.0001) %MON vort_r_max                   =   2.0490357424180E-03
(PID.TID 0000.0001) %MON vort_a_mean                  =   5.0000000000006E-01
(PID.TID 0000.0001) %MON vort_a_sd                    =   1.2837424571398E-04
(PID.TID 0000.0001) %MON vort_p_mean                  =   5.3488372093031E-01
(PID.TID 0000.0001) %MON vort_p_sd                    =   2.2607259261015E-01
(PID.TID 0000.0001) %MON surfExpan_theta_mean         =   0.0000000000000E+00
(PID.TID 0000.0001) %MON surfExpan_salt_mean          =   0.0000000000000E+00
(PID.TID 0000.0001) // =======================================================
(PID.TID 0000.0001) // End MONITOR dynamic field statistics
(PID.TID 0000.0001) // =======================================================
 cg2d: Sum(rhs),rhsMax =   1.06078340555982E-14  3.24302275748136E-06
(PID.TID 0000.0001)                    cg2d_init_res =    7.10613224560216E-01
(PID.TID 0000.0001)                       cg2d_iters =    38
(PID.TID 0000.0001)                         cg2d_res =    8.39130124799588E-08
 cg3d: Sum(rhs),rhsMax =  -1.49720513764606E-13  1.12791273358001E-06
(PID.TID 0000.0001)                    cg3d_init_res =    2.30020309390014E+00
(PID.TID 0000.0001)                       cg3d_iters =    10
(PID.TID 0000.0001)                         cg3d_res =    2.40154501429042E-01
(PID.TID 0000.0001) // =======================================================
(PID.TID 0000.0001) // Begin MONITOR dynamic field statistics
(PID.TID 0000.0001) // =======================================================
(PID.TID 0000.0001) %MON time_tsnumber                =                    20
(PID.TID 0000.0001) %MON time_secondsf                =   2.0000000000000E+00
(PID.TID 0000.0001) %MON dynstat_eta_max              =   9.2369872158459E-08
(PID.TID 0000.0001) %MON dynstat_eta_min              =  -1.4777093820533E-06
(PID.TID 0000.0001) %MON dynstat_eta_mean             =   5.3256454813916E-08
(PID.TID 0000.0001) %MON dynstat_eta_sd               =   2.1994595785532E-07
(PID.TID 0000.0001) %MON dynstat_eta_del2             =   3.7221246026039E-08
(PID.TID 0000.0001) %MON dynstat_uvel_max             =   3.2144317212144E-05
(PID.TID 0000.0001) %MON dynstat_uvel_min             =  -3.2354890963870E-05
(PID.TID 0000.0001) %MON dynstat_uvel_mean            =  -6.1663965451817E-18
(PID.TID 0000.0001) %MON dynstat_uvel_sd              =   3.2487903854276E-06
(PID.TID 0000.0001) %MON dynstat_uvel_del2            =   2.2435362375902E-07
(PID.TID 0000.0001) %MON dynstat_vvel_max             =   1.2316951376896E-04
(PID.TID 0000.0001) %MON dynstat_vvel_min             =  -1.2531264440471E-04
(PID.TID 0000.0001) %MON dynstat_vvel_mean            =  -1.9732857144987E-17
(PID.TID 0000.0001) %MON dynstat_vvel_sd              =   1.0076138864548E-05
(PID.TID 0000.0001) %MON dynstat_vvel_del2            =   3.6940511429918E-07
(PID.TID 0000.0001) %MON dynstat_wvel_max             =   3.7294496471769E-05
(PID.TID 0000.0001) %MON dynstat_wvel_min             =  -2.0740949070923E-04
(PID.TID 0000.0001) %MON dynstat_wvel_mean            =   1.2616497552982E-21
(PID.TID 0000.0001) %MON dynstat_wvel_sd              =   2.4328577025871E-05
(PID.TID 0000.0001) %MON dynstat_wvel_del2            =   6.0427333838932E-06
(PID.TID 0000.0001) %MON dynstat_theta_max            =   2.0000960106181E+01
(PID.TID 0000.0001) %MON dynstat_theta_min            =   1.9890142041899E+01
(PID.TID 0000.0001) %MON dynstat_theta_mean           =   1.9998215567254E+01
(PID.TID 0000.0001) %MON dynstat_theta_sd             =   1.5476303781839E-02
(PID.TID 0000.0001) %MON dynstat_theta_del2           =   2.6122496347471E-03
(PID.TID 0000.0001) %MON dynstat_salt_max             =   3.5000000000000E+01
(PID.TID 0000.0001) %MON dynstat_salt_min             =   3.5000000000000E+01
(PID.TID 0000.0001) %MON dynstat_salt_mean            =   3.4999999999986E+01
(PID.TID 0000.0001) %MON dynstat_salt_sd              =   1.4040324458618E-11
(PID.TID 0000.0001) %MON dynstat_salt_del2            =   0.0000000000000E+00
(PID.TID 0000.0001) %MON advcfl_uvel_max              =   6.5045568380200E-04
(PID.TID 0000.0001) %MON advcfl_vvel_max              =   1.2531264440471E-03
(PID.TID 0000.0001) %MON advcfl_wvel_max              =   4.1481898141846E-03
(PID.TID 0000.0001) %MON advcfl_W_hf_max              =   4.1481898141846E-03
(PID.TID 0000.0001) %MON pe_b_mean                    =   1.7323943911537E-12
(PID.TID 0000.0001) %MON ke_max                       =   5.3120244010177E-09
(PID.TID 0000.0001) %MON ke_mean                      =   5.3734139092635E-11
(PID.TID 0000.0001) %MON ke_vol                       =   3.8082386146826E-02
(PID.TID 0000.0001) %MON vort_r_min                   =  -2.3246615729851E-03
(PID.TID 0000.0001) %MON vort_r_max                   =   2.3650673802638E-03
(PID.TID 0000.0001) %MON vort_a_mean                  =   5.0000000000008E-01
(PID.TID 0000.0001) %MON vort_a_sd                    =   1.4877795828905E-04
(PID.TID 0000.0001) %MON vort_p_mean                  =   5.3488372093033E-01
(PID.TID 0000.0001) %MON vort_p_sd                    =   2.2607267725957E-01
(PID.TID 0000.0001) %MON surfExpan_theta_mean         =   0.0000000000000E+00
(PID.TID 0000.0001) %MON surfExpan_salt_mean          =   0.0000000000000E+00
(PID.TID 0000.0001) // =======================================================
(PID.TID 0000.0001) // End MONITOR dynamic field statistics
(PID.TID 0000.0001) // =======================================================
(PID.TID 0000.0001)   Seconds in section "ALL                    [THE_MODEL_MAIN]":
(PID.TID 0000.0001)           User time:  28.3799994
(PID.TID 0000.0001)         System time:  0.25999999
(PID.TID 0000.0001)     Wall clock time:  28.6443062
(PID.TID 0000.0001)          No. starts: 1
(PID.TID 0000.0001)           No. stops: 1
(PID.TID 0000.0001)   Seconds in section "INITIALISE_FIXED       [THE_MODEL_MAIN]":
(PID.TID 0000.0001)           User time:  0.260000011
(PID.TID 0000.0001)         System time:  0.0299999993
(PID.TID 0000.0001)     Wall clock time:  0.288482189
(PID.TID 0000.0001)          No. starts: 1
(PID.TID 0000.0001)           No. stops: 1
(PID.TID 0000.0001)   Seconds in section "THE_MAIN_LOOP          [THE_MODEL_MAIN]":
(PID.TID 0000.0001)           User time:  28.1199994
(PID.TID 0000.0001)         System time:  0.229999991
(PID.TID 0000.0001)     Wall clock time:  28.3556478
(PID.TID 0000.0001)          No. starts: 1
(PID.TID 0000.0001)           No. stops: 1
(PID.TID 0000.0001)   Seconds in section "INITIALISE_VARIA    [THE_MAIN_LOOP]":
(PID.TID 0000.0001)           User time:  0.0799999833
(PID.TID 0000.0001)         System time:  0.0299999993
(PID.TID 0000.0001)     Wall clock time:  0.117189169
(PID.TID 0000.0001)          No. starts: 1
(PID.TID 0000.0001)           No. stops: 1
(PID.TID 0000.0001)   Seconds in section "MONITOR             [THE_MAIN_LOOP]":
(PID.TID 0000.0001)           User time:  0.190000027
(PID.TID 0000.0001)         System time:  0.
(PID.TID 0000.0001)     Wall clock time:  0.184032917
(PID.TID 0000.0001)          No. starts: 1
(PID.TID 0000.0001)           No. stops: 1
(PID.TID 0000.0001)   Seconds in section "DO_THE_MODEL_IO     [THE_MAIN_LOOP]":
(PID.TID 0000.0001)           User time:  0.0499999523
(PID.TID 0000.0001)         System time:  0.0199999996
(PID.TID 0000.0001)     Wall clock time:  0.0778579712
(PID.TID 0000.0001)          No. starts: 1
(PID.TID 0000.0001)           No. stops: 1
(PID.TID 0000.0001)   Seconds in section "MAIN LOOP           [THE_MAIN_LOOP]":
(PID.TID 0000.0001)           User time:  27.7999994
(PID.TID 0000.0001)         System time:  0.179999992
(PID.TID 0000.0001)     Wall clock time:  27.9764161
(PID.TID 0000.0001)          No. starts: 1
(PID.TID 0000.0001)           No. stops: 1
(PID.TID 0000.0001)   Seconds in section "FORWARD_STEP        [THE_MAIN_LOOP]":
(PID.TID 0000.0001)           User time:  27.7999994
(PID.TID 0000.0001)         System time:  0.179999992
(PID.TID 0000.0001)     Wall clock time:  27.9757884
(PID.TID 0000.0001)          No. starts: 20
(PID.TID 0000.0001)           No. stops: 20
(PID.TID 0000.0001)   Seconds in section "EXTERNAL_FIELDS_LOAD[FORWARD_STEP]":
(PID.TID 0000.0001)           User time:  0.
(PID.TID 0000.0001)         System time:  0.
(PID.TID 0000.0001)     Wall clock time:  0.000582933426
(PID.TID 0000.0001)          No. starts: 20
(PID.TID 0000.0001)           No. stops: 20
(PID.TID 0000.0001)   Seconds in section "THERMODYNAMICS      [FORWARD_STEP]":
(PID.TID 0000.0001)           User time:  3.9799993
(PID.TID 0000.0001)         System time:  0.0200000033
(PID.TID 0000.0001)     Wall clock time:  4.00761247
(PID.TID 0000.0001)          No. starts: 20
(PID.TID 0000.0001)           No. stops: 20
(PID.TID 0000.0001)   Seconds in section "BLOCKING_EXCHANGES  [FORWARD_STEP]":
(PID.TID 0000.0001)           User time:  0.17000246
(PID.TID 0000.0001)         System time:  0.
(PID.TID 0000.0001)     Wall clock time:  0.136312723
(PID.TID 0000.0001)          No. starts: 40
(PID.TID 0000.0001)           No. stops: 40
(PID.TID 0000.0001)   Seconds in section "DYNAMICS            [FORWARD_STEP]":
(PID.TID 0000.0001)           User time:  4.9700014
(PID.TID 0000.0001)         System time:  0.00999999791
(PID.TID 0000.0001)     Wall clock time:  4.97030425
(PID.TID 0000.0001)          No. starts: 20
(PID.TID 0000.0001)           No. stops: 20
(PID.TID 0000.0001)   Seconds in section "CALC_GW          [FORWARD_STEP]":
(PID.TID 0000.0001)           User time:  0.969999909
(PID.TID 0000.0001)         System time:  0.
(PID.TID 0000.0001)     Wall clock time:  0.970664263
(PID.TID 0000.0001)          No. starts: 20
(PID.TID 0000.0001)           No. stops: 20
(PID.TID 0000.0001)   Seconds in section "SOLVE_FOR_PRESSURE  [FORWARD_STEP]":
(PID.TID 0000.0001)           User time:  12.7300018
(PID.TID 0000.0001)         System time:  0.00999999046
(PID.TID 0000.0001)     Wall clock time:  12.7364383
(PID.TID 0000.0001)          No. starts: 20
(PID.TID 0000.0001)           No. stops: 20
(PID.TID 0000.0001)   Seconds in section "THE_CORRECTION_STEP [FORWARD_STEP]":
(PID.TID 0000.0001)           User time:  0.619998097
(PID.TID 0000.0001)         System time:  0.
(PID.TID 0000.0001)     Wall clock time:  0.643849373
(PID.TID 0000.0001)          No. starts: 20
(PID.TID 0000.0001)           No. stops: 20
(PID.TID 0000.0001)   Seconds in section "MONITOR             [FORWARD_STEP]":
(PID.TID 0000.0001)           User time:  3.67999899
(PID.TID 0000.0001)         System time:  0.
(PID.TID 0000.0001)     Wall clock time:  3.70028257
(PID.TID 0000.0001)          No. starts: 20
(PID.TID 0000.0001)           No. stops: 20
(PID.TID 0000.0001)   Seconds in section "DO_THE_MODEL_IO     [FORWARD_STEP]":
(PID.TID 0000.0001)           User time:  0.130000114
(PID.TID 0000.0001)         System time:  0.0500000119
(PID.TID 0000.0001)     Wall clock time:  0.182813168
(PID.TID 0000.0001)          No. starts: 20
(PID.TID 0000.0001)           No. stops: 20
(PID.TID 0000.0001)   Seconds in section "WRITE_CHECKPOINT    [FORWARD_STEP]":
(PID.TID 0000.0001)           User time:  0.529998779
(PID.TID 0000.0001)         System time:  0.0899999887
(PID.TID 0000.0001)     Wall clock time:  0.619758129
(PID.TID 0000.0001)          No. starts: 20
(PID.TID 0000.0001)           No. stops: 20
(PID.TID 0000.0001)   Seconds in section "WRITE_CHECKPOINT       [THE_MODEL_MAIN]":
(PID.TID 0000.0001)           User time:  0.
(PID.TID 0000.0001)         System time:  0.
(PID.TID 0000.0001)     Wall clock time:  3.12328339E-05
(PID.TID 0000.0001)          No. starts: 1
(PID.TID 0000.0001)           No. stops: 1
(PID.TID 0000.0001) // ======================================================
(PID.TID 0000.0001) // Tile <-> Tile communication statistics
(PID.TID 0000.0001) // ======================================================
(PID.TID 0000.0001) // o Tile number: 000001
(PID.TID 0000.0001) //         No. X exchanges =              0
(PID.TID 0000.0001) //            Max. X spins =              0
(PID.TID 0000.0001) //            Min. X spins =     1000000000
(PID.TID 0000.0001) //          Total. X spins =              0
(PID.TID 0000.0001) //            Avg. X spins =       0.00E+00
(PID.TID 0000.0001) //         No. Y exchanges =              0
(PID.TID 0000.0001) //            Max. Y spins =              0
(PID.TID 0000.0001) //            Min. Y spins =     1000000000
(PID.TID 0000.0001) //          Total. Y spins =              0
(PID.TID 0000.0001) //            Avg. Y spins =       0.00E+00
(PID.TID 0000.0001) // o Thread number: 000001
(PID.TID 0000.0001) //            No. barriers =          20754
(PID.TID 0000.0001) //      Max. barrier spins =              1
(PID.TID 0000.0001) //      Min. barrier spins =              1
(PID.TID 0000.0001) //     Total barrier spins =          20754
(PID.TID 0000.0001) //      Avg. barrier spins =       1.00E+00
