(PID.TID 0000.0001) 
(PID.TID 0000.0001) // ======================================================
(PID.TID 0000.0001) //                      MITgcm UV
(PID.TID 0000.0001) //                      =========
(PID.TID 0000.0001) // ======================================================
(PID.TID 0000.0001) // execution environment starting up...
(PID.TID 0000.0001) 
(PID.TID 0000.0001) // MITgcmUV version:  checkpoint64q
(PID.TID 0000.0001) // Build user:        jmc
(PID.TID 0000.0001) // Build host:        baudelaire
(PID.TID 0000.0001) // Build date:        Sat Dec  7 16:22:36 EST 2013
(PID.TID 0000.0001) 
(PID.TID 0000.0001) // =======================================================
(PID.TID 0000.0001) // Execution Environment parameter file "eedata"
(PID.TID 0000.0001) // =======================================================
(PID.TID 0000.0001) ># Example "eedata" file
(PID.TID 0000.0001) ># Lines beginning "#" are comments
(PID.TID 0000.0001) ># nTx - No. threads per process in X
(PID.TID 0000.0001) ># nTy - No. threads per process in Y
(PID.TID 0000.0001) > &EEPARMS
(PID.TID 0000.0001) > /
(PID.TID 0000.0001) ># Note: Some systems use & as the
(PID.TID 0000.0001) ># namelist terminator. Other systems
(PID.TID 0000.0001) ># use a / character (as shown here).
(PID.TID 0000.0001) 
(PID.TID 0000.0001) // =======================================================
(PID.TID 0000.0001) // Computational Grid Specification ( see files "SIZE.h" )
(PID.TID 0000.0001) //                                  ( and "eedata"       )
(PID.TID 0000.0001) // =======================================================
(PID.TID 0000.0001)      nPx =    1 ; /* No. processes in X */
(PID.TID 0000.0001)      nPy =    1 ; /* No. processes in Y */
(PID.TID 0000.0001)      nSx =    4 ; /* No. tiles in X per process */
(PID.TID 0000.0001)      nSy =    1 ; /* No. tiles in Y per process */
(PID.TID 0000.0001)      sNx =   30 ; /* Tile size in X */
(PID.TID 0000.0001)      sNy =   23 ; /* Tile size in Y */
(PID.TID 0000.0001)      OLx =    3 ; /* Tile overlap distance in X */
(PID.TID 0000.0001)      OLy =    3 ; /* Tile overlap distance in Y */
(PID.TID 0000.0001)      nTx =    1 ; /* No. threads in X per process */
(PID.TID 0000.0001)      nTy =    1 ; /* No. threads in Y per process */
(PID.TID 0000.0001)       Nr =   29 ; /* No. levels in the vertical   */
(PID.TID 0000.0001)       Nx =  120 ; /* Total domain size in X ( = nPx*nSx*sNx ) */
(PID.TID 0000.0001)       Ny =   23 ; /* Total domain size in Y ( = nPy*nSy*sNy ) */
(PID.TID 0000.0001)   nTiles =    4 ; /* Total no. tiles per process ( = nSx*nSy ) */
(PID.TID 0000.0001)   nProcs =    1 ; /* Total no. processes ( = nPx*nPy ) */
(PID.TID 0000.0001) nThreads =    1 ; /* Total no. threads per process ( = nTx*nTy ) */
(PID.TID 0000.0001) usingMPI =    F ; /* Flag used to control whether MPI is in use */
(PID.TID 0000.0001)                   /*  note: To execute a program with MPI calls */
(PID.TID 0000.0001)                   /*  it must be launched appropriately e.g     */
(PID.TID 0000.0001)                   /*  "mpirun -np 64 ......"                    */
(PID.TID 0000.0001) useCoupler=    F ;/* Flag used to control communications with   */
(PID.TID 0000.0001)                   /*  other model components, through a coupler */
(PID.TID 0000.0001) debugMode =    F ; /* print debug msg. (sequence of S/R calls)  */
(PID.TID 0000.0001) printMapIncludesZeros=    F ; /* print zeros in Std.Output maps */
(PID.TID 0000.0001) maxLengthPrt1D=   65 /* maxLength of 1D array printed to StdOut */
(PID.TID 0000.0001) 
(PID.TID 0000.0001) // ======================================================
(PID.TID 0000.0001) // Mapping of tiles to threads
(PID.TID 0000.0001) // ======================================================
(PID.TID 0000.0001) // -o- Thread   1, tiles (   1:   4,   1:   1)
(PID.TID 0000.0001) 
(PID.TID 0000.0001) // ======================================================
(PID.TID 0000.0001) // Tile <-> Tile connectvity table
(PID.TID 0000.0001) // ======================================================
(PID.TID 0000.0001) // Tile number: 000001 (process no. = 000000)
(PID.TID 0000.0001) //        WEST: Tile = 000004, Process = 000000, Comm = put
(PID.TID 0000.0001) //                bi = 000004, bj = 000001
(PID.TID 0000.0001) //        EAST: Tile = 000002, Process = 000000, Comm = put
(PID.TID 0000.0001) //                bi = 000002, bj = 000001
(PID.TID 0000.0001) //       SOUTH: Tile = 000001, Process = 000000, Comm = put
(PID.TID 0000.0001) //                bi = 000001, bj = 000001
(PID.TID 0000.0001) //       NORTH: Tile = 000001, Process = 000000, Comm = put
(PID.TID 0000.0001) //                bi = 000001, bj = 000001
(PID.TID 0000.0001) // Tile number: 000002 (process no. = 000000)
(PID.TID 0000.0001) //        WEST: Tile = 000001, Process = 000000, Comm = put
(PID.TID 0000.0001) //                bi = 000001, bj = 000001
(PID.TID 0000.0001) //        EAST: Tile = 000003, Process = 000000, Comm = put
(PID.TID 0000.0001) //                bi = 000003, bj = 000001
(PID.TID 0000.0001) //       SOUTH: Tile = 000002, Process = 000000, Comm = put
(PID.TID 0000.0001) //                bi = 000002, bj = 000001
(PID.TID 0000.0001) //       NORTH: Tile = 000002, Process = 000000, Comm = put
(PID.TID 0000.0001) //                bi = 000002, bj = 000001
(PID.TID 0000.0001) // Tile number: 000003 (process no. = 000000)
(PID.TID 0000.0001) //        WEST: Tile = 000002, Process = 000000, Comm = put
(PID.TID 0000.0001) //                bi = 000002, bj = 000001
(PID.TID 0000.0001) //        EAST: Tile = 000004, Process = 000000, Comm = put
(PID.TID 0000.0001) //                bi = 000004, bj = 000001
(PID.TID 0000.0001) //       SOUTH: Tile = 000003, Process = 000000, Comm = put
(PID.TID 0000.0001) //                bi = 000003, bj = 000001
(PID.TID 0000.0001) //       NORTH: Tile = 000003, Process = 000000, Comm = put
(PID.TID 0000.0001) //                bi = 000003, bj = 000001
(PID.TID 0000.0001) // Tile number: 000004 (process no. = 000000)
(PID.TID 0000.0001) //        WEST: Tile = 000003, Process = 000000, Comm = put
(PID.TID 0000.0001) //                bi = 000003, bj = 000001
(PID.TID 0000.0001) //        EAST: Tile = 000001, Process = 000000, Comm = put
(PID.TID 0000.0001) //                bi = 000001, bj = 000001
(PID.TID 0000.0001) //       SOUTH: Tile = 000004, Process = 000000, Comm = put
(PID.TID 0000.0001) //                bi = 000004, bj = 000001
(PID.TID 0000.0001) //       NORTH: Tile = 000004, Process = 000000, Comm = put
(PID.TID 0000.0001) //                bi = 000004, bj = 000001
(PID.TID 0000.0001) 
(PID.TID 0000.0001)  INI_PARMS: opening model parameter file "data"
(PID.TID 0000.0001)  OPEN_COPY_DATA_FILE: opening file data
(PID.TID 0000.0001) // =======================================================
(PID.TID 0000.0001) // Parameter file "data"
(PID.TID 0000.0001) // =======================================================
(PID.TID 0000.0001) ># ====================
(PID.TID 0000.0001) ># | Model parameters |
(PID.TID 0000.0001) ># ====================
(PID.TID 0000.0001) >#
(PID.TID 0000.0001) ># Continuous equation parameters
(PID.TID 0000.0001) > &PARM01
(PID.TID 0000.0001) > tRef=29*20.0,
(PID.TID 0000.0001) > sRef=29*35.0,
(PID.TID 0000.0001) > viscAh=5.0E-6,
(PID.TID 0000.0001) > viscAz=5.0E-6,
(PID.TID 0000.0001) > no_slip_sides=.FALSE.,
(PID.TID 0000.0001) > no_slip_bottom=.FALSE.,
(PID.TID 0000.0001) > diffKhT=2.5E-6,
(PID.TID 0000.0001) > diffKzT=2.5E-6,
(PID.TID 0000.0001) > diffKhS=1.0E-6,
(PID.TID 0000.0001) > diffKzS=1.0E-6,
(PID.TID 0000.0001) > f0=0.5,
(PID.TID 0000.0001) > eosType='LINEAR',
(PID.TID 0000.0001) > sBeta =0.,
(PID.TID 0000.0001) > gravity=9.81,
(PID.TID 0000.0001) > rhoConst=1000.0,
(PID.TID 0000.0001) > rhoNil=1000.0,
(PID.TID 0000.0001) >#heatCapacity_Cp=3900.0,
(PID.TID 0000.0001) > rigidLid=.TRUE.,
(PID.TID 0000.0001) > implicitFreeSurface=.FALSE.,
(PID.TID 0000.0001) > nonHydrostatic=.TRUE.,
(PID.TID 0000.0001) > readBinaryPrec=32,
(PID.TID 0000.0001) > /
(PID.TID 0000.0001) >
(PID.TID 0000.0001) ># Elliptic solver parameters
(PID.TID 0000.0001) > &PARM02
(PID.TID 0000.0001) > cg2dMaxIters=1000,
(PID.TID 0000.0001) > cg2dTargetResidual=1.E-7,
(PID.TID 0000.0001) > cg3dMaxIters=10,
(PID.TID 0000.0001) > cg3dTargetResidual=1.E-9,
(PID.TID 0000.0001) > /
(PID.TID 0000.0001) >
(PID.TID 0000.0001) ># Time stepping parameters
(PID.TID 0000.0001) > &PARM03
(PID.TID 0000.0001) > nIter0=0,
(PID.TID 0000.0001) > nTimeSteps=20,
(PID.TID 0000.0001) >#nTimeSteps=36000000,
(PID.TID 0000.0001) > deltaT=0.1,
(PID.TID 0000.0001) > abEps=0.1,
(PID.TID 0000.0001) > pChkptFreq=2.0,
(PID.TID 0000.0001) >#chkptFreq=2.0,
(PID.TID 0000.0001) > dumpFreq=2.0,
(PID.TID 0000.0001) > monitorSelect=2,
(PID.TID 0000.0001) > monitorFreq=0.1,
(PID.TID 0000.0001) > /
(PID.TID 0000.0001) >
(PID.TID 0000.0001) ># Gridding parameters
(PID.TID 0000.0001) > &PARM04
(PID.TID 0000.0001) > usingCylindricalGrid=.TRUE.,
(PID.TID 0000.0001) > dXspacing=3.,
(PID.TID 0000.0001) > dYspacing=0.01,
(PID.TID 0000.0001) > delZ=29*0.005,
(PID.TID 0000.0001) > ygOrigin=0.07,
(PID.TID 0000.0001) > /
(PID.TID 0000.0001) >
(PID.TID 0000.0001) ># Input datasets
(PID.TID 0000.0001) > &PARM05
(PID.TID 0000.0001) > hydrogThetaFile='thetaPolR.bin',
(PID.TID 0000.0001) > bathyFile='bathyPolR.bin',
(PID.TID 0000.0001) > tCylIn  = 0.,
(PID.TID 0000.0001) > tCylOut = 20.,
(PID.TID 0000.0001) > /
(PID.TID 0000.0001) 
(PID.TID 0000.0001)  INI_PARMS ; starts to read PARM01
(PID.TID 0000.0001)  INI_PARMS ; read PARM01 : OK
(PID.TID 0000.0001)  INI_PARMS ; starts to read PARM02
(PID.TID 0000.0001)  INI_PARMS ; read PARM02 : OK
(PID.TID 0000.0001)  INI_PARMS ; starts to read PARM03
(PID.TID 0000.0001)  INI_PARMS ; read PARM03 : OK
(PID.TID 0000.0001)  INI_PARMS ; starts to read PARM04
(PID.TID 0000.0001)  INI_PARMS ; read PARM04 : OK
(PID.TID 0000.0001) S/R INI_PARMS ; Cylinder OK
(PID.TID 0000.0001)  INI_PARMS ; starts to read PARM05
(PID.TID 0000.0001)  INI_PARMS ; read PARM05 : OK
(PID.TID 0000.0001)  INI_PARMS: finished reading file "data"
(PID.TID 0000.0001)  PACKAGES_BOOT: opening data.pkg
(PID.TID 0000.0001)  OPEN_COPY_DATA_FILE: opening file data.pkg
(PID.TID 0000.0001) // =======================================================
(PID.TID 0000.0001) // Parameter file "data.pkg"
(PID.TID 0000.0001) // =======================================================
(PID.TID 0000.0001) ># Packages
(PID.TID 0000.0001) > &PACKAGES
(PID.TID 0000.0001) > useMNC=.TRUE.,
(PID.TID 0000.0001) > /
(PID.TID 0000.0001) 
(PID.TID 0000.0001)  PACKAGES_BOOT: finished reading data.pkg
(PID.TID 0000.0001)  MNC_READPARMS: opening file 'data.mnc'
(PID.TID 0000.0001)  OPEN_COPY_DATA_FILE: opening file data.mnc
(PID.TID 0000.0001) // =======================================================
(PID.TID 0000.0001) // Parameter file "data.mnc"
(PID.TID 0000.0001) // =======================================================
(PID.TID 0000.0001) ># Example "data.mnc" file
(PID.TID 0000.0001) ># Lines beginning "#" are comments
(PID.TID 0000.0001) > &MNC_01
(PID.TID 0000.0001) ># mnc_echo_gvtypes=.FALSE.,
(PID.TID 0000.0001) ># mnc_use_indir=.FALSE.,
(PID.TID 0000.0001) > mnc_use_outdir=.TRUE.,
(PID.TID 0000.0001) > mnc_outdir_str='mnc_test_',
(PID.TID 0000.0001) >#mnc_outdir_date=.TRUE.,
(PID.TID 0000.0001) > monitor_mnc=.FALSE.,
(PID.TID 0000.0001) >#snapshot_mnc=.FALSE.,
(PID.TID 0000.0001) >#timeave_mnc=.FALSE.,
(PID.TID 0000.0001) > pickup_read_mnc=.FALSE.,
(PID.TID 0000.0001) > pickup_write_mnc=.FALSE.,
(PID.TID 0000.0001) > /
(PID.TID 0000.0001) 
(PID.TID 0000.0001)  MNC_READPARMS: finished reading data.mnc
(PID.TID 0000.0001) SET_PARMS: done
(PID.TID 0000.0001) Enter INI_VERTICAL_GRID: setInterFDr=    T ; setCenterDr=    F
(PID.TID 0000.0001) %MON XC_max                       =   3.5850000000000E+02
(PID.TID 0000.0001) %MON XC_min                       =   1.5000000000000E+00
(PID.TID 0000.0001) %MON XC_mean                      =   1.8000000000000E+02
(PID.TID 0000.0001) %MON XC_sd                        =   1.0391943995230E+02
(PID.TID 0000.0001) %MON XG_max                       =   3.5700000000000E+02
(PID.TID 0000.0001) %MON XG_min                       =   0.0000000000000E+00
(PID.TID 0000.0001) %MON XG_mean                      =   1.7850000000000E+02
(PID.TID 0000.0001) %MON XG_sd                        =   1.0391943995230E+02
(PID.TID 0000.0001) %MON DXC_max                      =   1.5446163880150E-02
(PID.TID 0000.0001) %MON DXC_min                      =   3.9269908169872E-03
(PID.TID 0000.0001) %MON DXC_mean                     =   9.6865773485685E-03
(PID.TID 0000.0001) %MON DXC_sd                       =   3.4731613586981E-03
(PID.TID 0000.0001) %MON DXF_max                      =   1.5446163880150E-02
(PID.TID 0000.0001) %MON DXF_min                      =   3.9269908169872E-03
(PID.TID 0000.0001) %MON DXF_mean                     =   9.6865773485685E-03
(PID.TID 0000.0001) %MON DXF_sd                       =   3.4731613586981E-03
(PID.TID 0000.0001) %MON DXG_max                      =   1.5184364492351E-02
(PID.TID 0000.0001) %MON DXG_min                      =   3.6651914291881E-03
(PID.TID 0000.0001) %MON DXG_mean                     =   9.4247779607694E-03
(PID.TID 0000.0001) %MON DXG_sd                       =   3.4731613586981E-03
(PID.TID 0000.0001) %MON DXV_max                      =   1.5184364492351E-02
(PID.TID 0000.0001) %MON DXV_min                      =   3.6651914291881E-03
(PID.TID 0000.0001) %MON DXV_mean                     =   9.4247779607694E-03
(PID.TID 0000.0001) %MON DXV_sd                       =   3.4731613586981E-03
(PID.TID 0000.0001) %MON YC_max                       =   2.9500000000000E-01
(PID.TID 0000.0001) %MON YC_min                       =   7.5000000000000E-02
(PID.TID 0000.0001) %MON YC_mean                      =   1.8500000000000E-01
(PID.TID 0000.0001) %MON YC_sd                        =   6.6332495807108E-02
(PID.TID 0000.0001) %MON YG_max                       =   2.9000000000000E-01
(PID.TID 0000.0001) %MON YG_min                       =   7.0000000000000E-02
(PID.TID 0000.0001) %MON YG_mean                      =   1.8000000000000E-01
(PID.TID 0000.0001) %MON YG_sd                        =   6.6332495807108E-02
(PID.TID 0000.0001) %MON DYC_max                      =   1.0000000000000E-02
(PID.TID 0000.0001) %MON DYC_min                      =   1.0000000000000E-02
(PID.TID 0000.0001) %MON DYC_mean                     =   9.9999999999999E-03
(PID.TID 0000.0001) %MON DYC_sd                       =   1.4918621893401E-16
(PID.TID 0000.0001) %MON DYF_max                      =   1.0000000000000E-02
(PID.TID 0000.0001) %MON DYF_min                      =   1.0000000000000E-02
(PID.TID 0000.0001) %MON DYF_mean                     =   9.9999999999999E-03
(PID.TID 0000.0001) %MON DYF_sd                       =   1.4918621893401E-16
(PID.TID 0000.0001) %MON DYG_max                      =   1.0000000000000E-02
(PID.TID 0000.0001) %MON DYG_min                      =   1.0000000000000E-02
(PID.TID 0000.0001) %MON DYG_mean                     =   9.9999999999999E-03
(PID.TID 0000.0001) %MON DYG_sd                       =   1.4918621893401E-16
(PID.TID 0000.0001) %MON DYU_max                      =   1.0000000000000E-02
(PID.TID 0000.0001) %MON DYU_min                      =   1.0000000000000E-02
(PID.TID 0000.0001) %MON DYU_mean                     =   9.9999999999999E-03
(PID.TID 0000.0001) %MON DYU_sd                       =   1.4918621893401E-16
(PID.TID 0000.0001) %MON RA_max                       =   1.5446163880150E-04
(PID.TID 0000.0001) %MON RA_min                       =   3.9269908169872E-05
(PID.TID 0000.0001) %MON RA_mean                      =   9.6865773485685E-05
(PID.TID 0000.0001) %MON RA_sd                        =   3.4731613586981E-05
(PID.TID 0000.0001) %MON RAW_max                      =   1.5446163880150E-04
(PID.TID 0000.0001) %MON RAW_min                      =   3.9269908169872E-05
(PID.TID 0000.0001) %MON RAW_mean                     =   9.6865773485685E-05
(PID.TID 0000.0001) %MON RAW_sd                       =   3.4731613586981E-05
(PID.TID 0000.0001) %MON RAS_max                      =   1.5184364492351E-04
(PID.TID 0000.0001) %MON RAS_min                      =   3.6651914291881E-05
(PID.TID 0000.0001) %MON RAS_mean                     =   9.4247779607694E-05
(PID.TID 0000.0001) %MON RAS_sd                       =   3.4731613586981E-05
(PID.TID 0000.0001) %MON RAZ_max                      =   1.5184364492351E-04
(PID.TID 0000.0001) %MON RAZ_min                      =   3.6651914291881E-05
(PID.TID 0000.0001) %MON RAZ_mean                     =   9.4247779607694E-05
(PID.TID 0000.0001) %MON RAZ_sd                       =   3.4731613586981E-05
(PID.TID 0000.0001) %MON AngleCS_max                  =   1.0000000000000E+00
(PID.TID 0000.0001) %MON AngleCS_min                  =   1.0000000000000E+00
(PID.TID 0000.0001) %MON AngleCS_mean                 =   1.0000000000000E+00
(PID.TID 0000.0001) %MON AngleCS_sd                   =   0.0000000000000E+00
(PID.TID 0000.0001) %MON AngleSN_max                  =   0.0000000000000E+00
(PID.TID 0000.0001) %MON AngleSN_min                  =   0.0000000000000E+00
(PID.TID 0000.0001) %MON AngleSN_mean                 =   0.0000000000000E+00
(PID.TID 0000.0001) %MON AngleSN_sd                   =   0.0000000000000E+00
(PID.TID 0000.0001)  MDS_READ_FIELD: opening global file: bathyPolR.bin
(PID.TID 0000.0001) // =======================================================
(PID.TID 0000.0001) // Field Model R_low (ini_masks_etc)
(PID.TID 0000.0001) // CMIN =         -1.450000000000000E-01
(PID.TID 0000.0001) // CMAX =         -1.450000000000000E-01
(PID.TID 0000.0001) // CINT =          0.000000000000000E+00
(PID.TID 0000.0001) // SYMBOLS (CMIN->CMAX): -abcdefghijklmnopqrstuvwxyz+
(PID.TID 0000.0001) //                  0.0: .
(PID.TID 0000.0001) // RANGE I (Lo:Hi:Step):(    -2:   123:     1)
(PID.TID 0000.0001) // RANGE J (Lo:Hi:Step):(    26:    -2:    -1)
(PID.TID 0000.0001) // RANGE K (Lo:Hi:Step):(   1:   1:   1)
(PID.TID 0000.0001) // =======================================================
(PID.TID 0000.0001) // =======================================================
(PID.TID 0000.0001) // END OF FIELD                                          =
(PID.TID 0000.0001) // =======================================================
(PID.TID 0000.0001) 
(PID.TID 0000.0001) // =======================================================
(PID.TID 0000.0001) // Field Model Ro_surf (ini_masks_etc)
(PID.TID 0000.0001) // CMIN =          1.561251128379126E-17
(PID.TID 0000.0001) // CMAX =          1.561251128379126E-17
(PID.TID 0000.0001) // CINT =          0.000000000000000E+00
(PID.TID 0000.0001) // SYMBOLS (CMIN->CMAX): -abcdefghijklmnopqrstuvwxyz+
(PID.TID 0000.0001) //                  0.0: .
(PID.TID 0000.0001) // RANGE I (Lo:Hi:Step):(    -2:   123:     1)
(PID.TID 0000.0001) // RANGE J (Lo:Hi:Step):(    26:    -2:    -1)
(PID.TID 0000.0001) // RANGE K (Lo:Hi:Step):(   1:   1:   1)
(PID.TID 0000.0001) // =======================================================
(PID.TID 0000.0001) // =======================================================
(PID.TID 0000.0001) // END OF FIELD                                          =
(PID.TID 0000.0001) // =======================================================
(PID.TID 0000.0001) 
(PID.TID 0000.0001) // =======================================================
(PID.TID 0000.0001) // Field hFacC at iteration          0
(PID.TID 0000.0001) // CMIN =          1.000000000000000E+00
(PID.TID 0000.0001) // CMAX =          1.000000000000000E+00
(PID.TID 0000.0001) // CINT =          0.000000000000000E+00
(PID.TID 0000.0001) // SYMBOLS (CMIN->CMAX): -abcdefghijklmnopqrstuvwxyz+
(PID.TID 0000.0001) //                  0.0: .
(PID.TID 0000.0001) // RANGE I (Lo:Hi:Step):(    -2:   123:     1)
(PID.TID 0000.0001) // RANGE J (Lo:Hi:Step):(    26:    -2:    -1)
(PID.TID 0000.0001) // RANGE K (Lo:Hi:Step):(   1:   1:   1)
(PID.TID 0000.0001) // =======================================================
(PID.TID 0000.0001) // =======================================================
(PID.TID 0000.0001) // END OF FIELD                                          =
(PID.TID 0000.0001) // =======================================================
(PID.TID 0000.0001) 
(PID.TID 0000.0001) // =======================================================
(PID.TID 0000.0001) // Field hFacW at iteration          0
(PID.TID 0000.0001) // CMIN =          1.000000000000000E+00
(PID.TID 0000.0001) // CMAX =          1.000000000000000E+00
(PID.TID 0000.0001) // CINT =          0.000000000000000E+00
(PID.TID 0000.0001) // SYMBOLS (CMIN->CMAX): -abcdefghijklmnopqrstuvwxyz+
(PID.TID 0000.0001) //                  0.0: .
(PID.TID 0000.0001) // RANGE I (Lo:Hi:Step):(    -2:   123:     1)
(PID.TID 0000.0001) // RANGE J (Lo:Hi:Step):(    26:    -2:    -1)
(PID.TID 0000.0001) // RANGE K (Lo:Hi:Step):(   1:   1:   1)
(PID.TID 0000.0001) // =======================================================
(PID.TID 0000.0001) // =======================================================
(PID.TID 0000.0001) // END OF FIELD                                          =
(PID.TID 0000.0001) // =======================================================
(PID.TID 0000.0001) 
(PID.TID 0000.0001) // =======================================================
(PID.TID 0000.0001) // Field hFacS at iteration          0
(PID.TID 0000.0001) // CMIN =          1.000000000000000E+00
(PID.TID 0000.0001) // CMAX =          1.000000000000000E+00
(PID.TID 0000.0001) // CINT =          0.000000000000000E+00
(PID.TID 0000.0001) // SYMBOLS (CMIN->CMAX): -abcdefghijklmnopqrstuvwxyz+
(PID.TID 0000.0001) //                  0.0: .
(PID.TID 0000.0001) // RANGE I (Lo:Hi:Step):(    -2:   123:     1)
(PID.TID 0000.0001) // RANGE J (Lo:Hi:Step):(    26:    -2:    -1)
(PID.TID 0000.0001) // RANGE K (Lo:Hi:Step):(   1:   1:   1)
(PID.TID 0000.0001) // =======================================================
(PID.TID 0000.0001) // =======================================================
(PID.TID 0000.0001) // END OF FIELD                                          =
(PID.TID 0000.0001) // =======================================================
(PID.TID 0000.0001) 
(PID.TID 0000.0001) GAD_INIT_FIXED: GAD_OlMinSize=  1  0  1
(PID.TID 0000.0001) 
(PID.TID 0000.0001) // ===================================
(PID.TID 0000.0001) // GAD parameters :
(PID.TID 0000.0001) // ===================================
(PID.TID 0000.0001) tempAdvScheme =   /* Temp. Horiz.Advection scheme selector */
(PID.TID 0000.0001)                       2
(PID.TID 0000.0001)     ;
(PID.TID 0000.0001) tempVertAdvScheme =   /* Temp. Vert. Advection scheme selector */
(PID.TID 0000.0001)                       2
(PID.TID 0000.0001)     ;
(PID.TID 0000.0001) tempMultiDimAdvec =   /* use Muti-Dim Advec method for Temp */
(PID.TID 0000.0001)                   F
(PID.TID 0000.0001)     ;
(PID.TID 0000.0001) tempSOM_Advection = /* use 2nd Order Moment Advection for Temp */
(PID.TID 0000.0001)                   F
(PID.TID 0000.0001)     ;
(PID.TID 0000.0001) AdamsBashforthGt = /* apply Adams-Bashforth extrapolation on Gt */
(PID.TID 0000.0001)                   T
(PID.TID 0000.0001)     ;
(PID.TID 0000.0001) AdamsBashforth_T = /* apply Adams-Bashforth extrapolation on Temp */
(PID.TID 0000.0001)                   F
(PID.TID 0000.0001)     ;
(PID.TID 0000.0001) saltAdvScheme =   /* Salt. Horiz.advection scheme selector */
(PID.TID 0000.0001)                       2
(PID.TID 0000.0001)     ;
(PID.TID 0000.0001) saltVertAdvScheme =   /* Salt. Vert. Advection scheme selector */
(PID.TID 0000.0001)                       2
(PID.TID 0000.0001)     ;
(PID.TID 0000.0001) saltMultiDimAdvec =   /* use Muti-Dim Advec method for Salt */
(PID.TID 0000.0001)                   F
(PID.TID 0000.0001)     ;
(PID.TID 0000.0001) saltSOM_Advection = /* use 2nd Order Moment Advection for Salt */
(PID.TID 0000.0001)                   F
(PID.TID 0000.0001)     ;
(PID.TID 0000.0001) AdamsBashforthGs = /* apply Adams-Bashforth extrapolation on Gs */
(PID.TID 0000.0001)                   T
(PID.TID 0000.0001)     ;
(PID.TID 0000.0001) AdamsBashforth_S = /* apply Adams-Bashforth extrapolation on Salt */
(PID.TID 0000.0001)                   F
(PID.TID 0000.0001)     ;
(PID.TID 0000.0001) // ===================================
(PID.TID 0000.0001) %MON fCori_max                    =   5.0000000000295E-01
(PID.TID 0000.0001) %MON fCori_min                    =   5.0000000000075E-01
(PID.TID 0000.0001) %MON fCori_mean                   =   5.0000000000185E-01
(PID.TID 0000.0001) %MON fCori_sd                     =   6.6333047540611E-13
(PID.TID 0000.0001) %MON fCoriG_max                   =   5.0000000000290E-01
(PID.TID 0000.0001) %MON fCoriG_min                   =   5.0000000000070E-01
(PID.TID 0000.0001) %MON fCoriG_mean                  =   5.0000000000180E-01
(PID.TID 0000.0001) %MON fCoriG_sd                    =   6.6333153538242E-13
(PID.TID 0000.0001) %MON fCoriCos_max                 =   0.0000000000000E+00
(PID.TID 0000.0001) %MON fCoriCos_min                 =   0.0000000000000E+00
(PID.TID 0000.0001) %MON fCoriCos_mean                =   0.0000000000000E+00
(PID.TID 0000.0001) %MON fCoriCos_sd                  =   0.0000000000000E+00
(PID.TID 0000.0001) INI_CG2D: CG2D normalisation factor =  3.0693721328176142E+00
(PID.TID 0000.0001) 
(PID.TID 0000.0001) INI_CG3D: CG3D normalisation factor =  3.2370496900046497E+01
(PID.TID 0000.0001) 
(PID.TID 0000.0001) // =======================================================
(PID.TID 0000.0001) // Model configuration
(PID.TID 0000.0001) // =======================================================
(PID.TID 0000.0001) //
(PID.TID 0000.0001) // "Physical" paramters ( PARM01 in namelist )
(PID.TID 0000.0001) //
(PID.TID 0000.0001) buoyancyRelation = /* Type of relation to get Buoyancy */
(PID.TID 0000.0001)               'OCEANIC'
(PID.TID 0000.0001)     ;
(PID.TID 0000.0001) fluidIsAir   =  /* fluid major constituent is Air */
(PID.TID 0000.0001)                   F
(PID.TID 0000.0001)     ;
(PID.TID 0000.0001) fluidIsWater =  /* fluid major constituent is Water */
(PID.TID 0000.0001)                   T
(PID.TID 0000.0001)     ;
(PID.TID 0000.0001) usingPCoords =  /* use p (or p*) vertical coordinate */
(PID.TID 0000.0001)                   F
(PID.TID 0000.0001)     ;
(PID.TID 0000.0001) usingZCoords =  /* use z (or z*) vertical coordinate */
(PID.TID 0000.0001)                   T
(PID.TID 0000.0001)     ;
(PID.TID 0000.0001) tRef =   /* Reference temperature profile ( oC or K ) */
(PID.TID 0000.0001)    29 @  2.000000000000000E+01              /* K =  1: 29 */
(PID.TID 0000.0001)     ;
(PID.TID 0000.0001) sRef =   /* Reference salinity profile ( psu ) */
(PID.TID 0000.0001)    29 @  3.500000000000000E+01              /* K =  1: 29 */
(PID.TID 0000.0001)     ;
(PID.TID 0000.0001) useStrainTensionVisc= /* Use StrainTension Form of Viscous Operator */
(PID.TID 0000.0001)                   F
(PID.TID 0000.0001)     ;
(PID.TID 0000.0001) useVariableVisc = /* Use variable horizontal viscosity */
(PID.TID 0000.0001)                   F
(PID.TID 0000.0001)     ;
(PID.TID 0000.0001) useHarmonicVisc = /* Use harmonic horizontal viscosity */
(PID.TID 0000.0001)                   T
(PID.TID 0000.0001)     ;
(PID.TID 0000.0001) useBiharmonicVisc= /* Use biharmonic horiz.  viscosity */
(PID.TID 0000.0001)                   F
(PID.TID 0000.0001)     ;
(PID.TID 0000.0001) useSmag3D = /* Use isotropic 3-D Smagorinsky viscosity */
(PID.TID 0000.0001)                   F
(PID.TID 0000.0001)     ;
(PID.TID 0000.0001) viscAh  =   /* Lateral harmonic viscosity ( m^2/s ) */
(PID.TID 0000.0001)                 5.000000000000000E-06
(PID.TID 0000.0001)     ;
(PID.TID 0000.0001) viscAhW =   /* Lateral harmonic viscosity in W eq. ( m^2/s ) */
(PID.TID 0000.0001)                 5.000000000000000E-06
(PID.TID 0000.0001)     ;
(PID.TID 0000.0001) viscA4  =   /* Lateral biharmonic viscosity ( m^4/s ) */
(PID.TID 0000.0001)                 0.000000000000000E+00
(PID.TID 0000.0001)     ;
(PID.TID 0000.0001) viscA4W =   /* Lateral biharmonic viscosity in W eq. ( m^2/s ) */
(PID.TID 0000.0001)                 0.000000000000000E+00
(PID.TID 0000.0001)     ;
(PID.TID 0000.0001) no_slip_sides =  /* Viscous BCs: No-slip sides */
(PID.TID 0000.0001)                   F
(PID.TID 0000.0001)     ;
(PID.TID 0000.0001) sideDragFactor = /* side-drag scaling factor (non-dim) */
(PID.TID 0000.0001)                 2.000000000000000E+00
(PID.TID 0000.0001)     ;
(PID.TID 0000.0001) viscArNr = /* vertical profile of vertical viscosity ( m^2/s )*/
(PID.TID 0000.0001)    29 @  5.000000000000000E-06              /* K =  1: 29 */
(PID.TID 0000.0001)     ;
(PID.TID 0000.0001) no_slip_bottom =  /* Viscous BCs: No-slip bottom */
(PID.TID 0000.0001)                   F
(PID.TID 0000.0001)     ;
(PID.TID 0000.0001) bottomDragLinear = /* linear bottom-drag coefficient ( m/s ) */
(PID.TID 0000.0001)                 0.000000000000000E+00
(PID.TID 0000.0001)     ;
(PID.TID 0000.0001) bottomDragQuadratic = /* quadratic bottom-drag coefficient (-) */
(PID.TID 0000.0001)                 0.000000000000000E+00
(PID.TID 0000.0001)     ;
(PID.TID 0000.0001) diffKhT =   /* Laplacian diffusion of heat laterally ( m^2/s ) */
(PID.TID 0000.0001)                 2.500000000000000E-06
(PID.TID 0000.0001)     ;
(PID.TID 0000.0001) diffK4T =   /* Biharmonic diffusion of heat laterally ( m^4/s ) */
(PID.TID 0000.0001)                 0.000000000000000E+00
(PID.TID 0000.0001)     ;
(PID.TID 0000.0001) diffKhS =   /* Laplacian diffusion of salt laterally ( m^2/s ) */
(PID.TID 0000.0001)                 1.000000000000000E-06
(PID.TID 0000.0001)     ;
(PID.TID 0000.0001) diffK4S =   /* Biharmonic diffusion of salt laterally ( m^4/s ) */
(PID.TID 0000.0001)                 0.000000000000000E+00
(PID.TID 0000.0001)     ;
(PID.TID 0000.0001) diffKrNrT = /* vertical profile of vertical diffusion of Temp ( m^2/s )*/
(PID.TID 0000.0001)    29 @  2.500000000000000E-06              /* K =  1: 29 */
(PID.TID 0000.0001)     ;
(PID.TID 0000.0001) diffKrNrS = /* vertical profile of vertical diffusion of Salt ( m^2/s )*/
(PID.TID 0000.0001)    29 @  1.000000000000000E-06              /* K =  1: 29 */
(PID.TID 0000.0001)     ;
(PID.TID 0000.0001) diffKrBL79surf = /* Surface diffusion for Bryan and Lewis 79 ( m^2/s ) */
(PID.TID 0000.0001)                 0.000000000000000E+00
(PID.TID 0000.0001)     ;
(PID.TID 0000.0001) diffKrBL79deep = /* Deep diffusion for Bryan and Lewis 1979 ( m^2/s ) */
(PID.TID 0000.0001)                 0.000000000000000E+00
(PID.TID 0000.0001)     ;
(PID.TID 0000.0001) diffKrBL79scl = /* Depth scale for Bryan and Lewis 1979 ( m ) */
(PID.TID 0000.0001)                 2.000000000000000E+02
(PID.TID 0000.0001)     ;
(PID.TID 0000.0001) diffKrBL79Ho = /* Turning depth for Bryan and Lewis 1979 ( m ) */
(PID.TID 0000.0001)                -2.000000000000000E+03
(PID.TID 0000.0001)     ;
(PID.TID 0000.0001) ivdc_kappa = /* Implicit Vertical Diffusivity for Convection ( m^2/s) */
(PID.TID 0000.0001)                 0.000000000000000E+00
(PID.TID 0000.0001)     ;
(PID.TID 0000.0001) hMixCriteria=  /* Criteria for mixed-layer diagnostic */
(PID.TID 0000.0001)                -8.000000000000000E-01
(PID.TID 0000.0001)     ;
(PID.TID 0000.0001) dRhoSmall =  /* Parameter for mixed-layer diagnostic */
(PID.TID 0000.0001)                 1.000000000000000E-06
(PID.TID 0000.0001)     ;
(PID.TID 0000.0001) hMixSmooth=  /* Smoothing parameter for mixed-layer diagnostic */
(PID.TID 0000.0001)                 0.000000000000000E+00
(PID.TID 0000.0001)     ;
(PID.TID 0000.0001) eosType =  /* Type of Equation of State */
(PID.TID 0000.0001)               'LINEAR'
(PID.TID 0000.0001)     ;
(PID.TID 0000.0001) tAlpha = /* Linear EOS thermal expansion coefficient ( 1/oC ) */
(PID.TID 0000.0001)                 2.000000000000000E-04
(PID.TID 0000.0001)     ;
(PID.TID 0000.0001) sBeta  = /* Linear EOS haline contraction coefficient ( 1/psu ) */
(PID.TID 0000.0001)                 0.000000000000000E+00
(PID.TID 0000.0001)     ;
(PID.TID 0000.0001) rhoNil    = /* Reference density for Linear EOS ( kg/m^3 ) */
(PID.TID 0000.0001)                 1.000000000000000E+03
(PID.TID 0000.0001)     ;
(PID.TID 0000.0001) celsius2K = /* 0 degree Celsius converted to Kelvin ( K ) */
(PID.TID 0000.0001)                 2.731500000000000E+02
(PID.TID 0000.0001)     ;
(PID.TID 0000.0001) rhoConst  = /* Reference density (Boussinesq)  ( kg/m^3 ) */
(PID.TID 0000.0001)                 1.000000000000000E+03
(PID.TID 0000.0001)     ;
(PID.TID 0000.0001) rhoFacC = /* normalized Reference density @ cell-Center (-) */
(PID.TID 0000.0001)    29 @  1.000000000000000E+00              /* K =  1: 29 */
(PID.TID 0000.0001)     ;
(PID.TID 0000.0001) rhoFacF = /* normalized Reference density @ W-Interface (-) */
(PID.TID 0000.0001)    30 @  1.000000000000000E+00              /* K =  1: 30 */
(PID.TID 0000.0001)     ;
(PID.TID 0000.0001) rhoConstFresh = /* Fresh-water reference density ( kg/m^3 ) */
(PID.TID 0000.0001)                 1.000000000000000E+03
(PID.TID 0000.0001)     ;
(PID.TID 0000.0001) gravity =   /* Gravitational acceleration ( m/s^2 ) */
(PID.TID 0000.0001)                 9.810000000000000E+00
(PID.TID 0000.0001)     ;
(PID.TID 0000.0001) gBaro =   /* Barotropic gravity ( m/s^2 ) */
(PID.TID 0000.0001)                 9.810000000000000E+00
(PID.TID 0000.0001)     ;
(PID.TID 0000.0001) rotationPeriod =   /* Rotation Period ( s ) */
(PID.TID 0000.0001)                 8.616400000000000E+04
(PID.TID 0000.0001)     ;
(PID.TID 0000.0001) omega =   /* Angular velocity ( rad/s ) */
(PID.TID 0000.0001)                 7.292123516990375E-05
(PID.TID 0000.0001)     ;
(PID.TID 0000.0001) f0 =   /* Reference coriolis parameter ( 1/s ) */
(PID.TID 0000.0001)                 5.000000000000000E-01
(PID.TID 0000.0001)     ;
(PID.TID 0000.0001) beta =   /* Beta ( 1/(m.s) ) */
(PID.TID 0000.0001)                 9.999999999999999E-12
(PID.TID 0000.0001)     ;
(PID.TID 0000.0001) fPrime =   /* Second coriolis parameter ( 1/s ) */
(PID.TID 0000.0001)                 0.000000000000000E+00
(PID.TID 0000.0001)     ;
(PID.TID 0000.0001) rigidLid =   /* Rigid lid on/off flag */
(PID.TID 0000.0001)                   T
(PID.TID 0000.0001)     ;
(PID.TID 0000.0001) implicitFreeSurface =   /* Implicit free surface on/off flag */
(PID.TID 0000.0001)                   F
(PID.TID 0000.0001)     ;
(PID.TID 0000.0001) freeSurfFac =   /* Implicit free surface factor */
(PID.TID 0000.0001)                 0.000000000000000E+00
(PID.TID 0000.0001)     ;
(PID.TID 0000.0001) implicSurfPress =  /* Surface Pressure implicit factor (0-1)*/
(PID.TID 0000.0001)                 1.000000000000000E+00
(PID.TID 0000.0001)     ;
(PID.TID 0000.0001) implicDiv2Dflow =  /* Barot. Flow Div. implicit factor (0-1)*/
(PID.TID 0000.0001)                 1.000000000000000E+00
(PID.TID 0000.0001)     ;
(PID.TID 0000.0001) uniformLin_PhiSurf = /* use uniform Bo_surf on/off flag*/
(PID.TID 0000.0001)                   T
(PID.TID 0000.0001)     ;
(PID.TID 0000.0001) uniformFreeSurfLev = /* free-surface level-index is uniform */
(PID.TID 0000.0001)                   T
(PID.TID 0000.0001)     ;
(PID.TID 0000.0001) hFacMin =   /* minimum partial cell factor (hFac) */
(PID.TID 0000.0001)                 1.000000000000000E+00
(PID.TID 0000.0001)     ;
(PID.TID 0000.0001) hFacMinDr = /* minimum partial cell thickness ( m) */
(PID.TID 0000.0001)                 1.000000000000000E+00
(PID.TID 0000.0001)     ;
(PID.TID 0000.0001) exactConserv =  /* Exact Volume Conservation on/off flag*/
(PID.TID 0000.0001)                   F
(PID.TID 0000.0001)     ;
(PID.TID 0000.0001) linFSConserveTr = /* Tracer correction for Lin Free Surface on/off flag*/
(PID.TID 0000.0001)                   F
(PID.TID 0000.0001)     ;
(PID.TID 0000.0001) nonlinFreeSurf = /* Non-linear Free Surf. options (-1,0,1,2,3)*/
(PID.TID 0000.0001)                       0
(PID.TID 0000.0001)      -1,0= Off ; 1,2,3= On, 2=+rescale gU,gV, 3=+update cg2d solv.
(PID.TID 0000.0001)     ;
(PID.TID 0000.0001) hFacInf =   /* lower threshold for hFac (nonlinFreeSurf only)*/
(PID.TID 0000.0001)                 2.000000000000000E-01
(PID.TID 0000.0001)     ;
(PID.TID 0000.0001) hFacSup =   /* upper threshold for hFac (nonlinFreeSurf only)*/
(PID.TID 0000.0001)                 2.000000000000000E+00
(PID.TID 0000.0001)     ;
(PID.TID 0000.0001) select_rStar = /* r* Vertical coord. options (=0 r coord.; >0 uses r*)*/
(PID.TID 0000.0001)                       0
(PID.TID 0000.0001)     ;
(PID.TID 0000.0001) useRealFreshWaterFlux = /* Real Fresh Water Flux on/off flag*/
(PID.TID 0000.0001)                   F
(PID.TID 0000.0001)     ;
(PID.TID 0000.0001) temp_EvPrRn = /* Temp. of Evap/Prec/R (UNSET=use local T)(oC)*/
(PID.TID 0000.0001)                 1.234567000000000E+05
(PID.TID 0000.0001)     ;
(PID.TID 0000.0001) salt_EvPrRn = /* Salin. of Evap/Prec/R (UNSET=use local S)(psu)*/
(PID.TID 0000.0001)                 0.000000000000000E+00
(PID.TID 0000.0001)     ;
(PID.TID 0000.0001) selectAddFluid = /* option for mass source/sink of fluid (=0: off) */
(PID.TID 0000.0001)                       0
(PID.TID 0000.0001)     ;
(PID.TID 0000.0001) temp_addMass = /* Temp. of addMass array (UNSET=use local T)(oC)*/
(PID.TID 0000.0001)                 1.234567000000000E+05
(PID.TID 0000.0001)     ;
(PID.TID 0000.0001) salt_addMass = /* Salin. of addMass array (UNSET=use local S)(psu)*/
(PID.TID 0000.0001)                 0.000000000000000E+00
(PID.TID 0000.0001)     ;
(PID.TID 0000.0001) convertFW2Salt = /* convert F.W. Flux to Salt Flux (-1=use local S)(psu)*/
(PID.TID 0000.0001)                 3.500000000000000E+01
(PID.TID 0000.0001)     ;
(PID.TID 0000.0001) use3Dsolver = /* use 3-D pressure solver on/off flag */
(PID.TID 0000.0001)                   T
(PID.TID 0000.0001)     ;
(PID.TID 0000.0001) nonHydrostatic =  /* Non-Hydrostatic on/off flag */
(PID.TID 0000.0001)                   T
(PID.TID 0000.0001)     ;
(PID.TID 0000.0001) nh_Am2 = /* Non-Hydrostatic terms scaling factor */
(PID.TID 0000.0001)                 1.000000000000000E+00
(PID.TID 0000.0001)     ;
(PID.TID 0000.0001) implicitNHPress = /* Non-Hyd Pressure implicit factor (0-1)*/
(PID.TID 0000.0001)                 1.000000000000000E+00
(PID.TID 0000.0001)     ;
(PID.TID 0000.0001) selectNHfreeSurf = /* Non-Hyd (free-)Surface option */
(PID.TID 0000.0001)                       0
(PID.TID 0000.0001)     ;
(PID.TID 0000.0001) quasiHydrostatic = /* Quasi-Hydrostatic on/off flag */
(PID.TID 0000.0001)                   F
(PID.TID 0000.0001)     ;
(PID.TID 0000.0001) calc_wVelocity = /* vertical velocity calculation on/off flag */
(PID.TID 0000.0001)                   T
(PID.TID 0000.0001)     ;
(PID.TID 0000.0001) momStepping =  /* Momentum equation on/off flag */
(PID.TID 0000.0001)                   T
(PID.TID 0000.0001)     ;
(PID.TID 0000.0001) vectorInvariantMomentum= /* Vector-Invariant Momentum on/off */
(PID.TID 0000.0001)                   F
(PID.TID 0000.0001)     ;
(PID.TID 0000.0001) momAdvection =  /* Momentum advection on/off flag */
(PID.TID 0000.0001)                   T
(PID.TID 0000.0001)     ;
(PID.TID 0000.0001) momViscosity =  /* Momentum viscosity on/off flag */
(PID.TID 0000.0001)                   T
(PID.TID 0000.0001)     ;
(PID.TID 0000.0001) momImplVertAdv= /* Momentum implicit vert. advection on/off*/
(PID.TID 0000.0001)                   F
(PID.TID 0000.0001)     ;
(PID.TID 0000.0001) implicitViscosity = /* Implicit viscosity on/off flag */
(PID.TID 0000.0001)                   F
(PID.TID 0000.0001)     ;
(PID.TID 0000.0001) metricTerms =  /* metric-Terms on/off flag */
(PID.TID 0000.0001)                   T
(PID.TID 0000.0001)     ;
(PID.TID 0000.0001) useNHMTerms = /* Non-Hydrostatic Metric-Terms on/off */
(PID.TID 0000.0001)                   F
(PID.TID 0000.0001)     ;
(PID.TID 0000.0001) selectCoriMap = /* Coriolis Map options (0,1,2,3)*/
(PID.TID 0000.0001)                       1
(PID.TID 0000.0001)     0= f-Plane ; 1= Beta-Plane ; 2= Spherical ; 3= read from file
(PID.TID 0000.0001)     ;
(PID.TID 0000.0001) use3dCoriolis = /* 3-D Coriolis on/off flag */
(PID.TID 0000.0001)                   F
(PID.TID 0000.0001)     ;
(PID.TID 0000.0001) useCoriolis =  /* Coriolis on/off flag */
(PID.TID 0000.0001)                   T
(PID.TID 0000.0001)     ;
(PID.TID 0000.0001) useCDscheme =  /* CD scheme on/off flag */
(PID.TID 0000.0001)                   F
(PID.TID 0000.0001)     ;
(PID.TID 0000.0001) useEnergyConservingCoriolis= /* Flx-Form Coriolis scheme flag */
(PID.TID 0000.0001)                   F
(PID.TID 0000.0001)     ;
(PID.TID 0000.0001) useJamartWetPoints= /* Coriolis WetPoints method flag */
(PID.TID 0000.0001)                   F
(PID.TID 0000.0001)     ;
(PID.TID 0000.0001) useJamartMomAdv= /* V.I Non-linear terms Jamart flag */
(PID.TID 0000.0001)                   F
(PID.TID 0000.0001)     ;
(PID.TID 0000.0001) useAbsVorticity= /* V.I Works with f+zeta in Coriolis */
(PID.TID 0000.0001)                   F
(PID.TID 0000.0001)     ;
(PID.TID 0000.0001) selectVortScheme= /* V.I Scheme selector for Vorticity-Term */
(PID.TID 0000.0001)               123456789
(PID.TID 0000.0001)    = 0 : enstrophy (Shallow-Water Eq.) conserving scheme by Sadourny, JAS 75
(PID.TID 0000.0001)    = 1 : same as 0 with modified hFac
(PID.TID 0000.0001)    = 2 : energy conserving scheme (used by Sadourny in JAS 75 paper)
(PID.TID 0000.0001)    = 3 : energy (general) and enstrophy (2D, nonDiv.) conserving scheme
(PID.TID 0000.0001)          from Sadourny (Burridge & Haseler, ECMWF Rep.4, 1977)
(PID.TID 0000.0001)     ;
(PID.TID 0000.0001) upwindVorticity= /* V.I Upwind bias vorticity flag */
(PID.TID 0000.0001)                   F
(PID.TID 0000.0001)     ;
(PID.TID 0000.0001) highOrderVorticity= /* V.I High order vort. advect. flag */
(PID.TID 0000.0001)                   F
(PID.TID 0000.0001)     ;
(PID.TID 0000.0001) upwindShear= /* V.I Upwind vertical Shear advection flag */
(PID.TID 0000.0001)                   F
(PID.TID 0000.0001)     ;
(PID.TID 0000.0001) selectKEscheme= /* V.I Kinetic Energy scheme selector */
(PID.TID 0000.0001)                       0
(PID.TID 0000.0001)     ;
(PID.TID 0000.0001) momForcing =  /* Momentum forcing on/off flag */
(PID.TID 0000.0001)                   T
(PID.TID 0000.0001)     ;
(PID.TID 0000.0001) momPressureForcing =  /* Momentum pressure term on/off flag */
(PID.TID 0000.0001)                   T
(PID.TID 0000.0001)     ;
(PID.TID 0000.0001) implicitIntGravWave= /* Implicit Internal Gravity Wave flag */
(PID.TID 0000.0001)                   F
(PID.TID 0000.0001)     ;
(PID.TID 0000.0001) staggerTimeStep =    /* Stagger time stepping on/off flag */
(PID.TID 0000.0001)                   F
(PID.TID 0000.0001)     ;
(PID.TID 0000.0001) doResetHFactors = /* reset thickness factors @ each time-step */
(PID.TID 0000.0001)                   F
(PID.TID 0000.0001)     ;
(PID.TID 0000.0001) multiDimAdvection =  /* enable/disable Multi-Dim Advection */
(PID.TID 0000.0001)                   T
(PID.TID 0000.0001)     ;
(PID.TID 0000.0001) useMultiDimAdvec =   /* Multi-Dim Advection is/is-not used */
(PID.TID 0000.0001)                   F
(PID.TID 0000.0001)     ;
(PID.TID 0000.0001) implicitDiffusion = /* Implicit Diffusion on/off flag */
(PID.TID 0000.0001)                   F
(PID.TID 0000.0001)     ;
(PID.TID 0000.0001) tempStepping =  /* Temperature equation on/off flag */
(PID.TID 0000.0001)                   T
(PID.TID 0000.0001)     ;
(PID.TID 0000.0001) tempAdvection = /* Temperature advection on/off flag */
(PID.TID 0000.0001)                   T
(PID.TID 0000.0001)     ;
(PID.TID 0000.0001) tempImplVertAdv = /* Temp. implicit vert. advection on/off */
(PID.TID 0000.0001)                   F
(PID.TID 0000.0001)     ;
(PID.TID 0000.0001) tempForcing  =  /* Temperature forcing on/off flag */
(PID.TID 0000.0001)                   T
(PID.TID 0000.0001)     ;
(PID.TID 0000.0001) doThetaClimRelax = /* apply SST relaxation on/off flag */
(PID.TID 0000.0001)                   F
(PID.TID 0000.0001)     ;
(PID.TID 0000.0001) tempIsActiveTr = /* Temp. is a dynamically Active Tracer */
(PID.TID 0000.0001)                   T
(PID.TID 0000.0001)     ;
(PID.TID 0000.0001) saltStepping =  /* Salinity equation on/off flag */
(PID.TID 0000.0001)                   T
(PID.TID 0000.0001)     ;
(PID.TID 0000.0001) saltAdvection = /* Salinity advection on/off flag */
(PID.TID 0000.0001)                   T
(PID.TID 0000.0001)     ;
(PID.TID 0000.0001) saltImplVertAdv = /* Sali. implicit vert. advection on/off */
(PID.TID 0000.0001)                   F
(PID.TID 0000.0001)     ;
(PID.TID 0000.0001) saltForcing  =  /* Salinity forcing on/off flag */
(PID.TID 0000.0001)                   T
(PID.TID 0000.0001)     ;
(PID.TID 0000.0001) doSaltClimRelax = /* apply SSS relaxation on/off flag */
(PID.TID 0000.0001)                   F
(PID.TID 0000.0001)     ;
(PID.TID 0000.0001) saltIsActiveTr = /* Salt  is a dynamically Active Tracer */
(PID.TID 0000.0001)                   F
(PID.TID 0000.0001)     ;
(PID.TID 0000.0001)  readBinaryPrec = /* Precision used for reading binary files */
(PID.TID 0000.0001)                      32
(PID.TID 0000.0001)     ;
(PID.TID 0000.0001) writeBinaryPrec = /* Precision used for writing binary files */
(PID.TID 0000.0001)                      32
(PID.TID 0000.0001)     ;
(PID.TID 0000.0001)  globalFiles = /* write "global" (=not per tile) files */
(PID.TID 0000.0001)                   F
(PID.TID 0000.0001)     ;
(PID.TID 0000.0001)  useSingleCpuIO = /* only master MPI process does I/O */
(PID.TID 0000.0001)                   F
(PID.TID 0000.0001)     ;
(PID.TID 0000.0001) /* debLev[*]  : level of debug & auxiliary message printing */
(PID.TID 0000.0001) debLevZero =  0 ; /* level of disabled aux. msg printing */
(PID.TID 0000.0001)    debLevA =  1 ; /* level of minimum  aux. msg printing */
(PID.TID 0000.0001)    debLevB =  2 ; /* level of low aux. print (report read-file opening)*/
(PID.TID 0000.0001)    debLevC =  3 ; /* level of moderate debug prt (most pkgs debug msg) */
(PID.TID 0000.0001)    debLevD =  4 ; /* level of enhanced debug prt (add DEBUG_STATS prt) */
(PID.TID 0000.0001)    debLevE =  5 ; /* level of extensive debug printing */
(PID.TID 0000.0001) debugLevel =  /* select debug printing level */
(PID.TID 0000.0001)                       2
(PID.TID 0000.0001)     ;
(PID.TID 0000.0001) //
(PID.TID 0000.0001) // Elliptic solver(s) paramters ( PARM02 in namelist )
(PID.TID 0000.0001) //
(PID.TID 0000.0001) cg2dMaxIters =   /* Upper limit on 2d con. grad iterations  */
(PID.TID 0000.0001)                    1000
(PID.TID 0000.0001)     ;
(PID.TID 0000.0001) cg2dChkResFreq =   /* 2d con. grad convergence test frequency */
(PID.TID 0000.0001)                       1
(PID.TID 0000.0001)     ;
(PID.TID 0000.0001) cg2dUseMinResSol= /* use cg2d last-iter(=0) / min-resid.(=1) solution */
(PID.TID 0000.0001)                       0
(PID.TID 0000.0001)     ;
(PID.TID 0000.0001) cg2dTargetResidual =   /* 2d con. grad target residual  */
(PID.TID 0000.0001)                 1.000000000000000E-07
(PID.TID 0000.0001)     ;
(PID.TID 0000.0001) cg2dTargetResWunit =   /* CG2d target residual [W units] */
(PID.TID 0000.0001)                -1.000000000000000E+00
(PID.TID 0000.0001)     ;
(PID.TID 0000.0001) cg2dPreCondFreq =   /* Freq. for updating cg2d preconditioner */
(PID.TID 0000.0001)                       1
(PID.TID 0000.0001)     ;
(PID.TID 0000.0001) useSRCGSolver =  /* use single reduction CG solver(s) */
(PID.TID 0000.0001)                   F
(PID.TID 0000.0001)     ;
(PID.TID 0000.0001) printResidualFreq = /* Freq. for printing CG residual */
(PID.TID 0000.0001)                       0
(PID.TID 0000.0001)     ;
(PID.TID 0000.0001) //
(PID.TID 0000.0001) // Time stepping paramters ( PARM03 in namelist )
(PID.TID 0000.0001) //
(PID.TID 0000.0001) deltaTMom =   /* Momentum equation timestep ( s ) */
(PID.TID 0000.0001)                 1.000000000000000E-01
(PID.TID 0000.0001)     ;
(PID.TID 0000.0001) deltaTFreeSurf = /* FreeSurface equation timestep ( s ) */
(PID.TID 0000.0001)                 1.000000000000000E-01
(PID.TID 0000.0001)     ;
(PID.TID 0000.0001) dTtracerLev =  /* Tracer equation timestep ( s ) */
(PID.TID 0000.0001)    29 @  1.000000000000000E-01              /* K =  1: 29 */
(PID.TID 0000.0001)     ;
(PID.TID 0000.0001) deltaTClock  =   /* Model clock timestep ( s ) */
(PID.TID 0000.0001)                 1.000000000000000E-01
(PID.TID 0000.0001)     ;
(PID.TID 0000.0001) cAdjFreq =   /* Convective adjustment interval ( s ) */
(PID.TID 0000.0001)                 0.000000000000000E+00
(PID.TID 0000.0001)     ;
(PID.TID 0000.0001) momForcingOutAB = /* =1: take Momentum Forcing out of Adams-Bash. stepping */
(PID.TID 0000.0001)                       0
(PID.TID 0000.0001)     ;
(PID.TID 0000.0001) tracForcingOutAB = /* =1: take T,S,pTr Forcing out of Adams-Bash. stepping */
(PID.TID 0000.0001)                       0
(PID.TID 0000.0001)     ;
(PID.TID 0000.0001) momDissip_In_AB = /* put Dissipation Tendency in Adams-Bash. stepping */
(PID.TID 0000.0001)                   T
(PID.TID 0000.0001)     ;
(PID.TID 0000.0001) doAB_onGtGs = /* apply AB on Tendencies (rather than on T,S)*/
(PID.TID 0000.0001)                   T
(PID.TID 0000.0001)     ;
(PID.TID 0000.0001) abEps =   /* Adams-Bashforth-2 stabilizing weight */
(PID.TID 0000.0001)                 1.000000000000000E-01
(PID.TID 0000.0001)     ;
(PID.TID 0000.0001) pickupStrictlyMatch= /* stop if pickup do not strictly match */
(PID.TID 0000.0001)                   T
(PID.TID 0000.0001)     ;
(PID.TID 0000.0001) nIter0   =   /* Run starting timestep number */
(PID.TID 0000.0001)                       0
(PID.TID 0000.0001)     ;
(PID.TID 0000.0001) nTimeSteps = /* Number of timesteps */
(PID.TID 0000.0001)                      20
(PID.TID 0000.0001)     ;
(PID.TID 0000.0001) nEndIter =   /* Run ending timestep number */
(PID.TID 0000.0001)                      20
(PID.TID 0000.0001)     ;
(PID.TID 0000.0001) baseTime =   /* Model base time ( s ) */
(PID.TID 0000.0001)                 0.000000000000000E+00
(PID.TID 0000.0001)     ;
(PID.TID 0000.0001) startTime =  /* Run start time ( s ) */
(PID.TID 0000.0001)                 0.000000000000000E+00
(PID.TID 0000.0001)     ;
(PID.TID 0000.0001) endTime  =   /* Integration ending time ( s ) */
(PID.TID 0000.0001)                 2.000000000000000E+00
(PID.TID 0000.0001)     ;
(PID.TID 0000.0001) pChkPtFreq = /* Permanent restart/pickup file interval ( s ) */
(PID.TID 0000.0001)                 2.000000000000000E+00
(PID.TID 0000.0001)     ;
(PID.TID 0000.0001) chkPtFreq  = /* Rolling restart/pickup file interval ( s ) */
(PID.TID 0000.0001)                 0.000000000000000E+00
(PID.TID 0000.0001)     ;
(PID.TID 0000.0001) pickup_write_mdsio =   /* Model IO flag. */
(PID.TID 0000.0001)                   T
(PID.TID 0000.0001)     ;
(PID.TID 0000.0001) pickup_read_mdsio =   /* Model IO flag. */
(PID.TID 0000.0001)                   T
(PID.TID 0000.0001)     ;
(PID.TID 0000.0001) pickup_write_mnc =   /* Model IO flag. */
(PID.TID 0000.0001)                   F
(PID.TID 0000.0001)     ;
(PID.TID 0000.0001) pickup_read_mnc =   /* Model IO flag. */
(PID.TID 0000.0001)                   F
(PID.TID 0000.0001)     ;
(PID.TID 0000.0001) pickup_write_immed =   /* Model IO flag. */
(PID.TID 0000.0001)                   F
(PID.TID 0000.0001)     ;
(PID.TID 0000.0001) writePickupAtEnd =   /* Model IO flag. */
(PID.TID 0000.0001)                   T
(PID.TID 0000.0001)     ;
(PID.TID 0000.0001) dumpFreq =   /* Model state write out interval ( s ). */
(PID.TID 0000.0001)                 2.000000000000000E+00
(PID.TID 0000.0001)     ;
(PID.TID 0000.0001) dumpInitAndLast= /* write out Initial & Last iter. model state */
(PID.TID 0000.0001)                   T
(PID.TID 0000.0001)     ;
(PID.TID 0000.0001) snapshot_mdsio =   /* Model IO flag. */
(PID.TID 0000.0001)                   F
(PID.TID 0000.0001)     ;
(PID.TID 0000.0001) snapshot_mnc =   /* Model IO flag. */
(PID.TID 0000.0001)                   T
(PID.TID 0000.0001)     ;
(PID.TID 0000.0001) monitorFreq =   /* Monitor output interval ( s ). */
(PID.TID 0000.0001)                 1.000000000000000E-01
(PID.TID 0000.0001)     ;
(PID.TID 0000.0001) monitorSelect = /* select group of variables to monitor */
(PID.TID 0000.0001)                       2
(PID.TID 0000.0001)     ;
(PID.TID 0000.0001) monitor_stdio =   /* Model IO flag. */
(PID.TID 0000.0001)                   T
(PID.TID 0000.0001)     ;
(PID.TID 0000.0001) monitor_mnc =   /* Model IO flag. */
(PID.TID 0000.0001)                   F
(PID.TID 0000.0001)     ;
(PID.TID 0000.0001) externForcingPeriod =   /* forcing period (s) */
(PID.TID 0000.0001)                 0.000000000000000E+00
(PID.TID 0000.0001)     ;
(PID.TID 0000.0001) externForcingCycle =   /* period of the cyle (s). */
(PID.TID 0000.0001)                 0.000000000000000E+00
(PID.TID 0000.0001)     ;
(PID.TID 0000.0001) tauThetaClimRelax =   /* relaxation time scale (s) */
(PID.TID 0000.0001)                 0.000000000000000E+00
(PID.TID 0000.0001)     ;
(PID.TID 0000.0001) tauSaltClimRelax =   /* relaxation time scale (s) */
(PID.TID 0000.0001)                 0.000000000000000E+00
(PID.TID 0000.0001)     ;
(PID.TID 0000.0001) latBandClimRelax =   /* max. Lat. where relaxation */
(PID.TID 0000.0001)                 1.234567000000000E+05
(PID.TID 0000.0001)     ;
(PID.TID 0000.0001) //
(PID.TID 0000.0001) // Gridding paramters ( PARM04 in namelist )
(PID.TID 0000.0001) //
(PID.TID 0000.0001) usingCartesianGrid = /* Cartesian coordinates flag ( True/False ) */
(PID.TID 0000.0001)                   F
(PID.TID 0000.0001)     ;
(PID.TID 0000.0001) usingCylindricalGrid = /* Cylindrical coordinates flag ( True/False ) */
(PID.TID 0000.0001)                   T
(PID.TID 0000.0001)     ;
(PID.TID 0000.0001) usingSphericalPolarGrid = /* Spherical coordinates flag ( True/False ) */
(PID.TID 0000.0001)                   F
(PID.TID 0000.0001)     ;
(PID.TID 0000.0001) usingCurvilinearGrid = /* Curvilinear coordinates flag ( True/False ) */
(PID.TID 0000.0001)                   F
(PID.TID 0000.0001)     ;
(PID.TID 0000.0001) selectSigmaCoord = /* Hybrid-Sigma Vert. Coordinate option */
(PID.TID 0000.0001)                       0
(PID.TID 0000.0001)     ;
(PID.TID 0000.0001) Ro_SeaLevel = /* r(1) ( units of r ==  m ) */
(PID.TID 0000.0001)                 0.000000000000000E+00
(PID.TID 0000.0001)     ;
(PID.TID 0000.0001) rSigmaBnd = /* r/sigma transition ( units of r ==  m ) */
(PID.TID 0000.0001)                 1.234567000000000E+05
(PID.TID 0000.0001)     ;
(PID.TID 0000.0001) rkSign =   /* index orientation relative to vertical coordinate */
(PID.TID 0000.0001)                -1.000000000000000E+00
(PID.TID 0000.0001)     ;
(PID.TID 0000.0001) gravitySign = /* gravity orientation relative to vertical coordinate */
(PID.TID 0000.0001)                -1.000000000000000E+00
(PID.TID 0000.0001)     ;
(PID.TID 0000.0001) mass2rUnit = /* convert mass per unit area [kg/m2] to r-units [m] */
(PID.TID 0000.0001)                 1.000000000000000E-03
(PID.TID 0000.0001)     ;
(PID.TID 0000.0001) rUnit2mass = /* convert r-units [m] to mass per unit area [kg/m2] */
(PID.TID 0000.0001)                 1.000000000000000E+03
(PID.TID 0000.0001)     ;
(PID.TID 0000.0001) drC =   /* C spacing ( units of r ) */
(PID.TID 0000.0001)                 2.500000000000000E-03,      /* K =  1 */
(PID.TID 0000.0001)    28 @  5.000000000000000E-03,             /* K =  2: 29 */
(PID.TID 0000.0001)                 2.500000000000000E-03       /* K = 30 */
(PID.TID 0000.0001)     ;
(PID.TID 0000.0001) drF =   /* W spacing ( units of r ) */
(PID.TID 0000.0001)    29 @  5.000000000000000E-03              /* K =  1: 29 */
(PID.TID 0000.0001)     ;
(PID.TID 0000.0001) delX = /* U spacing ( m - cartesian, degrees - spherical ) */
(PID.TID 0000.0001)   120 @  3.000000000000000E+00              /* I =  1:120 */
(PID.TID 0000.0001)     ;
(PID.TID 0000.0001) delY = /* V spacing ( m - cartesian, degrees - spherical ) */
(PID.TID 0000.0001)    23 @  1.000000000000000E-02              /* J =  1: 23 */
(PID.TID 0000.0001)     ;
(PID.TID 0000.0001) xgOrigin = /* X-axis origin of West  edge (cartesian: m, lat-lon: deg) */
(PID.TID 0000.0001)                 0.000000000000000E+00
(PID.TID 0000.0001)     ;
(PID.TID 0000.0001) ygOrigin = /* Y-axis origin of South edge (cartesian: m, lat-lon: deg) */
(PID.TID 0000.0001)                 7.000000000000001E-02
(PID.TID 0000.0001)     ;
(PID.TID 0000.0001) rSphere =  /* Radius ( ignored - cartesian, m - spherical ) */
(PID.TID 0000.0001)                 6.370000000000000E+06
(PID.TID 0000.0001)     ;
(PID.TID 0000.0001) deepAtmosphere = /* Deep/Shallow Atmosphere flag (True/False) */
(PID.TID 0000.0001)                   F
(PID.TID 0000.0001)     ;
(PID.TID 0000.0001) xC =  /* xC(:,1,:,1) : P-point X coord ( deg. or m if cartesian) */
(PID.TID 0000.0001)                 1.500000000000000E+00,      /* I =  1 */
(PID.TID 0000.0001)                 4.500000000000000E+00,      /* I =  2 */
(PID.TID 0000.0001)                 7.500000000000000E+00,      /* I =  3 */
(PID.TID 0000.0001)      . . .
(PID.TID 0000.0001)                 8.250000000000000E+01,      /* I = 28 */
(PID.TID 0000.0001)                 8.550000000000000E+01,      /* I = 29 */
(PID.TID 0000.0001)                 8.850000000000000E+01,      /* I = 30 */
(PID.TID 0000.0001)                 9.150000000000000E+01,      /* I = 31 */
(PID.TID 0000.0001)                 9.450000000000000E+01,      /* I = 32 */
(PID.TID 0000.0001)                 9.750000000000000E+01,      /* I = 33 */
(PID.TID 0000.0001)      . . .
(PID.TID 0000.0001)                 1.725000000000000E+02,      /* I = 58 */
(PID.TID 0000.0001)                 1.755000000000000E+02,      /* I = 59 */
(PID.TID 0000.0001)                 1.785000000000000E+02,      /* I = 60 */
(PID.TID 0000.0001)                 1.815000000000000E+02,      /* I = 61 */
(PID.TID 0000.0001)                 1.845000000000000E+02,      /* I = 62 */
(PID.TID 0000.0001)                 1.875000000000000E+02,      /* I = 63 */
(PID.TID 0000.0001)      . . .
(PID.TID 0000.0001)                 2.625000000000000E+02,      /* I = 88 */
(PID.TID 0000.0001)                 2.655000000000000E+02,      /* I = 89 */
(PID.TID 0000.0001)                 2.685000000000000E+02,      /* I = 90 */
(PID.TID 0000.0001)                 2.715000000000000E+02,      /* I = 91 */
(PID.TID 0000.0001)                 2.745000000000000E+02,      /* I = 92 */
(PID.TID 0000.0001)                 2.775000000000000E+02,      /* I = 93 */
(PID.TID 0000.0001)      . . .
(PID.TID 0000.0001)                 3.525000000000000E+02,      /* I =118 */
(PID.TID 0000.0001)                 3.555000000000000E+02,      /* I =119 */
(PID.TID 0000.0001)                 3.585000000000000E+02       /* I =120 */
(PID.TID 0000.0001)     ;
(PID.TID 0000.0001) yC =  /* yC(1,:,1,:) : P-point Y coord ( deg. or m if cartesian) */
(PID.TID 0000.0001)                 7.500000000000001E-02,      /* J =  1 */
(PID.TID 0000.0001)                 8.499999999999999E-02,      /* J =  2 */
(PID.TID 0000.0001)                 9.499999999999999E-02,      /* J =  3 */
(PID.TID 0000.0001)                 1.050000000000000E-01,      /* J =  4 */
(PID.TID 0000.0001)                 1.150000000000000E-01,      /* J =  5 */
(PID.TID 0000.0001)                 1.250000000000000E-01,      /* J =  6 */
(PID.TID 0000.0001)                 1.350000000000000E-01,      /* J =  7 */
(PID.TID 0000.0001)                 1.450000000000000E-01,      /* J =  8 */
(PID.TID 0000.0001)                 1.550000000000000E-01,      /* J =  9 */
(PID.TID 0000.0001)                 1.650000000000000E-01,      /* J = 10 */
(PID.TID 0000.0001)                 1.750000000000000E-01,      /* J = 11 */
(PID.TID 0000.0001)                 1.850000000000000E-01,      /* J = 12 */
(PID.TID 0000.0001)                 1.950000000000000E-01,      /* J = 13 */
(PID.TID 0000.0001)                 2.050000000000000E-01,      /* J = 14 */
(PID.TID 0000.0001)                 2.150000000000001E-01,      /* J = 15 */
(PID.TID 0000.0001)                 2.250000000000001E-01,      /* J = 16 */
(PID.TID 0000.0001)                 2.350000000000001E-01,      /* J = 17 */
(PID.TID 0000.0001)                 2.450000000000001E-01,      /* J = 18 */
(PID.TID 0000.0001)                 2.550000000000001E-01,      /* J = 19 */
(PID.TID 0000.0001)                 2.650000000000001E-01,      /* J = 20 */
(PID.TID 0000.0001)                 2.750000000000001E-01,      /* J = 21 */
(PID.TID 0000.0001)                 2.850000000000001E-01,      /* J = 22 */
(PID.TID 0000.0001)                 2.950000000000001E-01       /* J = 23 */
(PID.TID 0000.0001)     ;
(PID.TID 0000.0001) rcoord = /* P-point R coordinate (  units of r ) */
(PID.TID 0000.0001)                -2.500000000000000E-03,      /* K =  1 */
(PID.TID 0000.0001)                -7.500000000000000E-03,      /* K =  2 */
(PID.TID 0000.0001)                -1.250000000000000E-02,      /* K =  3 */
(PID.TID 0000.0001)                -1.750000000000000E-02,      /* K =  4 */
(PID.TID 0000.0001)                -2.250000000000000E-02,      /* K =  5 */
(PID.TID 0000.0001)                -2.750000000000000E-02,      /* K =  6 */
(PID.TID 0000.0001)                -3.250000000000000E-02,      /* K =  7 */
(PID.TID 0000.0001)                -3.750000000000000E-02,      /* K =  8 */
(PID.TID 0000.0001)                -4.250000000000000E-02,      /* K =  9 */
(PID.TID 0000.0001)                -4.749999999999999E-02,      /* K = 10 */
(PID.TID 0000.0001)                -5.249999999999999E-02,      /* K = 11 */
(PID.TID 0000.0001)                -5.749999999999999E-02,      /* K = 12 */
(PID.TID 0000.0001)                -6.249999999999999E-02,      /* K = 13 */
(PID.TID 0000.0001)                -6.749999999999999E-02,      /* K = 14 */
(PID.TID 0000.0001)                -7.250000000000000E-02,      /* K = 15 */
(PID.TID 0000.0001)                -7.750000000000000E-02,      /* K = 16 */
(PID.TID 0000.0001)                -8.250000000000000E-02,      /* K = 17 */
(PID.TID 0000.0001)                -8.750000000000001E-02,      /* K = 18 */
(PID.TID 0000.0001)                -9.250000000000001E-02,      /* K = 19 */
(PID.TID 0000.0001)                -9.750000000000002E-02,      /* K = 20 */
(PID.TID 0000.0001)                -1.025000000000000E-01,      /* K = 21 */
(PID.TID 0000.0001)                -1.075000000000000E-01,      /* K = 22 */
(PID.TID 0000.0001)                -1.125000000000000E-01,      /* K = 23 */
(PID.TID 0000.0001)                -1.175000000000000E-01,      /* K = 24 */
(PID.TID 0000.0001)                -1.225000000000000E-01,      /* K = 25 */
(PID.TID 0000.0001)                -1.275000000000000E-01,      /* K = 26 */
(PID.TID 0000.0001)                -1.325000000000000E-01,      /* K = 27 */
(PID.TID 0000.0001)                -1.375000000000000E-01,      /* K = 28 */
(PID.TID 0000.0001)                -1.425000000000000E-01       /* K = 29 */
(PID.TID 0000.0001)     ;
(PID.TID 0000.0001) rF =   /* W-Interf. R coordinate (  units of r ) */
(PID.TID 0000.0001)                 0.000000000000000E+00,      /* K =  1 */
(PID.TID 0000.0001)                -5.000000000000000E-03,      /* K =  2 */
(PID.TID 0000.0001)                -1.000000000000000E-02,      /* K =  3 */
(PID.TID 0000.0001)                -1.500000000000000E-02,      /* K =  4 */
(PID.TID 0000.0001)                -2.000000000000000E-02,      /* K =  5 */
(PID.TID 0000.0001)                -2.500000000000000E-02,      /* K =  6 */
(PID.TID 0000.0001)                -3.000000000000000E-02,      /* K =  7 */
(PID.TID 0000.0001)                -3.500000000000000E-02,      /* K =  8 */
(PID.TID 0000.0001)                -4.000000000000000E-02,      /* K =  9 */
(PID.TID 0000.0001)                -4.500000000000000E-02,      /* K = 10 */
(PID.TID 0000.0001)                -5.000000000000000E-02,      /* K = 11 */
(PID.TID 0000.0001)                -5.499999999999999E-02,      /* K = 12 */
(PID.TID 0000.0001)                -5.999999999999999E-02,      /* K = 13 */
(PID.TID 0000.0001)                -6.499999999999999E-02,      /* K = 14 */
(PID.TID 0000.0001)                -6.999999999999999E-02,      /* K = 15 */
(PID.TID 0000.0001)                -7.500000000000000E-02,      /* K = 16 */
(PID.TID 0000.0001)                -8.000000000000000E-02,      /* K = 17 */
(PID.TID 0000.0001)                -8.500000000000001E-02,      /* K = 18 */
(PID.TID 0000.0001)                -9.000000000000001E-02,      /* K = 19 */
(PID.TID 0000.0001)                -9.500000000000001E-02,      /* K = 20 */
(PID.TID 0000.0001)                -1.000000000000000E-01,      /* K = 21 */
(PID.TID 0000.0001)                -1.050000000000000E-01,      /* K = 22 */
(PID.TID 0000.0001)                -1.100000000000000E-01,      /* K = 23 */
(PID.TID 0000.0001)                -1.150000000000000E-01,      /* K = 24 */
(PID.TID 0000.0001)                -1.200000000000000E-01,      /* K = 25 */
(PID.TID 0000.0001)                -1.250000000000000E-01,      /* K = 26 */
(PID.TID 0000.0001)                -1.300000000000000E-01,      /* K = 27 */
(PID.TID 0000.0001)                -1.350000000000000E-01,      /* K = 28 */
(PID.TID 0000.0001)                -1.400000000000000E-01,      /* K = 29 */
(PID.TID 0000.0001)                -1.450000000000000E-01       /* K = 30 */
(PID.TID 0000.0001)     ;
(PID.TID 0000.0001) deepFacC = /* deep-model grid factor @ cell-Center (-) */
(PID.TID 0000.0001)    29 @  1.000000000000000E+00              /* K =  1: 29 */
(PID.TID 0000.0001)     ;
(PID.TID 0000.0001) deepFacF = /* deep-model grid factor @ W-Interface (-) */
(PID.TID 0000.0001)    30 @  1.000000000000000E+00              /* K =  1: 30 */
(PID.TID 0000.0001)     ;
(PID.TID 0000.0001) rVel2wUnit = /* convert units: rVel -> wSpeed (=1 if z-coord)*/
(PID.TID 0000.0001)    30 @  1.000000000000000E+00              /* K =  1: 30 */
(PID.TID 0000.0001)     ;
(PID.TID 0000.0001) wUnit2rVel = /* convert units: wSpeed -> rVel (=1 if z-coord)*/
(PID.TID 0000.0001)    30 @  1.000000000000000E+00              /* K =  1: 30 */
(PID.TID 0000.0001)     ;
(PID.TID 0000.0001) dBdrRef = /* Vertical grad. of reference buoyancy [(m/s/r)^2] */
(PID.TID 0000.0001)    29 @  0.000000000000000E+00              /* K =  1: 29 */
(PID.TID 0000.0001)     ;
(PID.TID 0000.0001) rotateGrid = /* use rotated grid ( True/False ) */
(PID.TID 0000.0001)                   F
(PID.TID 0000.0001)     ;
(PID.TID 0000.0001) phiEuler = /* Euler angle, rotation about original z-coordinate [rad] */
(PID.TID 0000.0001)                 0.000000000000000E+00
(PID.TID 0000.0001)     ;
(PID.TID 0000.0001) thetaEuler = /* Euler angle, rotation about new x-coordinate [rad] */
(PID.TID 0000.0001)                 0.000000000000000E+00
(PID.TID 0000.0001)     ;
(PID.TID 0000.0001) psiEuler = /* Euler angle, rotation about new z-coordinate [rad] */
(PID.TID 0000.0001)                 0.000000000000000E+00
(PID.TID 0000.0001)     ;
(PID.TID 0000.0001) dxF =  /* dxF(:,1,:,1) ( units: m ) */
(PID.TID 0000.0001)   120 @  3.926990816987242E-03              /* I =  1:120 */
(PID.TID 0000.0001)     ;
(PID.TID 0000.0001) dxF =  /* dxF(1,:,1,:) ( units: m ) */
(PID.TID 0000.0001)                 3.926990816987242E-03,      /* J =  1 */
(PID.TID 0000.0001)                 4.450589592585540E-03,      /* J =  2 */
(PID.TID 0000.0001)                 4.974188368183838E-03,      /* J =  3 */
(PID.TID 0000.0001)                 5.497787143782137E-03,      /* J =  4 */
(PID.TID 0000.0001)                 6.021385919380436E-03,      /* J =  5 */
(PID.TID 0000.0001)                 6.544984694978734E-03,      /* J =  6 */
(PID.TID 0000.0001)                 7.068583470577033E-03,      /* J =  7 */
(PID.TID 0000.0001)                 7.592182246175332E-03,      /* J =  8 */
(PID.TID 0000.0001)                 8.115781021773632E-03,      /* J =  9 */
(PID.TID 0000.0001)                 8.639379797371931E-03,      /* J = 10 */
(PID.TID 0000.0001)                 9.162978572970231E-03,      /* J = 11 */
(PID.TID 0000.0001)                 9.686577348568530E-03,      /* J = 12 */
(PID.TID 0000.0001)                 1.021017612416683E-02,      /* J = 13 */
(PID.TID 0000.0001)                 1.073377489976513E-02,      /* J = 14 */
(PID.TID 0000.0001)                 1.125737367536343E-02,      /* J = 15 */
(PID.TID 0000.0001)                 1.178097245096173E-02,      /* J = 16 */
(PID.TID 0000.0001)                 1.230457122656003E-02,      /* J = 17 */
(PID.TID 0000.0001)                 1.282817000215832E-02,      /* J = 18 */
(PID.TID 0000.0001)                 1.335176877775662E-02,      /* J = 19 */
(PID.TID 0000.0001)                 1.387536755335492E-02,      /* J = 20 */
(PID.TID 0000.0001)                 1.439896632895322E-02,      /* J = 21 */
(PID.TID 0000.0001)                 1.492256510455152E-02,      /* J = 22 */
(PID.TID 0000.0001)                 1.544616388014982E-02       /* J = 23 */
(PID.TID 0000.0001)     ;
(PID.TID 0000.0001) dyF =  /* dyF(:,1,:,1) ( units: m ) */
(PID.TID 0000.0001)   120 @  1.000000000000000E-02              /* I =  1:120 */
(PID.TID 0000.0001)     ;
(PID.TID 0000.0001) dyF =  /* dyF(1,:,1,:) ( units: m ) */
(PID.TID 0000.0001)    23 @  1.000000000000000E-02              /* J =  1: 23 */
(PID.TID 0000.0001)     ;
(PID.TID 0000.0001) dxG =  /* dxG(:,1,:,1) ( units: m ) */
(PID.TID 0000.0001)   120 @  3.665191429188093E-03              /* I =  1:120 */
(PID.TID 0000.0001)     ;
(PID.TID 0000.0001) dxG =  /* dxG(1,:,1,:) ( units: m ) */
(PID.TID 0000.0001)                 3.665191429188093E-03,      /* J =  1 */
(PID.TID 0000.0001)                 4.188790204786390E-03,      /* J =  2 */
(PID.TID 0000.0001)                 4.712388980384690E-03,      /* J =  3 */
(PID.TID 0000.0001)                 5.235987755982988E-03,      /* J =  4 */
(PID.TID 0000.0001)                 5.759586531581287E-03,      /* J =  5 */
(PID.TID 0000.0001)                 6.283185307179585E-03,      /* J =  6 */
(PID.TID 0000.0001)                 6.806784082777883E-03,      /* J =  7 */
(PID.TID 0000.0001)                 7.330382858376183E-03,      /* J =  8 */
(PID.TID 0000.0001)                 7.853981633974482E-03,      /* J =  9 */
(PID.TID 0000.0001)                 8.377580409572781E-03,      /* J = 10 */
(PID.TID 0000.0001)                 8.901179185171080E-03,      /* J = 11 */
(PID.TID 0000.0001)                 9.424777960769379E-03,      /* J = 12 */
(PID.TID 0000.0001)                 9.948376736367679E-03,      /* J = 13 */
(PID.TID 0000.0001)                 1.047197551196598E-02,      /* J = 14 */
(PID.TID 0000.0001)                 1.099557428756428E-02,      /* J = 15 */
(PID.TID 0000.0001)                 1.151917306316258E-02,      /* J = 16 */
(PID.TID 0000.0001)                 1.204277183876088E-02,      /* J = 17 */
(PID.TID 0000.0001)                 1.256637061435918E-02,      /* J = 18 */
(PID.TID 0000.0001)                 1.308996938995748E-02,      /* J = 19 */
(PID.TID 0000.0001)                 1.361356816555578E-02,      /* J = 20 */
(PID.TID 0000.0001)                 1.413716694115407E-02,      /* J = 21 */
(PID.TID 0000.0001)                 1.466076571675237E-02,      /* J = 22 */
(PID.TID 0000.0001)                 1.518436449235067E-02       /* J = 23 */
(PID.TID 0000.0001)     ;
(PID.TID 0000.0001) dyG =  /* dyG(:,1,:,1) ( units: m ) */
(PID.TID 0000.0001)   120 @  1.000000000000000E-02              /* I =  1:120 */
(PID.TID 0000.0001)     ;
(PID.TID 0000.0001) dyG =  /* dyG(1,:,1,:) ( units: m ) */
(PID.TID 0000.0001)    23 @  1.000000000000000E-02              /* J =  1: 23 */
(PID.TID 0000.0001)     ;
(PID.TID 0000.0001) dxC =  /* dxC(:,1,:,1) ( units: m ) */
(PID.TID 0000.0001)   120 @  3.926990816987242E-03              /* I =  1:120 */
(PID.TID 0000.0001)     ;
(PID.TID 0000.0001) dxC =  /* dxC(1,:,1,:) ( units: m ) */
(PID.TID 0000.0001)                 3.926990816987242E-03,      /* J =  1 */
(PID.TID 0000.0001)                 4.450589592585540E-03,      /* J =  2 */
(PID.TID 0000.0001)                 4.974188368183838E-03,      /* J =  3 */
(PID.TID 0000.0001)                 5.497787143782137E-03,      /* J =  4 */
(PID.TID 0000.0001)                 6.021385919380436E-03,      /* J =  5 */
(PID.TID 0000.0001)                 6.544984694978734E-03,      /* J =  6 */
(PID.TID 0000.0001)                 7.068583470577033E-03,      /* J =  7 */
(PID.TID 0000.0001)                 7.592182246175332E-03,      /* J =  8 */
(PID.TID 0000.0001)                 8.115781021773632E-03,      /* J =  9 */
(PID.TID 0000.0001)                 8.639379797371931E-03,      /* J = 10 */
(PID.TID 0000.0001)                 9.162978572970231E-03,      /* J = 11 */
(PID.TID 0000.0001)                 9.686577348568530E-03,      /* J = 12 */
(PID.TID 0000.0001)                 1.021017612416683E-02,      /* J = 13 */
(PID.TID 0000.0001)                 1.073377489976513E-02,      /* J = 14 */
(PID.TID 0000.0001)                 1.125737367536343E-02,      /* J = 15 */
(PID.TID 0000.0001)                 1.178097245096173E-02,      /* J = 16 */
(PID.TID 0000.0001)                 1.230457122656003E-02,      /* J = 17 */
(PID.TID 0000.0001)                 1.282817000215832E-02,      /* J = 18 */
(PID.TID 0000.0001)                 1.335176877775662E-02,      /* J = 19 */
(PID.TID 0000.0001)                 1.387536755335492E-02,      /* J = 20 */
(PID.TID 0000.0001)                 1.439896632895322E-02,      /* J = 21 */
(PID.TID 0000.0001)                 1.492256510455152E-02,      /* J = 22 */
(PID.TID 0000.0001)                 1.544616388014982E-02       /* J = 23 */
(PID.TID 0000.0001)     ;
(PID.TID 0000.0001) dyC =  /* dyC(:,1,:,1) ( units: m ) */
(PID.TID 0000.0001)   120 @  1.000000000000000E-02              /* I =  1:120 */
(PID.TID 0000.0001)     ;
(PID.TID 0000.0001) dyC =  /* dyC(1,:,1,:) ( units: m ) */
(PID.TID 0000.0001)    23 @  1.000000000000000E-02              /* J =  1: 23 */
(PID.TID 0000.0001)     ;
(PID.TID 0000.0001) dxV =  /* dxV(:,1,:,1) ( units: m ) */
(PID.TID 0000.0001)   120 @  3.665191429188093E-03              /* I =  1:120 */
(PID.TID 0000.0001)     ;
(PID.TID 0000.0001) dxV =  /* dxV(1,:,1,:) ( units: m ) */
(PID.TID 0000.0001)                 3.665191429188093E-03,      /* J =  1 */
(PID.TID 0000.0001)                 4.188790204786390E-03,      /* J =  2 */
(PID.TID 0000.0001)                 4.712388980384690E-03,      /* J =  3 */
(PID.TID 0000.0001)                 5.235987755982988E-03,      /* J =  4 */
(PID.TID 0000.0001)                 5.759586531581287E-03,      /* J =  5 */
(PID.TID 0000.0001)                 6.283185307179585E-03,      /* J =  6 */
(PID.TID 0000.0001)                 6.806784082777883E-03,      /* J =  7 */
(PID.TID 0000.0001)                 7.330382858376183E-03,      /* J =  8 */
(PID.TID 0000.0001)                 7.853981633974482E-03,      /* J =  9 */
(PID.TID 0000.0001)                 8.377580409572781E-03,      /* J = 10 */
(PID.TID 0000.0001)                 8.901179185171080E-03,      /* J = 11 */
(PID.TID 0000.0001)                 9.424777960769379E-03,      /* J = 12 */
(PID.TID 0000.0001)                 9.948376736367679E-03,      /* J = 13 */
(PID.TID 0000.0001)                 1.047197551196598E-02,      /* J = 14 */
(PID.TID 0000.0001)                 1.099557428756428E-02,      /* J = 15 */
(PID.TID 0000.0001)                 1.151917306316258E-02,      /* J = 16 */
(PID.TID 0000.0001)                 1.204277183876088E-02,      /* J = 17 */
(PID.TID 0000.0001)                 1.256637061435918E-02,      /* J = 18 */
(PID.TID 0000.0001)                 1.308996938995748E-02,      /* J = 19 */
(PID.TID 0000.0001)                 1.361356816555578E-02,      /* J = 20 */
(PID.TID 0000.0001)                 1.413716694115407E-02,      /* J = 21 */
(PID.TID 0000.0001)                 1.466076571675237E-02,      /* J = 22 */
(PID.TID 0000.0001)                 1.518436449235067E-02       /* J = 23 */
(PID.TID 0000.0001)     ;
(PID.TID 0000.0001) dyU =  /* dyU(:,1,:,1) ( units: m ) */
(PID.TID 0000.0001)   120 @  1.000000000000000E-02              /* I =  1:120 */
(PID.TID 0000.0001)     ;
(PID.TID 0000.0001) dyU =  /* dyU(1,:,1,:) ( units: m ) */
(PID.TID 0000.0001)    23 @  1.000000000000000E-02              /* J =  1: 23 */
(PID.TID 0000.0001)     ;
(PID.TID 0000.0001) rA  =  /* rA (:,1,:,1) ( units: m^2 ) */
(PID.TID 0000.0001)   120 @  3.926990816987242E-05              /* I =  1:120 */
(PID.TID 0000.0001)     ;
(PID.TID 0000.0001) rA  =  /* rA (1,:,1,:) ( units: m^2 ) */
(PID.TID 0000.0001)                 3.926990816987242E-05,      /* J =  1 */
(PID.TID 0000.0001)                 4.450589592585540E-05,      /* J =  2 */
(PID.TID 0000.0001)                 4.974188368183839E-05,      /* J =  3 */
(PID.TID 0000.0001)                 5.497787143782137E-05,      /* J =  4 */
(PID.TID 0000.0001)                 6.021385919380436E-05,      /* J =  5 */
(PID.TID 0000.0001)                 6.544984694978734E-05,      /* J =  6 */
(PID.TID 0000.0001)                 7.068583470577033E-05,      /* J =  7 */
(PID.TID 0000.0001)                 7.592182246175332E-05,      /* J =  8 */
(PID.TID 0000.0001)                 8.115781021773632E-05,      /* J =  9 */
(PID.TID 0000.0001)                 8.639379797371931E-05,      /* J = 10 */
(PID.TID 0000.0001)                 9.162978572970230E-05,      /* J = 11 */
(PID.TID 0000.0001)                 9.686577348568531E-05,      /* J = 12 */
(PID.TID 0000.0001)                 1.021017612416683E-04,      /* J = 13 */
(PID.TID 0000.0001)                 1.073377489976513E-04,      /* J = 14 */
(PID.TID 0000.0001)                 1.125737367536343E-04,      /* J = 15 */
(PID.TID 0000.0001)                 1.178097245096173E-04,      /* J = 16 */
(PID.TID 0000.0001)                 1.230457122656003E-04,      /* J = 17 */
(PID.TID 0000.0001)                 1.282817000215832E-04,      /* J = 18 */
(PID.TID 0000.0001)                 1.335176877775662E-04,      /* J = 19 */
(PID.TID 0000.0001)                 1.387536755335492E-04,      /* J = 20 */
(PID.TID 0000.0001)                 1.439896632895322E-04,      /* J = 21 */
(PID.TID 0000.0001)                 1.492256510455152E-04,      /* J = 22 */
(PID.TID 0000.0001)                 1.544616388014982E-04       /* J = 23 */
(PID.TID 0000.0001)     ;
(PID.TID 0000.0001) rAw =  /* rAw(:,1,:,1) ( units: m^2 ) */
(PID.TID 0000.0001)   120 @  3.926990816987242E-05              /* I =  1:120 */
(PID.TID 0000.0001)     ;
(PID.TID 0000.0001) rAw =  /* rAw(1,:,1,:) ( units: m^2 ) */
(PID.TID 0000.0001)                 3.926990816987242E-05,      /* J =  1 */
(PID.TID 0000.0001)                 4.450589592585540E-05,      /* J =  2 */
(PID.TID 0000.0001)                 4.974188368183839E-05,      /* J =  3 */
(PID.TID 0000.0001)                 5.497787143782137E-05,      /* J =  4 */
(PID.TID 0000.0001)                 6.021385919380436E-05,      /* J =  5 */
(PID.TID 0000.0001)                 6.544984694978734E-05,      /* J =  6 */
(PID.TID 0000.0001)                 7.068583470577033E-05,      /* J =  7 */
(PID.TID 0000.0001)                 7.592182246175332E-05,      /* J =  8 */
(PID.TID 0000.0001)                 8.115781021773632E-05,      /* J =  9 */
(PID.TID 0000.0001)                 8.639379797371931E-05,      /* J = 10 */
(PID.TID 0000.0001)                 9.162978572970230E-05,      /* J = 11 */
(PID.TID 0000.0001)                 9.686577348568531E-05,      /* J = 12 */
(PID.TID 0000.0001)                 1.021017612416683E-04,      /* J = 13 */
(PID.TID 0000.0001)                 1.073377489976513E-04,      /* J = 14 */
(PID.TID 0000.0001)                 1.125737367536343E-04,      /* J = 15 */
(PID.TID 0000.0001)                 1.178097245096173E-04,      /* J = 16 */
(PID.TID 0000.0001)                 1.230457122656003E-04,      /* J = 17 */
(PID.TID 0000.0001)                 1.282817000215832E-04,      /* J = 18 */
(PID.TID 0000.0001)                 1.335176877775662E-04,      /* J = 19 */
(PID.TID 0000.0001)                 1.387536755335492E-04,      /* J = 20 */
(PID.TID 0000.0001)                 1.439896632895322E-04,      /* J = 21 */
(PID.TID 0000.0001)                 1.492256510455152E-04,      /* J = 22 */
(PID.TID 0000.0001)                 1.544616388014982E-04       /* J = 23 */
(PID.TID 0000.0001)     ;
(PID.TID 0000.0001) rAs =  /* rAs(:,1,:,1) ( units: m^2 ) */
(PID.TID 0000.0001)   120 @  3.665191429188093E-05              /* I =  1:120 */
(PID.TID 0000.0001)     ;
(PID.TID 0000.0001) rAs =  /* rAs(1,:,1,:) ( units: m^2 ) */
(PID.TID 0000.0001)                 3.665191429188093E-05,      /* J =  1 */
(PID.TID 0000.0001)                 4.188790204786391E-05,      /* J =  2 */
(PID.TID 0000.0001)                 4.712388980384690E-05,      /* J =  3 */
(PID.TID 0000.0001)                 5.235987755982988E-05,      /* J =  4 */
(PID.TID 0000.0001)                 5.759586531581287E-05,      /* J =  5 */
(PID.TID 0000.0001)                 6.283185307179586E-05,      /* J =  6 */
(PID.TID 0000.0001)                 6.806784082777883E-05,      /* J =  7 */
(PID.TID 0000.0001)                 7.330382858376182E-05,      /* J =  8 */
(PID.TID 0000.0001)                 7.853981633974481E-05,      /* J =  9 */
(PID.TID 0000.0001)                 8.377580409572782E-05,      /* J = 10 */
(PID.TID 0000.0001)                 8.901179185171081E-05,      /* J = 11 */
(PID.TID 0000.0001)                 9.424777960769380E-05,      /* J = 12 */
(PID.TID 0000.0001)                 9.948376736367679E-05,      /* J = 13 */
(PID.TID 0000.0001)                 1.047197551196598E-04,      /* J = 14 */
(PID.TID 0000.0001)                 1.099557428756428E-04,      /* J = 15 */
(PID.TID 0000.0001)                 1.151917306316258E-04,      /* J = 16 */
(PID.TID 0000.0001)                 1.204277183876088E-04,      /* J = 17 */
(PID.TID 0000.0001)                 1.256637061435918E-04,      /* J = 18 */
(PID.TID 0000.0001)                 1.308996938995748E-04,      /* J = 19 */
(PID.TID 0000.0001)                 1.361356816555577E-04,      /* J = 20 */
(PID.TID 0000.0001)                 1.413716694115407E-04,      /* J = 21 */
(PID.TID 0000.0001)                 1.466076571675237E-04,      /* J = 22 */
(PID.TID 0000.0001)                 1.518436449235067E-04       /* J = 23 */
(PID.TID 0000.0001)     ;
(PID.TID 0000.0001) globalArea = /* Integrated horizontal Area (m^2) */
(PID.TID 0000.0001)                 2.626371458401061E-01
(PID.TID 0000.0001)     ;
(PID.TID 0000.0001) // =======================================================
(PID.TID 0000.0001) // End of Model config. summary
(PID.TID 0000.0001) // =======================================================
(PID.TID 0000.0001) 
(PID.TID 0000.0001) == Packages configuration : Check & print summary ==
(PID.TID 0000.0001) 
(PID.TID 0000.0001) GAD_CHECK: #define ALLOW_GENERIC_ADVDIFF
(PID.TID 0000.0001) // =======================================================
(PID.TID 0000.0001) // Check Model config. (CONFIG_CHECK):
(PID.TID 0000.0001) // CONFIG_CHECK : Normal End
(PID.TID 0000.0001) // =======================================================
(PID.TID 0000.0001) 
(PID.TID 0000.0001)  MDS_READ_FIELD: opening global file: thetaPolR.bin
(PID.TID 0000.0001) Start initial hydrostatic pressure computation
(PID.TID 0000.0001) Pressure is predetermined for buoyancyRelation OCEANIC
(PID.TID 0000.0001) 
(PID.TID 0000.0001) // =======================================================
(PID.TID 0000.0001) // Model current state
(PID.TID 0000.0001) // =======================================================
(PID.TID 0000.0001) 
(PID.TID 0000.0001) // =======================================================
(PID.TID 0000.0001) // Begin MONITOR dynamic field statistics
(PID.TID 0000.0001) // =======================================================
(PID.TID 0000.0001) %MON time_tsnumber                =                     0
(PID.TID 0000.0001) %MON time_secondsf                =   0.0000000000000E+00
(PID.TID 0000.0001) %MON dynstat_eta_max              =   0.0000000000000E+00
(PID.TID 0000.0001) %MON dynstat_eta_min              =   0.0000000000000E+00
(PID.TID 0000.0001) %MON dynstat_eta_mean             =   0.0000000000000E+00
(PID.TID 0000.0001) %MON dynstat_eta_sd               =   0.0000000000000E+00
(PID.TID 0000.0001) %MON dynstat_eta_del2             =   0.0000000000000E+00
(PID.TID 0000.0001) %MON dynstat_uvel_max             =   0.0000000000000E+00
(PID.TID 0000.0001) %MON dynstat_uvel_min             =   0.0000000000000E+00
(PID.TID 0000.0001) %MON dynstat_uvel_mean            =   0.0000000000000E+00
(PID.TID 0000.0001) %MON dynstat_uvel_sd              =   0.0000000000000E+00
(PID.TID 0000.0001) %MON dynstat_uvel_del2            =   0.0000000000000E+00
(PID.TID 0000.0001) %MON dynstat_vvel_max             =   0.0000000000000E+00
(PID.TID 0000.0001) %MON dynstat_vvel_min             =   0.0000000000000E+00
(PID.TID 0000.0001) %MON dynstat_vvel_mean            =   0.0000000000000E+00
(PID.TID 0000.0001) %MON dynstat_vvel_sd              =   0.0000000000000E+00
(PID.TID 0000.0001) %MON dynstat_vvel_del2            =   0.0000000000000E+00
(PID.TID 0000.0001) %MON dynstat_wvel_max             =   0.0000000000000E+00
(PID.TID 0000.0001) %MON dynstat_wvel_min             =   0.0000000000000E+00
(PID.TID 0000.0001) %MON dynstat_wvel_mean            =   0.0000000000000E+00
(PID.TID 0000.0001) %MON dynstat_wvel_sd              =   0.0000000000000E+00
(PID.TID 0000.0001) %MON dynstat_wvel_del2            =   0.0000000000000E+00
(PID.TID 0000.0001) %MON dynstat_theta_max            =   2.0000999450684E+01
(PID.TID 0000.0001) %MON dynstat_theta_min            =   2.0000000000000E+01
(PID.TID 0000.0001) %MON dynstat_theta_mean           =   2.0000506097545E+01
(PID.TID 0000.0001) %MON dynstat_theta_sd             =   2.8863770164396E-04
(PID.TID 0000.0001) %MON dynstat_theta_del2           =   3.5993393385523E-06
(PID.TID 0000.0001) %MON dynstat_salt_max             =   3.5000000000000E+01
(PID.TID 0000.0001) %MON dynstat_salt_min             =   3.5000000000000E+01
(PID.TID 0000.0001) %MON dynstat_salt_mean            =   3.5000000000001E+01
(PID.TID 0000.0001) %MON dynstat_salt_sd              =   7.5317529990572E-13
(PID.TID 0000.0001) %MON dynstat_salt_del2            =   0.0000000000000E+00
(PID.TID 0000.0001) %MON advcfl_uvel_max              =   0.0000000000000E+00
(PID.TID 0000.0001) %MON advcfl_vvel_max              =   0.0000000000000E+00
(PID.TID 0000.0001) %MON advcfl_wvel_max              =   0.0000000000000E+00
(PID.TID 0000.0001) %MON advcfl_W_hf_max              =   0.0000000000000E+00
(PID.TID 0000.0001) %MON pe_b_mean                    =   0.0000000000000E+00
(PID.TID 0000.0001) %MON ke_max                       =   0.0000000000000E+00
(PID.TID 0000.0001) %MON ke_mean                      =   0.0000000000000E+00
(PID.TID 0000.0001) %MON ke_vol                       =   3.8082386146814E-02
(PID.TID 0000.0001) %MON vort_r_min                   =   0.0000000000000E+00
(PID.TID 0000.0001) %MON vort_r_max                   =   0.0000000000000E+00
(PID.TID 0000.0001) %MON vort_a_mean                  =   5.0000000000204E-01
(PID.TID 0000.0001) %MON vort_a_sd                    =   1.5104662576849E-07
(PID.TID 0000.0001) %MON vort_p_mean                  =   5.1396648044902E-01
(PID.TID 0000.0001) %MON vort_p_sd                    =   1.4406477048314E-01
(PID.TID 0000.0001) %MON surfExpan_theta_mean         =   0.0000000000000E+00
(PID.TID 0000.0001) %MON surfExpan_salt_mean          =   0.0000000000000E+00
(PID.TID 0000.0001) // =======================================================
(PID.TID 0000.0001) // End MONITOR dynamic field statistics
(PID.TID 0000.0001) // =======================================================
(PID.TID 0000.0001) SOLVE_FOR_PRESSURE: putPmEinXvector =    F
(PID.TID 0000.0001) SOLVE_FOR_PRESSURE: zeroPsNH=    F , zeroMeanPnh=    F
(PID.TID 0000.0001) SOLVE_FOR_PRESSURE: oldFreeSurfTerm =    T
 cg2d: Sum(rhs),rhsMax =  -2.44249065417534E-15  2.54626495526243E-07
(PID.TID 0000.0001)      cg2d_init_res =   1.79605131991234E+01
(PID.TID 0000.0001)      cg2d_iters(min,last) =      -1     100
(PID.TID 0000.0001)      cg2d_last_res =   9.10810452068376E-08
 cg3d: Sum(rhs),rhsMax =   8.95256091482111E-14  8.94057495890099E-08
(PID.TID 0000.0001)      cg3d_init_res =   5.78014489203574E+01
(PID.TID 0000.0001)      cg3d_iters (last) =                 10
(PID.TID 0000.0001)      cg3d_last_res =   2.29125546074555E-01
(PID.TID 0000.0001) // =======================================================
(PID.TID 0000.0001) // Begin MONITOR dynamic field statistics
(PID.TID 0000.0001) // =======================================================
(PID.TID 0000.0001) %MON time_tsnumber                =                     1
(PID.TID 0000.0001) %MON time_secondsf                =   1.0000000000000E-01
(PID.TID 0000.0001) %MON dynstat_eta_max              =   7.1336480475351E-09
(PID.TID 0000.0001) %MON dynstat_eta_min              =  -7.3583871238599E-09
(PID.TID 0000.0001) %MON dynstat_eta_mean             =  -1.9972474168213E-11
(PID.TID 0000.0001) %MON dynstat_eta_sd               =   4.1852466764881E-09
(PID.TID 0000.0001) %MON dynstat_eta_del2             =   2.8105401525679E-10
(PID.TID 0000.0001) %MON dynstat_uvel_max             =   8.4185990504402E-08
(PID.TID 0000.0001) %MON dynstat_uvel_min             =  -8.4185991550517E-08
(PID.TID 0000.0001) %MON dynstat_uvel_mean            =   1.3301872113128E-24
(PID.TID 0000.0001) %MON dynstat_uvel_sd              =   8.9282950016612E-09
(PID.TID 0000.0001) %MON dynstat_uvel_del2            =   8.4603532755387E-11
(PID.TID 0000.0001) %MON dynstat_vvel_max             =   8.8720044112140E-08
(PID.TID 0000.0001) %MON dynstat_vvel_min             =  -8.8720049774966E-08
(PID.TID 0000.0001) %MON dynstat_vvel_mean            =  -6.5467573859038E-16
(PID.TID 0000.0001) %MON dynstat_vvel_sd              =   9.1021344232698E-09
(PID.TID 0000.0001) %MON dynstat_vvel_del2            =   8.4075250138859E-11
(PID.TID 0000.0001) %MON dynstat_wvel_max             =   3.3825388664830E-07
(PID.TID 0000.0001) %MON dynstat_wvel_min             =  -2.7219015811266E-07
(PID.TID 0000.0001) %MON dynstat_wvel_mean            =   4.3167745883437E-25
(PID.TID 0000.0001) %MON dynstat_wvel_sd              =   5.8295526636033E-08
(PID.TID 0000.0001) %MON dynstat_wvel_del2            =   7.5821546352600E-10
(PID.TID 0000.0001) %MON dynstat_theta_max            =   2.0000994014334E+01
(PID.TID 0000.0001) %MON dynstat_theta_min            =   1.9994446794576E+01
(PID.TID 0000.0001) %MON dynstat_theta_mean           =   2.0000391250747E+01
(PID.TID 0000.0001) %MON dynstat_theta_sd             =   8.3826057293069E-04
(PID.TID 0000.0001) %MON dynstat_theta_del2           =   5.5510699991069E-06
(PID.TID 0000.0001) %MON dynstat_salt_max             =   3.5000000000000E+01
(PID.TID 0000.0001) %MON dynstat_salt_min             =   3.5000000000000E+01
(PID.TID 0000.0001) %MON dynstat_salt_mean            =   3.5000000000001E+01
(PID.TID 0000.0001) %MON dynstat_salt_sd              =   7.5317529990572E-13
(PID.TID 0000.0001) %MON dynstat_salt_del2            =   0.0000000000000E+00
(PID.TID 0000.0001) %MON advcfl_uvel_max              =   1.8915694156740E-06
(PID.TID 0000.0001) %MON advcfl_vvel_max              =   8.8720049774966E-07
(PID.TID 0000.0001) %MON advcfl_wvel_max              =   6.7650777329661E-06
(PID.TID 0000.0001) %MON advcfl_W_hf_max              =   6.7650777329661E-06
(PID.TID 0000.0001) %MON pe_b_mean                    =   5.9254729512299E-16
(PID.TID 0000.0001) %MON ke_max                       =   5.7207845897316E-14
(PID.TID 0000.0001) %MON ke_mean                      =   1.7492866562685E-15
(PID.TID 0000.0001) %MON ke_vol                       =   3.8082386146814E-02
(PID.TID 0000.0001) %MON vort_r_min                   =  -8.9447614910927E-06
(PID.TID 0000.0001) %MON vort_r_max                   =   8.9447616022424E-06
(PID.TID 0000.0001) %MON vort_a_mean                  =   5.0000000000203E-01
(PID.TID 0000.0001) %MON vort_a_sd                    =   2.9455717505173E-07
(PID.TID 0000.0001) %MON vort_p_mean                  =   5.1396648044902E-01
(PID.TID 0000.0001) %MON vort_p_sd                    =   1.4406477048399E-01
(PID.TID 0000.0001) %MON surfExpan_theta_mean         =   0.0000000000000E+00
(PID.TID 0000.0001) %MON surfExpan_salt_mean          =   0.0000000000000E+00
(PID.TID 0000.0001) // =======================================================
(PID.TID 0000.0001) // End MONITOR dynamic field statistics
(PID.TID 0000.0001) // =======================================================
 cg2d: Sum(rhs),rhsMax =   5.55111512312578E-15  5.04382260485890E-07
(PID.TID 0000.0001)      cg2d_init_res =   8.28764588431133E+00
(PID.TID 0000.0001)      cg2d_iters(min,last) =      -1      58
(PID.TID 0000.0001)      cg2d_last_res =   9.91534988883957E-08
 cg3d: Sum(rhs),rhsMax =  -7.30873694898548E-14  1.77075071890015E-07
(PID.TID 0000.0001)      cg3d_init_res =   2.66814097783560E+01
(PID.TID 0000.0001)      cg3d_iters (last) =                 10
(PID.TID 0000.0001)      cg3d_last_res =   1.59138510337048E+00
(PID.TID 0000.0001) // =======================================================
(PID.TID 0000.0001) // Begin MONITOR dynamic field statistics
(PID.TID 0000.0001) // =======================================================
(PID.TID 0000.0001) %MON time_tsnumber                =                     2
(PID.TID 0000.0001) %MON time_secondsf                =   2.0000000000000E-01
(PID.TID 0000.0001) %MON dynstat_eta_max              =   1.4070631003846E-08
(PID.TID 0000.0001) %MON dynstat_eta_min              =  -1.2984319170393E-07
(PID.TID 0000.0001) %MON dynstat_eta_mean             =   4.3620907496553E-09
(PID.TID 0000.0001) %MON dynstat_eta_sd               =   1.8817998136129E-08
(PID.TID 0000.0001) %MON dynstat_eta_del2             =   6.0340823949001E-10
(PID.TID 0000.0001) %MON dynstat_uvel_max             =   2.5031126703875E-07
(PID.TID 0000.0001) %MON dynstat_uvel_min             =  -2.5031140962711E-07
(PID.TID 0000.0001) %MON dynstat_uvel_mean            =  -4.4554657769014E-17
(PID.TID 0000.0001) %MON dynstat_uvel_sd              =   2.3521429482738E-08
(PID.TID 0000.0001) %MON dynstat_uvel_del2            =   3.2638157045577E-10
(PID.TID 0000.0001) %MON dynstat_vvel_max             =   1.2952614792400E-06
(PID.TID 0000.0001) %MON dynstat_vvel_min             =  -1.2952615130173E-06
(PID.TID 0000.0001) %MON dynstat_vvel_mean            =   1.7066542210437E-16
(PID.TID 0000.0001) %MON dynstat_vvel_sd              =   1.2879058349266E-07
(PID.TID 0000.0001) %MON dynstat_vvel_del2            =   3.5249332781804E-10
(PID.TID 0000.0001) %MON dynstat_wvel_max             =   2.6327659929557E-06
(PID.TID 0000.0001) %MON dynstat_wvel_min             =  -4.4230946039304E-06
(PID.TID 0000.0001) %MON dynstat_wvel_mean            =  -7.7701942590186E-25
(PID.TID 0000.0001) %MON dynstat_wvel_sd              =   4.1694519477835E-07
(PID.TID 0000.0001) %MON dynstat_wvel_del2            =   5.7602051438830E-09
(PID.TID 0000.0001) %MON dynstat_theta_max            =   2.0000990530340E+01
(PID.TID 0000.0001) %MON dynstat_theta_min            =   1.9988838963205E+01
(PID.TID 0000.0001) %MON dynstat_theta_mean           =   2.0000276455833E+01
(PID.TID 0000.0001) %MON dynstat_theta_sd             =   1.6064968957938E-03
(PID.TID 0000.0001) %MON dynstat_theta_del2           =   9.2551346614469E-06
(PID.TID 0000.0001) %MON dynstat_salt_max             =   3.5000000000000E+01
(PID.TID 0000.0001) %MON dynstat_salt_min             =   3.5000000000000E+01
(PID.TID 0000.0001) %MON dynstat_salt_mean            =   3.5000000000001E+01
(PID.TID 0000.0001) %MON dynstat_salt_sd              =   7.5317529990572E-13
(PID.TID 0000.0001) %MON dynstat_salt_del2            =   0.0000000000000E+00
(PID.TID 0000.0001) %MON advcfl_uvel_max              =   5.0322060826679E-06
(PID.TID 0000.0001) %MON advcfl_vvel_max              =   1.2952615130173E-05
(PID.TID 0000.0001) %MON advcfl_wvel_max              =   8.8461892078609E-05
(PID.TID 0000.0001) %MON advcfl_W_hf_max              =   8.8461892078609E-05
(PID.TID 0000.0001) %MON pe_b_mean                    =   1.2622590919240E-14
(PID.TID 0000.0001) %MON ke_max                       =   9.7818826902577E-12
(PID.TID 0000.0001) %MON ke_mean                      =   9.3616157046411E-14
(PID.TID 0000.0001) %MON ke_vol                       =   3.8082386146814E-02
(PID.TID 0000.0001) %MON vort_r_min                   =  -2.2812670310085E-05
(PID.TID 0000.0001) %MON vort_r_max                   =   2.2812664493250E-05
(PID.TID 0000.0001) %MON vort_a_mean                  =   5.0000000000203E-01
(PID.TID 0000.0001) %MON vort_a_sd                    =   7.6552676213728E-07
(PID.TID 0000.0001) %MON vort_p_mean                  =   5.1396648044902E-01
(PID.TID 0000.0001) %MON vort_p_sd                    =   1.4406477049127E-01
(PID.TID 0000.0001) %MON surfExpan_theta_mean         =   0.0000000000000E+00
(PID.TID 0000.0001) %MON surfExpan_salt_mean          =   0.0000000000000E+00
(PID.TID 0000.0001) // =======================================================
(PID.TID 0000.0001) // End MONITOR dynamic field statistics
(PID.TID 0000.0001) // =======================================================
 cg2d: Sum(rhs),rhsMax =   1.33226762955019E-14  6.59737231806054E-07
(PID.TID 0000.0001)      cg2d_init_res =   3.89254515982615E+00
(PID.TID 0000.0001)      cg2d_iters(min,last) =      -1      46
(PID.TID 0000.0001)      cg2d_last_res =   9.65738610197919E-08
 cg3d: Sum(rhs),rhsMax =   2.83176260218454E-14  2.31652887426039E-07
(PID.TID 0000.0001)      cg3d_init_res =   1.25858390116266E+01
(PID.TID 0000.0001)      cg3d_iters (last) =                 10
(PID.TID 0000.0001)      cg3d_last_res =   1.23353558931013E+00
(PID.TID 0000.0001) // =======================================================
(PID.TID 0000.0001) // Begin MONITOR dynamic field statistics
(PID.TID 0000.0001) // =======================================================
(PID.TID 0000.0001) %MON time_tsnumber                =                     3
(PID.TID 0000.0001) %MON time_secondsf                =   3.0000000000000E-01
(PID.TID 0000.0001) %MON dynstat_eta_max              =   1.8418512098840E-08
(PID.TID 0000.0001) %MON dynstat_eta_min              =  -2.0653697332077E-07
(PID.TID 0000.0001) %MON dynstat_eta_mean             =   7.0960333960166E-09
(PID.TID 0000.0001) %MON dynstat_eta_sd               =   3.0109362880287E-08
(PID.TID 0000.0001) %MON dynstat_eta_del2             =   9.1164140018179E-10
(PID.TID 0000.0001) %MON dynstat_uvel_max             =   2.9183041766522E-07
(PID.TID 0000.0001) %MON dynstat_uvel_min             =  -2.9183539234414E-07
(PID.TID 0000.0001) %MON dynstat_uvel_mean            =  -1.5751287155519E-17
(PID.TID 0000.0001) %MON dynstat_uvel_sd              =   2.9965034998457E-08
(PID.TID 0000.0001) %MON dynstat_uvel_del2            =   3.8316433489545E-10
(PID.TID 0000.0001) %MON dynstat_vvel_max             =   3.0888634096220E-06
(PID.TID 0000.0001) %MON dynstat_vvel_min             =  -3.0888438873884E-06
(PID.TID 0000.0001) %MON dynstat_vvel_mean            =   1.1944756789731E-17
(PID.TID 0000.0001) %MON dynstat_vvel_sd              =   2.9550315050992E-07
(PID.TID 0000.0001) %MON dynstat_vvel_del2            =   5.0855384502243E-10
(PID.TID 0000.0001) %MON dynstat_wvel_max             =   2.8978809384728E-06
(PID.TID 0000.0001) %MON dynstat_wvel_min             =  -7.8306959701414E-06
(PID.TID 0000.0001) %MON dynstat_wvel_mean            =   4.4031100801106E-24
(PID.TID 0000.0001) %MON dynstat_wvel_sd              =   7.2360169424725E-07
(PID.TID 0000.0001) %MON dynstat_wvel_del2            =   7.4005063438884E-09
(PID.TID 0000.0001) %MON dynstat_theta_max            =   2.0000987074101E+01
(PID.TID 0000.0001) %MON dynstat_theta_min            =   1.9983246801802E+01
(PID.TID 0000.0001) %MON dynstat_theta_mean           =   2.0000161693103E+01
(PID.TID 0000.0001) %MON dynstat_theta_sd             =   2.3888437601246E-03
(PID.TID 0000.0001) %MON dynstat_theta_del2           =   1.3290284887408E-05
(PID.TID 0000.0001) %MON dynstat_salt_max             =   3.5000000000000E+01
(PID.TID 0000.0001) %MON dynstat_salt_min             =   3.5000000000000E+01
(PID.TID 0000.0001) %MON dynstat_salt_mean            =   3.5000000000001E+01
(PID.TID 0000.0001) %MON dynstat_salt_sd              =   7.5317529990572E-13
(PID.TID 0000.0001) %MON dynstat_salt_del2            =   0.0000000000000E+00
(PID.TID 0000.0001) %MON advcfl_uvel_max              =   6.0674851272868E-06
(PID.TID 0000.0001) %MON advcfl_vvel_max              =   3.0888634096220E-05
(PID.TID 0000.0001) %MON advcfl_wvel_max              =   1.5661391940283E-04
(PID.TID 0000.0001) %MON advcfl_W_hf_max              =   1.5661391940283E-04
(PID.TID 0000.0001) %MON pe_b_mean                    =   3.2370544895757E-14
(PID.TID 0000.0001) %MON ke_max                       =   3.0659888629729E-11
(PID.TID 0000.0001) %MON ke_mean                      =   2.9941133211319E-13
(PID.TID 0000.0001) %MON ke_vol                       =   3.8082386146814E-02
(PID.TID 0000.0001) %MON vort_r_min                   =  -2.8691190618330E-05
(PID.TID 0000.0001) %MON vort_r_max                   =   2.8691629045712E-05
(PID.TID 0000.0001) %MON vort_a_mean                  =   5.0000000000203E-01
(PID.TID 0000.0001) %MON vort_a_sd                    =   9.7869551674428E-07
(PID.TID 0000.0001) %MON vort_p_mean                  =   5.1396648044902E-01
(PID.TID 0000.0001) %MON vort_p_sd                    =   1.4406477049479E-01
(PID.TID 0000.0001) %MON surfExpan_theta_mean         =   0.0000000000000E+00
(PID.TID 0000.0001) %MON surfExpan_salt_mean          =   0.0000000000000E+00
(PID.TID 0000.0001) // =======================================================
(PID.TID 0000.0001) // End MONITOR dynamic field statistics
(PID.TID 0000.0001) // =======================================================
 cg2d: Sum(rhs),rhsMax =  -5.66213742558830E-15  8.14807314873455E-07
(PID.TID 0000.0001)      cg2d_init_res =   3.13874880799774E+00
(PID.TID 0000.0001)      cg2d_iters(min,last) =      -1      57
(PID.TID 0000.0001)      cg2d_last_res =   8.93261817819143E-08
 cg3d: Sum(rhs),rhsMax =  -4.18068357710411E-14  2.86012455705794E-07
(PID.TID 0000.0001)      cg3d_init_res =   1.01401086648304E+01
(PID.TID 0000.0001)      cg3d_iters (last) =                 10
(PID.TID 0000.0001)      cg3d_last_res =   9.73575431042190E-01
(PID.TID 0000.0001) // =======================================================
(PID.TID 0000.0001) // Begin MONITOR dynamic field statistics
(PID.TID 0000.0001) // =======================================================
(PID.TID 0000.0001) %MON time_tsnumber                =                     4
(PID.TID 0000.0001) %MON time_secondsf                =   4.0000000000000E-01
(PID.TID 0000.0001) %MON dynstat_eta_max              =   2.2765106532201E-08
(PID.TID 0000.0001) %MON dynstat_eta_min              =  -2.8309676018162E-07
(PID.TID 0000.0001) %MON dynstat_eta_mean             =   9.8287581622679E-09
(PID.TID 0000.0001) %MON dynstat_eta_sd               =   4.1477607709236E-08
(PID.TID 0000.0001) %MON dynstat_eta_del2             =   1.2313917153399E-09
(PID.TID 0000.0001) %MON dynstat_uvel_max             =   5.4037446471913E-07
(PID.TID 0000.0001) %MON dynstat_uvel_min             =  -5.4039122073497E-07
(PID.TID 0000.0001) %MON dynstat_uvel_mean            =   3.5943353195011E-15
(PID.TID 0000.0001) %MON dynstat_uvel_sd              =   4.9354228724475E-08
(PID.TID 0000.0001) %MON dynstat_uvel_del2            =   5.8464714165100E-10
(PID.TID 0000.0001) %MON dynstat_vvel_max             =   5.6307652069034E-06
(PID.TID 0000.0001) %MON dynstat_vvel_min             =  -5.6306523457414E-06
(PID.TID 0000.0001) %MON dynstat_vvel_mean            =  -8.8907183314060E-18
(PID.TID 0000.0001) %MON dynstat_vvel_sd              =   5.1406710551077E-07
(PID.TID 0000.0001) %MON dynstat_vvel_del2            =   8.1251713726094E-10
(PID.TID 0000.0001) %MON dynstat_wvel_max             =   4.5405507597511E-06
(PID.TID 0000.0001) %MON dynstat_wvel_min             =  -1.3088757846006E-05
(PID.TID 0000.0001) %MON dynstat_wvel_mean            =   1.8044117779277E-23
(PID.TID 0000.0001) %MON dynstat_wvel_sd              =   1.2368456233990E-06
(PID.TID 0000.0001) %MON dynstat_wvel_del2            =   1.2109707878820E-08
(PID.TID 0000.0001) %MON dynstat_theta_max            =   2.0000983645145E+01
(PID.TID 0000.0001) %MON dynstat_theta_min            =   1.9977668033529E+01
(PID.TID 0000.0001) %MON dynstat_theta_mean           =   2.0000046962499E+01
(PID.TID 0000.0001) %MON dynstat_theta_sd             =   3.1731480641084E-03
(PID.TID 0000.0001) %MON dynstat_theta_del2           =   1.7404177847649E-05
(PID.TID 0000.0001) %MON dynstat_salt_max             =   3.5000000000000E+01
(PID.TID 0000.0001) %MON dynstat_salt_min             =   3.5000000000000E+01
(PID.TID 0000.0001) %MON dynstat_salt_mean            =   3.5000000000001E+01
(PID.TID 0000.0001) %MON dynstat_salt_sd              =   7.5317529990572E-13
(PID.TID 0000.0001) %MON dynstat_salt_del2            =   0.0000000000000E+00
(PID.TID 0000.0001) %MON advcfl_uvel_max              =   1.0863907450539E-05
(PID.TID 0000.0001) %MON advcfl_vvel_max              =   5.6307652069034E-05
(PID.TID 0000.0001) %MON advcfl_wvel_max              =   2.6177515692012E-04
(PID.TID 0000.0001) %MON advcfl_W_hf_max              =   2.6177515692012E-04
(PID.TID 0000.0001) %MON pe_b_mean                    =   6.1464603315728E-14
(PID.TID 0000.0001) %MON ke_max                       =   8.5657734671423E-11
(PID.TID 0000.0001) %MON ke_mean                      =   8.7905012022056E-13
(PID.TID 0000.0001) %MON ke_vol                       =   3.8082386146814E-02
(PID.TID 0000.0001) %MON vort_r_min                   =  -4.9412278344828E-05
(PID.TID 0000.0001) %MON vort_r_max                   =   4.9408147043106E-05
(PID.TID 0000.0001) %MON vort_a_mean                  =   5.0000000000203E-01
(PID.TID 0000.0001) %MON vort_a_sd                    =   1.7953271248137E-06
(PID.TID 0000.0001) %MON vort_p_mean                  =   5.1396648044902E-01
(PID.TID 0000.0001) %MON vort_p_sd                    =   1.4406477052528E-01
(PID.TID 0000.0001) %MON surfExpan_theta_mean         =   0.0000000000000E+00
(PID.TID 0000.0001) %MON surfExpan_salt_mean          =   0.0000000000000E+00
(PID.TID 0000.0001) // =======================================================
(PID.TID 0000.0001) // End MONITOR dynamic field statistics
(PID.TID 0000.0001) // =======================================================
 cg2d: Sum(rhs),rhsMax =   1.79301018476963E-14  9.69511585670168E-07
(PID.TID 0000.0001)      cg2d_init_res =   2.62047914580911E+00
(PID.TID 0000.0001)      cg2d_iters(min,last) =      -1      41
(PID.TID 0000.0001)      cg2d_last_res =   8.36919123396417E-08
 cg3d: Sum(rhs),rhsMax =  -2.62012633811537E-14  3.40291409838804E-07
(PID.TID 0000.0001)      cg3d_init_res =   8.44973250031743E+00
(PID.TID 0000.0001)      cg3d_iters (last) =                 10
(PID.TID 0000.0001)      cg3d_last_res =   9.25587308668741E-01
(PID.TID 0000.0001) // =======================================================
(PID.TID 0000.0001) // Begin MONITOR dynamic field statistics
(PID.TID 0000.0001) // =======================================================
(PID.TID 0000.0001) %MON time_tsnumber                =                     5
(PID.TID 0000.0001) %MON time_secondsf                =   5.0000000000000E-01
(PID.TID 0000.0001) %MON dynstat_eta_max              =   2.7110436003026E-08
(PID.TID 0000.0001) %MON dynstat_eta_min              =  -3.5947612059693E-07
(PID.TID 0000.0001) %MON dynstat_eta_mean             =   1.2559561187399E-08
(PID.TID 0000.0001) %MON dynstat_eta_sd               =   5.2846892317354E-08
(PID.TID 0000.0001) %MON dynstat_eta_del2             =   1.5536340709444E-09
(PID.TID 0000.0001) %MON dynstat_uvel_max             =   8.5121795356186E-07
(PID.TID 0000.0001) %MON dynstat_uvel_min             =  -8.5117114189529E-07
(PID.TID 0000.0001) %MON dynstat_uvel_mean            =   2.0867752430260E-14
(PID.TID 0000.0001) %MON dynstat_uvel_sd              =   7.6098625148516E-08
(PID.TID 0000.0001) %MON dynstat_uvel_del2            =   7.2825638351504E-10
(PID.TID 0000.0001) %MON dynstat_vvel_max             =   8.7147179710787E-06
(PID.TID 0000.0001) %MON dynstat_vvel_min             =  -8.7142938058664E-06
(PID.TID 0000.0001) %MON dynstat_vvel_mean            =   8.8314451771860E-17
(PID.TID 0000.0001) %MON dynstat_vvel_sd              =   7.7788438916638E-07
(PID.TID 0000.0001) %MON dynstat_vvel_del2            =   1.1247896725849E-09
(PID.TID 0000.0001) %MON dynstat_wvel_max             =   5.7281709922946E-06
(PID.TID 0000.0001) %MON dynstat_wvel_min             =  -1.9478932544751E-05
(PID.TID 0000.0001) %MON dynstat_wvel_mean            =   8.5472136849205E-24
(PID.TID 0000.0001) %MON dynstat_wvel_sd              =   1.8310508717732E-06
(PID.TID 0000.0001) %MON dynstat_wvel_del2            =   1.6269978859183E-08
(PID.TID 0000.0001) %MON dynstat_theta_max            =   2.0000981080146E+01
(PID.TID 0000.0001) %MON dynstat_theta_min            =   1.9972102817676E+01
(PID.TID 0000.0001) %MON dynstat_theta_mean           =   1.9999932263927E+01
(PID.TID 0000.0001) %MON dynstat_theta_sd             =   3.9568689476172E-03
(PID.TID 0000.0001) %MON dynstat_theta_del2           =   2.1532842031168E-05
(PID.TID 0000.0001) %MON dynstat_salt_max             =   3.5000000000000E+01
(PID.TID 0000.0001) %MON dynstat_salt_min             =   3.5000000000000E+01
(PID.TID 0000.0001) %MON dynstat_salt_mean            =   3.5000000000001E+01
(PID.TID 0000.0001) %MON dynstat_salt_sd              =   7.5317529990572E-13
(PID.TID 0000.0001) %MON dynstat_salt_del2            =   0.0000000000000E+00
(PID.TID 0000.0001) %MON advcfl_uvel_max              =   1.7112700415740E-05
(PID.TID 0000.0001) %MON advcfl_vvel_max              =   8.7147179710787E-05
(PID.TID 0000.0001) %MON advcfl_wvel_max              =   3.8957865089503E-04
(PID.TID 0000.0001) %MON advcfl_W_hf_max              =   3.8957865089503E-04
(PID.TID 0000.0001) %MON pe_b_mean                    =   9.9809531356224E-14
(PID.TID 0000.0001) %MON ke_max                       =   1.8971409357244E-10
(PID.TID 0000.0001) %MON ke_mean                      =   1.9391658489874E-12
(PID.TID 0000.0001) %MON ke_vol                       =   3.8082386146814E-02
(PID.TID 0000.0001) %MON vort_r_min                   =  -7.3574587273475E-05
(PID.TID 0000.0001) %MON vort_r_max                   =   7.3571586349194E-05
(PID.TID 0000.0001) %MON vort_a_mean                  =   5.0000000000203E-01
(PID.TID 0000.0001) %MON vort_a_sd                    =   2.9955503810455E-06
(PID.TID 0000.0001) %MON vort_p_mean                  =   5.1396648044902E-01
(PID.TID 0000.0001) %MON vort_p_sd                    =   1.4406477061417E-01
(PID.TID 0000.0001) %MON surfExpan_theta_mean         =   0.0000000000000E+00
(PID.TID 0000.0001) %MON surfExpan_salt_mean          =   0.0000000000000E+00
(PID.TID 0000.0001) // =======================================================
(PID.TID 0000.0001) // End MONITOR dynamic field statistics
(PID.TID 0000.0001) // =======================================================
 cg2d: Sum(rhs),rhsMax =   7.46624984060418E-15  1.12382115832929E-06
(PID.TID 0000.0001)      cg2d_init_res =   2.24579213360352E+00
(PID.TID 0000.0001)      cg2d_iters(min,last) =      -1      41
(PID.TID 0000.0001)      cg2d_last_res =   8.17770836055340E-08
 cg3d: Sum(rhs),rhsMax =   9.34009813935432E-14  3.94335083253398E-07
(PID.TID 0000.0001)      cg3d_init_res =   7.25449362452874E+00
(PID.TID 0000.0001)      cg3d_iters (last) =                 10
(PID.TID 0000.0001)      cg3d_last_res =   7.18322077391239E-01
(PID.TID 0000.0001) // =======================================================
(PID.TID 0000.0001) // Begin MONITOR dynamic field statistics
(PID.TID 0000.0001) // =======================================================
(PID.TID 0000.0001) %MON time_tsnumber                =                     6
(PID.TID 0000.0001) %MON time_secondsf                =   6.0000000000000E-01
(PID.TID 0000.0001) %MON dynstat_eta_max              =   3.1481885362462E-08
(PID.TID 0000.0001) %MON dynstat_eta_min              =  -4.3562658166692E-07
(PID.TID 0000.0001) %MON dynstat_eta_mean             =   1.5288412918968E-08
(PID.TID 0000.0001) %MON dynstat_eta_sd               =   6.4198813804304E-08
(PID.TID 0000.0001) %MON dynstat_eta_del2             =   1.8757800724461E-09
(PID.TID 0000.0001) %MON dynstat_uvel_max             =   1.2623888124045E-06
(PID.TID 0000.0001) %MON dynstat_uvel_min             =  -1.2624407460157E-06
(PID.TID 0000.0001) %MON dynstat_uvel_mean            =   7.2719312440857E-14
(PID.TID 0000.0001) %MON dynstat_uvel_sd              =   1.1729424990490E-07
(PID.TID 0000.0001) %MON dynstat_uvel_del2            =   8.9351797525549E-10
(PID.TID 0000.0001) %MON dynstat_vvel_max             =   1.2507129104354E-05
(PID.TID 0000.0001) %MON dynstat_vvel_min             =  -1.2506020837597E-05
(PID.TID 0000.0001) %MON dynstat_vvel_mean            =  -1.0210100307764E-17
(PID.TID 0000.0001) %MON dynstat_vvel_sd              =   1.0912008453887E-06
(PID.TID 0000.0001) %MON dynstat_vvel_del2            =   1.5123031632461E-09
(PID.TID 0000.0001) %MON dynstat_wvel_max             =   6.8729643277661E-06
(PID.TID 0000.0001) %MON dynstat_wvel_min             =  -2.5355850226720E-05
(PID.TID 0000.0001) %MON dynstat_wvel_mean            =  -6.9068393413499E-25
(PID.TID 0000.0001) %MON dynstat_wvel_sd              =   2.5555584783941E-06
(PID.TID 0000.0001) %MON dynstat_wvel_del2            =   2.1375050631375E-08
(PID.TID 0000.0001) %MON dynstat_theta_max            =   2.0000979689016E+01
(PID.TID 0000.0001) %MON dynstat_theta_min            =   1.9966552677129E+01
(PID.TID 0000.0001) %MON dynstat_theta_mean           =   1.9999817597294E+01
(PID.TID 0000.0001) %MON dynstat_theta_sd             =   4.7391590932045E-03
(PID.TID 0000.0001) %MON dynstat_theta_del2           =   2.5653555540453E-05
(PID.TID 0000.0001) %MON dynstat_salt_max             =   3.5000000000000E+01
(PID.TID 0000.0001) %MON dynstat_salt_min             =   3.5000000000000E+01
(PID.TID 0000.0001) %MON dynstat_salt_mean            =   3.5000000000001E+01
(PID.TID 0000.0001) %MON dynstat_salt_sd              =   7.5317529990572E-13
(PID.TID 0000.0001) %MON dynstat_salt_del2            =   0.0000000000000E+00
(PID.TID 0000.0001) %MON advcfl_uvel_max              =   2.5379833905981E-05
(PID.TID 0000.0001) %MON advcfl_vvel_max              =   1.2507129104354E-04
(PID.TID 0000.0001) %MON advcfl_wvel_max              =   5.0711700453440E-04
(PID.TID 0000.0001) %MON advcfl_W_hf_max              =   5.0711700453440E-04
(PID.TID 0000.0001) %MON pe_b_mean                    =   1.4732669039500E-13
(PID.TID 0000.0001) %MON ke_max                       =   3.2145814319845E-10
(PID.TID 0000.0001) %MON ke_mean                      =   3.7843156971226E-12
(PID.TID 0000.0001) %MON ke_vol                       =   3.8082386146814E-02
(PID.TID 0000.0001) %MON vort_r_min                   =  -1.0935158156808E-04
(PID.TID 0000.0001) %MON vort_r_max                   =   1.0932089756629E-04
(PID.TID 0000.0001) %MON vort_a_mean                  =   5.0000000000203E-01
(PID.TID 0000.0001) %MON vort_a_sd                    =   4.8579670955044E-06
(PID.TID 0000.0001) %MON vort_p_mean                  =   5.1396648044902E-01
(PID.TID 0000.0001) %MON vort_p_sd                    =   1.4406477086597E-01
(PID.TID 0000.0001) %MON surfExpan_theta_mean         =   0.0000000000000E+00
(PID.TID 0000.0001) %MON surfExpan_salt_mean          =   0.0000000000000E+00
(PID.TID 0000.0001) // =======================================================
(PID.TID 0000.0001) // End MONITOR dynamic field statistics
(PID.TID 0000.0001) // =======================================================
 cg2d: Sum(rhs),rhsMax =   3.19189119579733E-15  1.27772291500881E-06
(PID.TID 0000.0001)      cg2d_init_res =   1.96231576760795E+00
(PID.TID 0000.0001)      cg2d_iters(min,last) =      -1      40
(PID.TID 0000.0001)      cg2d_last_res =   9.84319508071490E-08
 cg3d: Sum(rhs),rhsMax =  -1.73680514414798E-14  4.48252455323591E-07
(PID.TID 0000.0001)      cg3d_init_res =   6.32825951407797E+00
(PID.TID 0000.0001)      cg3d_iters (last) =                 10
(PID.TID 0000.0001)      cg3d_last_res =   7.18813744607843E-01
(PID.TID 0000.0001) // =======================================================
(PID.TID 0000.0001) // Begin MONITOR dynamic field statistics
(PID.TID 0000.0001) // =======================================================
(PID.TID 0000.0001) %MON time_tsnumber                =                     7
(PID.TID 0000.0001) %MON time_secondsf                =   7.0000000000000E-01
(PID.TID 0000.0001) %MON dynstat_eta_max              =   3.5850801658122E-08
(PID.TID 0000.0001) %MON dynstat_eta_min              =  -5.1154836585157E-07
(PID.TID 0000.0001) %MON dynstat_eta_mean             =   1.8015281857782E-08
(PID.TID 0000.0001) %MON dynstat_eta_sd               =   7.5526127257896E-08
(PID.TID 0000.0001) %MON dynstat_eta_del2             =   2.1967772810057E-09
(PID.TID 0000.0001) %MON dynstat_uvel_max             =   1.9282920730174E-06
(PID.TID 0000.0001) %MON dynstat_uvel_min             =  -1.9280647008583E-06
(PID.TID 0000.0001) %MON dynstat_uvel_mean            =   1.9580348269236E-13
(PID.TID 0000.0001) %MON dynstat_uvel_sd              =   1.7445543046576E-07
(PID.TID 0000.0001) %MON dynstat_uvel_del2            =   1.0802787414637E-09
(PID.TID 0000.0001) %MON dynstat_vvel_max             =   1.6832197404032E-05
(PID.TID 0000.0001) %MON dynstat_vvel_min             =  -1.6829662041608E-05
(PID.TID 0000.0001) %MON dynstat_vvel_mean            =   4.3859621724619E-17
(PID.TID 0000.0001) %MON dynstat_vvel_sd              =   1.4483219338601E-06
(PID.TID 0000.0001) %MON dynstat_vvel_del2            =   1.9029446319198E-09
(PID.TID 0000.0001) %MON dynstat_wvel_max             =   8.9809672055222E-06
(PID.TID 0000.0001) %MON dynstat_wvel_min             =  -3.4425145913735E-05
(PID.TID 0000.0001) %MON dynstat_wvel_mean            =   9.8422460614236E-24
(PID.TID 0000.0001) %MON dynstat_wvel_sd              =   3.3887026591186E-06
(PID.TID 0000.0001) %MON dynstat_wvel_del2            =   2.6957034392382E-08
(PID.TID 0000.0001) %MON dynstat_theta_max            =   2.0000978296354E+01
(PID.TID 0000.0001) %MON dynstat_theta_min            =   1.9961017241682E+01
(PID.TID 0000.0001) %MON dynstat_theta_mean           =   1.9999702962509E+01
(PID.TID 0000.0001) %MON dynstat_theta_sd             =   5.5196621547103E-03
(PID.TID 0000.0001) %MON dynstat_theta_del2           =   2.9756422171850E-05
(PID.TID 0000.0001) %MON dynstat_salt_max             =   3.5000000000000E+01
(PID.TID 0000.0001) %MON dynstat_salt_min             =   3.5000000000000E+01
(PID.TID 0000.0001) %MON dynstat_salt_mean            =   3.5000000000001E+01
(PID.TID 0000.0001) %MON dynstat_salt_sd              =   7.5317529990572E-13
(PID.TID 0000.0001) %MON dynstat_salt_del2            =   0.0000000000000E+00
(PID.TID 0000.0001) %MON advcfl_uvel_max              =   3.8765964018397E-05
(PID.TID 0000.0001) %MON advcfl_vvel_max              =   1.6832197404032E-04
(PID.TID 0000.0001) %MON advcfl_wvel_max              =   6.8850291827470E-04
(PID.TID 0000.0001) %MON advcfl_W_hf_max              =   6.8850291827470E-04
(PID.TID 0000.0001) %MON pe_b_mean                    =   2.0393793447209E-13
(PID.TID 0000.0001) %MON ke_max                       =   5.9254245170370E-10
(PID.TID 0000.0001) %MON ke_mean                      =   6.6590208467675E-12
(PID.TID 0000.0001) %MON ke_vol                       =   3.8082386146814E-02
(PID.TID 0000.0001) %MON vort_r_min                   =  -1.5492918987450E-04
(PID.TID 0000.0001) %MON vort_r_max                   =   1.5491057035842E-04
(PID.TID 0000.0001) %MON vort_a_mean                  =   5.0000000000203E-01
(PID.TID 0000.0001) %MON vort_a_sd                    =   7.4594750064297E-06
(PID.TID 0000.0001) %MON vort_p_mean                  =   5.1396648044902E-01
(PID.TID 0000.0001) %MON vort_p_sd                    =   1.4406477145450E-01
(PID.TID 0000.0001) %MON surfExpan_theta_mean         =   0.0000000000000E+00
(PID.TID 0000.0001) %MON surfExpan_salt_mean          =   0.0000000000000E+00
(PID.TID 0000.0001) // =======================================================
(PID.TID 0000.0001) // End MONITOR dynamic field statistics
(PID.TID 0000.0001) // =======================================================
 cg2d: Sum(rhs),rhsMax =  -8.32667268468867E-17  1.43119532145279E-06
(PID.TID 0000.0001)      cg2d_init_res =   1.74040956995110E+00
(PID.TID 0000.0001)      cg2d_iters(min,last) =      -1      40
(PID.TID 0000.0001)      cg2d_last_res =   9.52045434416074E-08
 cg3d: Sum(rhs),rhsMax =  -1.47503537162308E-14  5.01922620930339E-07
(PID.TID 0000.0001)      cg3d_init_res =   5.62060341752272E+00
(PID.TID 0000.0001)      cg3d_iters (last) =                 10
(PID.TID 0000.0001)      cg3d_last_res =   5.69235865849243E-01
(PID.TID 0000.0001) // =======================================================
(PID.TID 0000.0001) // Begin MONITOR dynamic field statistics
(PID.TID 0000.0001) // =======================================================
(PID.TID 0000.0001) %MON time_tsnumber                =                     8
(PID.TID 0000.0001) %MON time_secondsf                =   8.0000000000000E-01
(PID.TID 0000.0001) %MON dynstat_eta_max              =   4.0217114938689E-08
(PID.TID 0000.0001) %MON dynstat_eta_min              =  -5.8724192215319E-07
(PID.TID 0000.0001) %MON dynstat_eta_mean             =   2.0740124250922E-08
(PID.TID 0000.0001) %MON dynstat_eta_sd               =   8.6825431845771E-08
(PID.TID 0000.0001) %MON dynstat_eta_del2             =   2.5161283939331E-09
(PID.TID 0000.0001) %MON dynstat_uvel_max             =   2.6042922129375E-06
(PID.TID 0000.0001) %MON dynstat_uvel_min             =  -2.6039536704016E-06
(PID.TID 0000.0001) %MON dynstat_uvel_mean            =   4.4794666599490E-13
(PID.TID 0000.0001) %MON dynstat_uvel_sd              =   2.4890334437039E-07
(PID.TID 0000.0001) %MON dynstat_uvel_del2            =   1.2444428608494E-09
(PID.TID 0000.0001) %MON dynstat_vvel_max             =   2.1824425866625E-05
(PID.TID 0000.0001) %MON dynstat_vvel_min             =  -2.1819453141535E-05
(PID.TID 0000.0001) %MON dynstat_vvel_mean            =   2.4124286869129E-17
(PID.TID 0000.0001) %MON dynstat_vvel_sd              =   1.8535153103971E-06
(PID.TID 0000.0001) %MON dynstat_vvel_del2            =   2.3493634592981E-09
(PID.TID 0000.0001) %MON dynstat_wvel_max             =   1.0119723862989E-05
(PID.TID 0000.0001) %MON dynstat_wvel_min             =  -4.2055702091722E-05
(PID.TID 0000.0001) %MON dynstat_wvel_mean            =   3.5915564575019E-23
(PID.TID 0000.0001) %MON dynstat_wvel_sd              =   4.3345139742357E-06
(PID.TID 0000.0001) %MON dynstat_wvel_del2            =   3.2842719928489E-08
(PID.TID 0000.0001) %MON dynstat_theta_max            =   2.0000976902266E+01
(PID.TID 0000.0001) %MON dynstat_theta_min            =   1.9955496060339E+01
(PID.TID 0000.0001) %MON dynstat_theta_mean           =   1.9999588359480E+01
(PID.TID 0000.0001) %MON dynstat_theta_sd             =   6.2982069459278E-03
(PID.TID 0000.0001) %MON dynstat_theta_del2           =   3.3836539741977E-05
(PID.TID 0000.0001) %MON dynstat_salt_max             =   3.5000000000000E+01
(PID.TID 0000.0001) %MON dynstat_salt_min             =   3.5000000000000E+01
(PID.TID 0000.0001) %MON dynstat_salt_mean            =   3.5000000000001E+01
(PID.TID 0000.0001) %MON dynstat_salt_sd              =   7.5317529990572E-13
(PID.TID 0000.0001) %MON dynstat_salt_del2            =   0.0000000000000E+00
(PID.TID 0000.0001) %MON advcfl_uvel_max              =   5.2356123656177E-05
(PID.TID 0000.0001) %MON advcfl_vvel_max              =   2.1824425866625E-04
(PID.TID 0000.0001) %MON advcfl_wvel_max              =   8.4111404183445E-04
(PID.TID 0000.0001) %MON advcfl_W_hf_max              =   8.4111404183445E-04
(PID.TID 0000.0001) %MON pe_b_mean                    =   2.6956555207362E-13
(PID.TID 0000.0001) %MON ke_max                       =   8.8433333353250E-10
(PID.TID 0000.0001) %MON ke_mean                      =   1.0902696043918E-11
(PID.TID 0000.0001) %MON ke_vol                       =   3.8082386146814E-02
(PID.TID 0000.0001) %MON vort_r_min                   =  -2.1047484905080E-04
(PID.TID 0000.0001) %MON vort_r_max                   =   2.1038352361115E-04
(PID.TID 0000.0001) %MON vort_a_mean                  =   5.0000000000203E-01
(PID.TID 0000.0001) %MON vort_a_sd                    =   1.0872309357555E-05
(PID.TID 0000.0001) %MON vort_p_mean                  =   5.1396648044902E-01
(PID.TID 0000.0001) %MON vort_p_sd                    =   1.4406477265992E-01
(PID.TID 0000.0001) %MON surfExpan_theta_mean         =   0.0000000000000E+00
(PID.TID 0000.0001) %MON surfExpan_salt_mean          =   0.0000000000000E+00
(PID.TID 0000.0001) // =======================================================
(PID.TID 0000.0001) // End MONITOR dynamic field statistics
(PID.TID 0000.0001) // =======================================================
 cg2d: Sum(rhs),rhsMax =  -2.24820162486594E-15  1.58422887511284E-06
(PID.TID 0000.0001)      cg2d_init_res =   1.56200786618151E+00
(PID.TID 0000.0001)      cg2d_iters(min,last) =      -1      40
(PID.TID 0000.0001)      cg2d_last_res =   8.87760405489520E-08
 cg3d: Sum(rhs),rhsMax =   5.36654054528185E-14  5.55433413762345E-07
(PID.TID 0000.0001)      cg3d_init_res =   5.03830190378608E+00
(PID.TID 0000.0001)      cg3d_iters (last) =                 10
(PID.TID 0000.0001)      cg3d_last_res =   5.71305635240844E-01
(PID.TID 0000.0001) // =======================================================
(PID.TID 0000.0001) // Begin MONITOR dynamic field statistics
(PID.TID 0000.0001) // =======================================================
(PID.TID 0000.0001) %MON time_tsnumber                =                     9
(PID.TID 0000.0001) %MON time_secondsf                =   9.0000000000000E-01
(PID.TID 0000.0001) %MON dynstat_eta_max              =   4.4580751750305E-08
(PID.TID 0000.0001) %MON dynstat_eta_min              =  -6.6270713895414E-07
(PID.TID 0000.0001) %MON dynstat_eta_mean             =   2.3462895618535E-08
(PID.TID 0000.0001) %MON dynstat_eta_sd               =   9.8094939195963E-08
(PID.TID 0000.0001) %MON dynstat_eta_del2             =   2.8335743933491E-09
(PID.TID 0000.0001) %MON dynstat_uvel_max             =   3.6760231276263E-06
(PID.TID 0000.0001) %MON dynstat_uvel_min             =  -3.6751888599053E-06
(PID.TID 0000.0001) %MON dynstat_uvel_mean            =   9.1531949727820E-13
(PID.TID 0000.0001) %MON dynstat_uvel_sd              =   3.4387747427449E-07
(PID.TID 0000.0001) %MON dynstat_uvel_del2            =   1.4613787230915E-09
(PID.TID 0000.0001) %MON dynstat_vvel_max             =   2.7331231309878E-05
(PID.TID 0000.0001) %MON dynstat_vvel_min             =  -2.7322099365786E-05
(PID.TID 0000.0001) %MON dynstat_vvel_mean            =  -4.4753840192994E-18
(PID.TID 0000.0001) %MON dynstat_vvel_sd              =   2.3019649295438E-06
(PID.TID 0000.0001) %MON dynstat_vvel_del2            =   2.8062210627795E-09
(PID.TID 0000.0001) %MON dynstat_wvel_max             =   1.2216522443815E-05
(PID.TID 0000.0001) %MON dynstat_wvel_min             =  -5.2359926776574E-05
(PID.TID 0000.0001) %MON dynstat_wvel_mean            =   3.5397551624418E-23
(PID.TID 0000.0001) %MON dynstat_wvel_sd              =   5.3957564329985E-06
(PID.TID 0000.0001) %MON dynstat_wvel_del2            =   3.9461189976012E-08
(PID.TID 0000.0001) %MON dynstat_theta_max            =   2.0000975506910E+01
(PID.TID 0000.0001) %MON dynstat_theta_min            =   1.9949988679041E+01
(PID.TID 0000.0001) %MON dynstat_theta_mean           =   1.9999473788114E+01
(PID.TID 0000.0001) %MON dynstat_theta_sd             =   7.0747047562972E-03
(PID.TID 0000.0001) %MON dynstat_theta_del2           =   3.7891270003032E-05
(PID.TID 0000.0001) %MON dynstat_salt_max             =   3.5000000000000E+01
(PID.TID 0000.0001) %MON dynstat_salt_min             =   3.5000000000000E+01
(PID.TID 0000.0001) %MON dynstat_salt_mean            =   3.5000000000001E+01
(PID.TID 0000.0001) %MON dynstat_salt_sd              =   7.5317529990572E-13
(PID.TID 0000.0001) %MON dynstat_salt_del2            =   0.0000000000000E+00
(PID.TID 0000.0001) %MON advcfl_uvel_max              =   7.3901968633497E-05
(PID.TID 0000.0001) %MON advcfl_vvel_max              =   2.7331231309878E-04
(PID.TID 0000.0001) %MON advcfl_wvel_max              =   1.0471985355315E-03
(PID.TID 0000.0001) %MON advcfl_W_hf_max              =   1.0471985355315E-03
(PID.TID 0000.0001) %MON pe_b_mean                    =   3.4413224827241E-13
(PID.TID 0000.0001) %MON ke_max                       =   1.3707670539026E-09
(PID.TID 0000.0001) %MON ke_mean                      =   1.6894323709412E-11
(PID.TID 0000.0001) %MON ke_vol                       =   3.8082386146814E-02
(PID.TID 0000.0001) %MON vort_r_min                   =  -2.8303069642900E-04
(PID.TID 0000.0001) %MON vort_r_max                   =   2.8297848593095E-04
(PID.TID 0000.0001) %MON vort_a_mean                  =   5.0000000000203E-01
(PID.TID 0000.0001) %MON vort_a_sd                    =   1.5241178358465E-05
(PID.TID 0000.0001) %MON vort_p_mean                  =   5.1396648044902E-01
(PID.TID 0000.0001) %MON vort_p_sd                    =   1.4406477492348E-01
(PID.TID 0000.0001) %MON surfExpan_theta_mean         =   0.0000000000000E+00
(PID.TID 0000.0001) %MON surfExpan_salt_mean          =   0.0000000000000E+00
(PID.TID 0000.0001) // =======================================================
(PID.TID 0000.0001) // End MONITOR dynamic field statistics
(PID.TID 0000.0001) // =======================================================
 cg2d: Sum(rhs),rhsMax =  -1.94011473553246E-14  1.73680205821038E-06
(PID.TID 0000.0001)      cg2d_init_res =   1.41549308529641E+00
(PID.TID 0000.0001)      cg2d_iters(min,last) =      -1      40
(PID.TID 0000.0001)      cg2d_last_res =   7.99220464913616E-08
 cg3d: Sum(rhs),rhsMax =  -5.39221445272631E-14  6.08695691705222E-07
(PID.TID 0000.0001)      cg3d_init_res =   4.57057206607061E+00
(PID.TID 0000.0001)      cg3d_iters (last) =                 10
(PID.TID 0000.0001)      cg3d_last_res =   4.71377626178759E-01
(PID.TID 0000.0001) // =======================================================
(PID.TID 0000.0001) // Begin MONITOR dynamic field statistics
(PID.TID 0000.0001) // =======================================================
(PID.TID 0000.0001) %MON time_tsnumber                =                    10
(PID.TID 0000.0001) %MON time_secondsf                =   1.0000000000000E+00
(PID.TID 0000.0001) %MON dynstat_eta_max              =   4.8941614449611E-08
(PID.TID 0000.0001) %MON dynstat_eta_min              =  -7.3794437463145E-07
(PID.TID 0000.0001) %MON dynstat_eta_mean             =   2.6183537947083E-08
(PID.TID 0000.0001) %MON dynstat_eta_sd               =   1.0933361774296E-07
(PID.TID 0000.0001) %MON dynstat_eta_del2             =   3.1489725806932E-09
(PID.TID 0000.0001) %MON dynstat_uvel_max             =   4.7567794866414E-06
(PID.TID 0000.0001) %MON dynstat_uvel_min             =  -4.7553752413925E-06
(PID.TID 0000.0001) %MON dynstat_uvel_mean            =   1.7183397732098E-12
(PID.TID 0000.0001) %MON dynstat_uvel_sd              =   4.6007791887575E-07
(PID.TID 0000.0001) %MON dynstat_uvel_del2            =   1.6627092389209E-09
(PID.TID 0000.0001) %MON dynstat_vvel_max             =   3.3475783566639E-05
(PID.TID 0000.0001) %MON dynstat_vvel_min             =  -3.3460417626412E-05
(PID.TID 0000.0001) %MON dynstat_vvel_mean            =  -5.5037523652290E-19
(PID.TID 0000.0001) %MON dynstat_vvel_sd              =   2.7968313080862E-06
(PID.TID 0000.0001) %MON dynstat_vvel_del2            =   3.3076800853768E-09
(PID.TID 0000.0001) %MON dynstat_wvel_max             =   1.3313271799461E-05
(PID.TID 0000.0001) %MON dynstat_wvel_min             =  -6.1626225498894E-05
(PID.TID 0000.0001) %MON dynstat_wvel_mean            =  -2.5555305562995E-23
(PID.TID 0000.0001) %MON dynstat_wvel_sd              =   6.5659862955916E-06
(PID.TID 0000.0001) %MON dynstat_wvel_del2            =   4.6345893409126E-08
(PID.TID 0000.0001) %MON dynstat_theta_max            =   2.0000974110357E+01
(PID.TID 0000.0001) %MON dynstat_theta_min            =   1.9944494552315E+01
(PID.TID 0000.0001) %MON dynstat_theta_mean           =   1.9999359248322E+01
(PID.TID 0000.0001) %MON dynstat_theta_sd             =   7.8491081215029E-03
(PID.TID 0000.0001) %MON dynstat_theta_del2           =   4.1919119423630E-05
(PID.TID 0000.0001) %MON dynstat_salt_max             =   3.5000000000000E+01
(PID.TID 0000.0001) %MON dynstat_salt_min             =   3.5000000000000E+01
(PID.TID 0000.0001) %MON dynstat_salt_mean            =   3.5000000000001E+01
(PID.TID 0000.0001) %MON dynstat_salt_sd              =   7.5317529990572E-13
(PID.TID 0000.0001) %MON dynstat_salt_del2            =   0.0000000000000E+00
(PID.TID 0000.0001) %MON advcfl_uvel_max              =   9.5629259178582E-05
(PID.TID 0000.0001) %MON advcfl_vvel_max              =   3.3475783566639E-04
(PID.TID 0000.0001) %MON advcfl_wvel_max              =   1.2325245099779E-03
(PID.TID 0000.0001) %MON advcfl_W_hf_max              =   1.2325245099779E-03
(PID.TID 0000.0001) %MON pe_b_mean                    =   4.2756098942259E-13
(PID.TID 0000.0001) %MON ke_max                       =   1.8988677152761E-09
(PID.TID 0000.0001) %MON ke_mean                      =   2.5023621097351E-11
(PID.TID 0000.0001) %MON ke_vol                       =   3.8082386146814E-02
(PID.TID 0000.0001) %MON vort_r_min                   =  -3.6621519376500E-04
(PID.TID 0000.0001) %MON vort_r_max                   =   3.6603090907282E-04
(PID.TID 0000.0001) %MON vort_a_mean                  =   5.0000000000203E-01
(PID.TID 0000.0001) %MON vort_a_sd                    =   2.0622396879564E-05
(PID.TID 0000.0001) %MON vort_p_mean                  =   5.1396648044902E-01
(PID.TID 0000.0001) %MON vort_p_sd                    =   1.4406477884740E-01
(PID.TID 0000.0001) %MON surfExpan_theta_mean         =   0.0000000000000E+00
(PID.TID 0000.0001) %MON surfExpan_salt_mean          =   0.0000000000000E+00
(PID.TID 0000.0001) // =======================================================
(PID.TID 0000.0001) // End MONITOR dynamic field statistics
(PID.TID 0000.0001) // =======================================================
 cg2d: Sum(rhs),rhsMax =   5.82867087928207E-16  1.88890971635263E-06
(PID.TID 0000.0001)      cg2d_init_res =   1.29303408025145E+00
(PID.TID 0000.0001)      cg2d_iters(min,last) =      -1      39
(PID.TID 0000.0001)      cg2d_last_res =   9.14137988929502E-08
 cg3d: Sum(rhs),rhsMax =   9.81853487402873E-15  6.61765210901750E-07
(PID.TID 0000.0001)      cg3d_init_res =   4.17174462765102E+00
(PID.TID 0000.0001)      cg3d_iters (last) =                 10
(PID.TID 0000.0001)      cg3d_last_res =   4.67556996425448E-01
(PID.TID 0000.0001) // =======================================================
(PID.TID 0000.0001) // Begin MONITOR dynamic field statistics
(PID.TID 0000.0001) // =======================================================
(PID.TID 0000.0001) %MON time_tsnumber                =                    11
(PID.TID 0000.0001) %MON time_secondsf                =   1.1000000000000E+00
(PID.TID 0000.0001) %MON dynstat_eta_max              =   5.3299610450280E-08
(PID.TID 0000.0001) %MON dynstat_eta_min              =  -8.1295323026930E-07
(PID.TID 0000.0001) %MON dynstat_eta_mean             =   2.8901994132882E-08
(PID.TID 0000.0001) %MON dynstat_eta_sd               =   1.2054083723991E-07
(PID.TID 0000.0001) %MON dynstat_eta_del2             =   3.4622419759152E-09
(PID.TID 0000.0001) %MON dynstat_uvel_max             =   6.2581117834678E-06
(PID.TID 0000.0001) %MON dynstat_uvel_min             =  -6.2553850941074E-06
(PID.TID 0000.0001) %MON dynstat_uvel_mean            =   3.0213796515497E-12
(PID.TID 0000.0001) %MON dynstat_uvel_sd              =   6.0066370580706E-07
(PID.TID 0000.0001) %MON dynstat_uvel_del2            =   1.9350582011322E-09
(PID.TID 0000.0001) %MON dynstat_vvel_max             =   4.0108904967591E-05
(PID.TID 0000.0001) %MON dynstat_vvel_min             =  -4.0084030391588E-05
(PID.TID 0000.0001) %MON dynstat_vvel_mean            =   1.2348780361957E-17
(PID.TID 0000.0001) %MON dynstat_vvel_sd              =   3.3341280009002E-06
(PID.TID 0000.0001) %MON dynstat_vvel_del2            =   3.8243225046531E-09
(PID.TID 0000.0001) %MON dynstat_wvel_max             =   1.5447658644102E-05
(PID.TID 0000.0001) %MON dynstat_wvel_min             =  -7.3235630080866E-05
(PID.TID 0000.0001) %MON dynstat_wvel_mean            =   6.5614973742824E-23
(PID.TID 0000.0001) %MON dynstat_wvel_sd              =   7.8520270336657E-06
(PID.TID 0000.0001) %MON dynstat_wvel_del2            =   5.3987595185013E-08
(PID.TID 0000.0001) %MON dynstat_theta_max            =   2.0000972712788E+01
(PID.TID 0000.0001) %MON dynstat_theta_min            =   1.9939013147982E+01
(PID.TID 0000.0001) %MON dynstat_theta_mean           =   1.9999244740012E+01
(PID.TID 0000.0001) %MON dynstat_theta_sd             =   8.6213920423179E-03
(PID.TID 0000.0001) %MON dynstat_theta_del2           =   4.5919222758139E-05
(PID.TID 0000.0001) %MON dynstat_salt_max             =   3.5000000000000E+01
(PID.TID 0000.0001) %MON dynstat_salt_min             =   3.5000000000000E+01
(PID.TID 0000.0001) %MON dynstat_salt_mean            =   3.5000000000001E+01
(PID.TID 0000.0001) %MON dynstat_salt_sd              =   7.5317529990572E-13
(PID.TID 0000.0001) %MON dynstat_salt_del2            =   0.0000000000000E+00
(PID.TID 0000.0001) %MON advcfl_uvel_max              =   1.2581171681186E-04
(PID.TID 0000.0001) %MON advcfl_vvel_max              =   4.0108904967591E-04
(PID.TID 0000.0001) %MON advcfl_wvel_max              =   1.4647126016173E-03
(PID.TID 0000.0001) %MON advcfl_W_hf_max              =   1.4647126016173E-03
(PID.TID 0000.0001) %MON pe_b_mean                    =   5.1977502592815E-13
(PID.TID 0000.0001) %MON ke_max                       =   2.6816824292738E-09
(PID.TID 0000.0001) %MON ke_mean                      =   3.5781618972370E-11
(PID.TID 0000.0001) %MON ke_vol                       =   3.8082386146814E-02
(PID.TID 0000.0001) %MON vort_r_min                   =  -4.6921555189422E-04
(PID.TID 0000.0001) %MON vort_r_max                   =   4.6911433633313E-04
(PID.TID 0000.0001) %MON vort_a_mean                  =   5.0000000000202E-01
(PID.TID 0000.0001) %MON vort_a_sd                    =   2.7152903737004E-05
(PID.TID 0000.0001) %MON vort_p_mean                  =   5.1396648044901E-01
(PID.TID 0000.0001) %MON vort_p_sd                    =   1.4406478529439E-01
(PID.TID 0000.0001) %MON surfExpan_theta_mean         =   0.0000000000000E+00
(PID.TID 0000.0001) %MON surfExpan_salt_mean          =   0.0000000000000E+00
(PID.TID 0000.0001) // =======================================================
(PID.TID 0000.0001) // End MONITOR dynamic field statistics
(PID.TID 0000.0001) // =======================================================
 cg2d: Sum(rhs),rhsMax =  -4.21884749357559E-15  2.04139873463459E-06
(PID.TID 0000.0001)      cg2d_init_res =   1.18867404242422E+00
(PID.TID 0000.0001)      cg2d_iters(min,last) =      -1      39
(PID.TID 0000.0001)      cg2d_last_res =   8.35768393946006E-08
 cg3d: Sum(rhs),rhsMax =  -3.33170990796106E-14  7.15066111492602E-07
(PID.TID 0000.0001)      cg3d_init_res =   3.83681557470321E+00
(PID.TID 0000.0001)      cg3d_iters (last) =                 10
(PID.TID 0000.0001)      cg3d_last_res =   4.01123928160945E-01
(PID.TID 0000.0001) // =======================================================
(PID.TID 0000.0001) // Begin MONITOR dynamic field statistics
(PID.TID 0000.0001) // =======================================================
(PID.TID 0000.0001) %MON time_tsnumber                =                    12
(PID.TID 0000.0001) %MON time_secondsf                =   1.2000000000000E+00
(PID.TID 0000.0001) %MON dynstat_eta_max              =   5.7654624425838E-08
(PID.TID 0000.0001) %MON dynstat_eta_min              =  -8.8773392153067E-07
(PID.TID 0000.0001) %MON dynstat_eta_mean             =   3.1618192492963E-08
(PID.TID 0000.0001) %MON dynstat_eta_sd               =   1.3171617849236E-07
(PID.TID 0000.0001) %MON dynstat_eta_del2             =   3.7733373381358E-09
(PID.TID 0000.0001) %MON dynstat_uvel_max             =   7.8195800358499E-06
(PID.TID 0000.0001) %MON dynstat_uvel_min             =  -7.8150462585981E-06
(PID.TID 0000.0001) %MON dynstat_uvel_mean            =   5.0384635808759E-12
(PID.TID 0000.0001) %MON dynstat_uvel_sd              =   7.6646082916454E-07
(PID.TID 0000.0001) %MON dynstat_uvel_del2            =   2.2143407346891E-09
(PID.TID 0000.0001) %MON dynstat_vvel_max             =   4.7354140054305E-05
(PID.TID 0000.0001) %MON dynstat_vvel_min             =  -4.7316118975557E-05
(PID.TID 0000.0001) %MON dynstat_vvel_mean            =  -6.2142288220438E-17
(PID.TID 0000.0001) %MON dynstat_vvel_sd              =   3.9162025077722E-06
(PID.TID 0000.0001) %MON dynstat_vvel_del2            =   4.3796548665121E-09
(PID.TID 0000.0001) %MON dynstat_wvel_max             =   1.6563117699927E-05
(PID.TID 0000.0001) %MON dynstat_wvel_min             =  -8.4027437886489E-05
(PID.TID 0000.0001) %MON dynstat_wvel_mean            =   9.8940473564837E-23
(PID.TID 0000.0001) %MON dynstat_wvel_sd              =   9.2456584467423E-06
(PID.TID 0000.0001) %MON dynstat_wvel_del2            =   6.1986028741771E-08
(PID.TID 0000.0001) %MON dynstat_theta_max            =   2.0000971314250E+01
(PID.TID 0000.0001) %MON dynstat_theta_min            =   1.9933543836014E+01
(PID.TID 0000.0001) %MON dynstat_theta_mean           =   1.9999130263096E+01
(PID.TID 0000.0001) %MON dynstat_theta_sd             =   9.3915445814004E-03
(PID.TID 0000.0001) %MON dynstat_theta_del2           =   4.9891082278078E-05
(PID.TID 0000.0001) %MON dynstat_salt_max             =   3.5000000000000E+01
(PID.TID 0000.0001) %MON dynstat_salt_min             =   3.5000000000000E+01
(PID.TID 0000.0001) %MON dynstat_salt_mean            =   3.5000000000001E+01
(PID.TID 0000.0001) %MON dynstat_salt_sd              =   7.5317529990572E-13
(PID.TID 0000.0001) %MON dynstat_salt_del2            =   0.0000000000000E+00
(PID.TID 0000.0001) %MON advcfl_uvel_max              =   1.5720313460314E-04
(PID.TID 0000.0001) %MON advcfl_vvel_max              =   4.7354140054305E-04
(PID.TID 0000.0001) %MON advcfl_wvel_max              =   1.6805487577298E-03
(PID.TID 0000.0001) %MON advcfl_W_hf_max              =   1.6805487577298E-03
(PID.TID 0000.0001) %MON pe_b_mean                    =   6.2069770342977E-13
(PID.TID 0000.0001) %MON ke_max                       =   3.5302240630696E-09
(PID.TID 0000.0001) %MON ke_mean                      =   4.9617676633646E-11
(PID.TID 0000.0001) %MON ke_vol                       =   3.8082386146814E-02
(PID.TID 0000.0001) %MON vort_r_min                   =  -5.8652392629988E-04
(PID.TID 0000.0001) %MON vort_r_max                   =   5.8623147471629E-04
(PID.TID 0000.0001) %MON vort_a_mean                  =   5.0000000000202E-01
(PID.TID 0000.0001) %MON vort_a_sd                    =   3.4897067227002E-05
(PID.TID 0000.0001) %MON vort_p_mean                  =   5.1396648044901E-01
(PID.TID 0000.0001) %MON vort_p_sd                    =   1.4406479536502E-01
(PID.TID 0000.0001) %MON surfExpan_theta_mean         =   0.0000000000000E+00
(PID.TID 0000.0001) %MON surfExpan_salt_mean          =   0.0000000000000E+00
(PID.TID 0000.0001) // =======================================================
(PID.TID 0000.0001) // End MONITOR dynamic field statistics
(PID.TID 0000.0001) // =======================================================
 cg2d: Sum(rhs),rhsMax =   5.66213742558830E-15  2.19372472317868E-06
(PID.TID 0000.0001)      cg2d_init_res =   1.09896605923029E+00
(PID.TID 0000.0001)      cg2d_iters(min,last) =      -1      39
(PID.TID 0000.0001)      cg2d_last_res =   7.83325037234730E-08
 cg3d: Sum(rhs),rhsMax =  -1.35325778360951E-14  7.68063987409605E-07
(PID.TID 0000.0001)      cg3d_init_res =   3.54559241541905E+00
(PID.TID 0000.0001)      cg3d_iters (last) =                 10
(PID.TID 0000.0001)      cg3d_last_res =   3.92890133282009E-01
(PID.TID 0000.0001) // =======================================================
(PID.TID 0000.0001) // Begin MONITOR dynamic field statistics
(PID.TID 0000.0001) // =======================================================
(PID.TID 0000.0001) %MON time_tsnumber                =                    13
(PID.TID 0000.0001) %MON time_secondsf                =   1.3000000000000E+00
(PID.TID 0000.0001) %MON dynstat_eta_max              =   6.2006540997113E-08
(PID.TID 0000.0001) %MON dynstat_eta_min              =  -9.6228580333802E-07
(PID.TID 0000.0001) %MON dynstat_eta_mean             =   3.4332063368521E-08
(PID.TID 0000.0001) %MON dynstat_eta_sd               =   1.4285935326575E-07
(PID.TID 0000.0001) %MON dynstat_eta_del2             =   4.0822347486253E-09
(PID.TID 0000.0001) %MON dynstat_uvel_max             =   9.8300515954142E-06
(PID.TID 0000.0001) %MON dynstat_uvel_min             =  -9.8223525239915E-06
(PID.TID 0000.0001) %MON dynstat_uvel_mean            =   8.0457239993917E-12
(PID.TID 0000.0001) %MON dynstat_uvel_sd              =   9.6031986234852E-07
(PID.TID 0000.0001) %MON dynstat_uvel_del2            =   2.5735291785476E-09
(PID.TID 0000.0001) %MON dynstat_vvel_max             =   5.5058509806529E-05
(PID.TID 0000.0001) %MON dynstat_vvel_min             =  -5.5001839496787E-05
(PID.TID 0000.0001) %MON dynstat_vvel_mean            =   6.9695726708987E-17
(PID.TID 0000.0001) %MON dynstat_vvel_sd              =   4.5396066449055E-06
(PID.TID 0000.0001) %MON dynstat_vvel_del2            =   4.9511564313374E-09
(PID.TID 0000.0001) %MON dynstat_wvel_max             =   1.8787808496644E-05
(PID.TID 0000.0001) %MON dynstat_wvel_min             =  -9.7088009382755E-05
(PID.TID 0000.0001) %MON dynstat_wvel_mean            =   1.3071193453505E-22
(PID.TID 0000.0001) %MON dynstat_wvel_sd              =   1.0752635860607E-05
(PID.TID 0000.0001) %MON dynstat_wvel_del2            =   7.0666522202736E-08
(PID.TID 0000.0001) %MON dynstat_theta_max            =   2.0000969914933E+01
(PID.TID 0000.0001) %MON dynstat_theta_min            =   1.9928086013684E+01
(PID.TID 0000.0001) %MON dynstat_theta_mean           =   1.9999015817483E+01
(PID.TID 0000.0001) %MON dynstat_theta_sd             =   1.0159561796101E-02
(PID.TID 0000.0001) %MON dynstat_theta_del2           =   5.3834426396615E-05
(PID.TID 0000.0001) %MON dynstat_salt_max             =   3.5000000000000E+01
(PID.TID 0000.0001) %MON dynstat_salt_min             =   3.5000000000000E+01
(PID.TID 0000.0001) %MON dynstat_salt_mean            =   3.5000000000001E+01
(PID.TID 0000.0001) %MON dynstat_salt_sd              =   7.5317529990572E-13
(PID.TID 0000.0001) %MON dynstat_salt_del2            =   0.0000000000000E+00
(PID.TID 0000.0001) %MON advcfl_uvel_max              =   1.9762121712739E-04
(PID.TID 0000.0001) %MON advcfl_vvel_max              =   5.5058509806529E-04
(PID.TID 0000.0001) %MON advcfl_wvel_max              =   1.9417601876551E-03
(PID.TID 0000.0001) %MON advcfl_W_hf_max              =   1.9417601876551E-03
(PID.TID 0000.0001) %MON pe_b_mean                    =   7.3025252304227E-13
(PID.TID 0000.0001) %MON ke_max                       =   4.7129158376895E-09
(PID.TID 0000.0001) %MON ke_mean                      =   6.7109629004511E-11
(PID.TID 0000.0001) %MON ke_vol                       =   3.8082386146814E-02
(PID.TID 0000.0001) %MON vort_r_min                   =  -7.2457467590094E-04
(PID.TID 0000.0001) %MON vort_r_max                   =   7.2442625218056E-04
(PID.TID 0000.0001) %MON vort_a_mean                  =   5.0000000000201E-01
(PID.TID 0000.0001) %MON vort_a_sd                    =   4.3978021863514E-05
(PID.TID 0000.0001) %MON vort_p_mean                  =   5.1396648044900E-01
(PID.TID 0000.0001) %MON vort_p_sd                    =   1.4406481052769E-01
(PID.TID 0000.0001) %MON surfExpan_theta_mean         =   0.0000000000000E+00
(PID.TID 0000.0001) %MON surfExpan_salt_mean          =   0.0000000000000E+00
(PID.TID 0000.0001) // =======================================================
(PID.TID 0000.0001) // End MONITOR dynamic field statistics
(PID.TID 0000.0001) // =======================================================
 cg2d: Sum(rhs),rhsMax =   1.15740750317173E-14  2.34545764005196E-06
(PID.TID 0000.0001)      cg2d_init_res =   1.02122430467133E+00
(PID.TID 0000.0001)      cg2d_iters(min,last) =      -1      39
(PID.TID 0000.0001)      cg2d_last_res =   7.49188489656666E-08
 cg3d: Sum(rhs),rhsMax =   6.38655794915621E-14  8.20812065199411E-07
(PID.TID 0000.0001)      cg3d_init_res =   3.29644085519921E+00
(PID.TID 0000.0001)      cg3d_iters (last) =                 10
(PID.TID 0000.0001)      cg3d_last_res =   3.47608129352835E-01
(PID.TID 0000.0001) // =======================================================
(PID.TID 0000.0001) // Begin MONITOR dynamic field statistics
(PID.TID 0000.0001) // =======================================================
(PID.TID 0000.0001) %MON time_tsnumber                =                    14
(PID.TID 0000.0001) %MON time_secondsf                =   1.4000000000000E+00
(PID.TID 0000.0001) %MON dynstat_eta_max              =   6.6355220092273E-08
(PID.TID 0000.0001) %MON dynstat_eta_min              =  -1.0366089407828E-06
(PID.TID 0000.0001) %MON dynstat_eta_mean             =   3.7043521770242E-08
(PID.TID 0000.0001) %MON dynstat_eta_sd               =   1.5397013940814E-07
(PID.TID 0000.0001) %MON dynstat_eta_del2             =   4.3889241734773E-09
(PID.TID 0000.0001) %MON dynstat_uvel_max             =   1.1947530209859E-05
(PID.TID 0000.0001) %MON dynstat_uvel_min             =  -1.1935410530180E-05
(PID.TID 0000.0001) %MON dynstat_uvel_mean            =   1.2386356424849E-11
(PID.TID 0000.0001) %MON dynstat_uvel_sd              =   1.1832681645405E-06
(PID.TID 0000.0001) %MON dynstat_uvel_del2            =   2.9643560738430E-09
(PID.TID 0000.0001) %MON dynstat_vvel_max             =   6.3352646238616E-05
(PID.TID 0000.0001) %MON dynstat_vvel_min             =  -6.3271570342699E-05
(PID.TID 0000.0001) %MON dynstat_vvel_mean            =  -1.9293714758692E-17
(PID.TID 0000.0001) %MON dynstat_vvel_sd              =   5.2061383375268E-06
(PID.TID 0000.0001) %MON dynstat_vvel_del2            =   5.5586792601691E-09
(PID.TID 0000.0001) %MON dynstat_wvel_max             =   2.0861745142171E-05
(PID.TID 0000.0001) %MON dynstat_wvel_min             =  -1.0940115134073E-04
(PID.TID 0000.0001) %MON dynstat_wvel_mean            =   5.1110611125989E-23
(PID.TID 0000.0001) %MON dynstat_wvel_sd              =   1.2366225464087E-05
(PID.TID 0000.0001) %MON dynstat_wvel_del2            =   7.9805355085083E-08
(PID.TID 0000.0001) %MON dynstat_theta_max            =   2.0000968514873E+01
(PID.TID 0000.0001) %MON dynstat_theta_min            =   1.9922638977070E+01
(PID.TID 0000.0001) %MON dynstat_theta_mean           =   1.9998901403084E+01
(PID.TID 0000.0001) %MON dynstat_theta_sd             =   1.0925444841051E-02
(PID.TID 0000.0001) %MON dynstat_theta_del2           =   5.7749128485170E-05
(PID.TID 0000.0001) %MON dynstat_salt_max             =   3.5000000000000E+01
(PID.TID 0000.0001) %MON dynstat_salt_min             =   3.5000000000000E+01
(PID.TID 0000.0001) %MON dynstat_salt_mean            =   3.5000000000001E+01
(PID.TID 0000.0001) %MON dynstat_salt_sd              =   7.5317529990572E-13
(PID.TID 0000.0001) %MON dynstat_salt_del2            =   0.0000000000000E+00
(PID.TID 0000.0001) %MON advcfl_uvel_max              =   2.4019054618595E-04
(PID.TID 0000.0001) %MON advcfl_vvel_max              =   6.3352646238616E-04
(PID.TID 0000.0001) %MON advcfl_wvel_max              =   2.1880230268146E-03
(PID.TID 0000.0001) %MON advcfl_W_hf_max              =   2.1880230268146E-03
(PID.TID 0000.0001) %MON pe_b_mean                    =   8.4836292531554E-13
(PID.TID 0000.0001) %MON ke_max                       =   5.9841043074183E-09
(PID.TID 0000.0001) %MON ke_mean                      =   8.8779462580751E-11
(PID.TID 0000.0001) %MON ke_vol                       =   3.8082386146814E-02
(PID.TID 0000.0001) %MON vort_r_min                   =  -8.8220878396867E-04
(PID.TID 0000.0001) %MON vort_r_max                   =   8.8182565868402E-04
(PID.TID 0000.0001) %MON vort_a_mean                  =   5.0000000000200E-01
(PID.TID 0000.0001) %MON vort_a_sd                    =   5.4466076114740E-05
(PID.TID 0000.0001) %MON vort_p_mean                  =   5.1396648044899E-01
(PID.TID 0000.0001) %MON vort_p_sd                    =   1.4406483258095E-01
(PID.TID 0000.0001) %MON surfExpan_theta_mean         =   0.0000000000000E+00
(PID.TID 0000.0001) %MON surfExpan_salt_mean          =   0.0000000000000E+00
(PID.TID 0000.0001) // =======================================================
(PID.TID 0000.0001) // End MONITOR dynamic field statistics
(PID.TID 0000.0001) // =======================================================
 cg2d: Sum(rhs),rhsMax =  -3.46944695195361E-16  2.49657973288545E-06
(PID.TID 0000.0001)      cg2d_init_res =   9.53217791332712E-01
(PID.TID 0000.0001)      cg2d_iters(min,last) =      -1      39
(PID.TID 0000.0001)      cg2d_last_res =   7.27462260609201E-08
 cg3d: Sum(rhs),rhsMax =   4.58261900648793E-14  8.73236658598091E-07
(PID.TID 0000.0001)      cg3d_init_res =   3.07597538722592E+00
(PID.TID 0000.0001)      cg3d_iters (last) =                 10
(PID.TID 0000.0001)      cg3d_last_res =   3.37446865330537E-01
(PID.TID 0000.0001) // =======================================================
(PID.TID 0000.0001) // Begin MONITOR dynamic field statistics
(PID.TID 0000.0001) // =======================================================
(PID.TID 0000.0001) %MON time_tsnumber                =                    15
(PID.TID 0000.0001) %MON time_secondsf                =   1.5000000000000E+00
(PID.TID 0000.0001) %MON dynstat_eta_max              =   7.0700515609403E-08
(PID.TID 0000.0001) %MON dynstat_eta_min              =  -1.1107024845248E-06
(PID.TID 0000.0001) %MON dynstat_eta_mean             =   3.9752485744905E-08
(PID.TID 0000.0001) %MON dynstat_eta_sd               =   1.6504836331086E-07
(PID.TID 0000.0001) %MON dynstat_eta_del2             =   4.6934044260886E-09
(PID.TID 0000.0001) %MON dynstat_uvel_max             =   1.4539741447947E-05
(PID.TID 0000.0001) %MON dynstat_uvel_min             =  -1.4520783417682E-05
(PID.TID 0000.0001) %MON dynstat_uvel_mean            =   1.8485928276955E-11
(PID.TID 0000.0001) %MON dynstat_uvel_sd              =   1.4378610279749E-06
(PID.TID 0000.0001) %MON dynstat_uvel_del2            =   3.4394709757994E-09
(PID.TID 0000.0001) %MON dynstat_vvel_max             =   7.2075697196767E-05
(PID.TID 0000.0001) %MON dynstat_vvel_min             =  -7.1961668415050E-05
(PID.TID 0000.0001) %MON dynstat_vvel_mean            =   4.4045580344627E-17
(PID.TID 0000.0001) %MON dynstat_vvel_sd              =   5.9126809233445E-06
(PID.TID 0000.0001) %MON dynstat_vvel_del2            =   6.1817736584864E-09
(PID.TID 0000.0001) %MON dynstat_wvel_max             =   2.3635724704518E-05
(PID.TID 0000.0001) %MON dynstat_wvel_min             =  -1.2398899650894E-04
(PID.TID 0000.0001) %MON dynstat_wvel_mean            =   1.4504362616835E-22
(PID.TID 0000.0001) %MON dynstat_wvel_sd              =   1.4089963227810E-05
(PID.TID 0000.0001) %MON dynstat_wvel_del2            =   8.9539758335059E-08
(PID.TID 0000.0001) %MON dynstat_theta_max            =   2.0000967114258E+01
(PID.TID 0000.0001) %MON dynstat_theta_min            =   1.9917202059500E+01
(PID.TID 0000.0001) %MON dynstat_theta_mean           =   1.9998787019811E+01
(PID.TID 0000.0001) %MON dynstat_theta_sd             =   1.1689198229542E-02
(PID.TID 0000.0001) %MON dynstat_theta_del2           =   6.1635157975505E-05
(PID.TID 0000.0001) %MON dynstat_salt_max             =   3.5000000000000E+01
(PID.TID 0000.0001) %MON dynstat_salt_min             =   3.5000000000000E+01
(PID.TID 0000.0001) %MON dynstat_salt_mean            =   3.5000000000001E+01
(PID.TID 0000.0001) %MON dynstat_salt_sd              =   7.5317529990572E-13
(PID.TID 0000.0001) %MON dynstat_salt_del2            =   0.0000000000000E+00
(PID.TID 0000.0001) %MON advcfl_uvel_max              =   2.9230379655396E-04
(PID.TID 0000.0001) %MON advcfl_vvel_max              =   7.2075697196767E-04
(PID.TID 0000.0001) %MON advcfl_wvel_max              =   2.4797799301788E-03
(PID.TID 0000.0001) %MON advcfl_W_hf_max              =   2.4797799301788E-03
(PID.TID 0000.0001) %MON pe_b_mean                    =   9.7495238378479E-13
(PID.TID 0000.0001) %MON ke_max                       =   7.6863388533708E-09
(PID.TID 0000.0001) %MON ke_mean                      =   1.1527117088299E-10
(PID.TID 0000.0001) %MON ke_vol                       =   3.8082386146814E-02
(PID.TID 0000.0001) %MON vort_r_min                   =  -1.0603300142063E-03
(PID.TID 0000.0001) %MON vort_r_max                   =   1.0601574589417E-03
(PID.TID 0000.0001) %MON vort_a_mean                  =   5.0000000000199E-01
(PID.TID 0000.0001) %MON vort_a_sd                    =   6.6473030382352E-05
(PID.TID 0000.0001) %MON vort_p_mean                  =   5.1396648044898E-01
(PID.TID 0000.0001) %MON vort_p_sd                    =   1.4406486380727E-01
(PID.TID 0000.0001) %MON surfExpan_theta_mean         =   0.0000000000000E+00
(PID.TID 0000.0001) %MON surfExpan_salt_mean          =   0.0000000000000E+00
(PID.TID 0000.0001) // =======================================================
(PID.TID 0000.0001) // End MONITOR dynamic field statistics
(PID.TID 0000.0001) // =======================================================
 cg2d: Sum(rhs),rhsMax =  -1.08246744900953E-14  2.64710054173958E-06
(PID.TID 0000.0001)      cg2d_init_res =   8.93228757965060E-01
(PID.TID 0000.0001)      cg2d_iters(min,last) =      -1      38
(PID.TID 0000.0001)      cg2d_last_res =   9.80675345238647E-08
 cg3d: Sum(rhs),rhsMax =   8.75983313664008E-14  9.25397573381812E-07
(PID.TID 0000.0001)      cg3d_init_res =   2.88351713776680E+00
(PID.TID 0000.0001)      cg3d_iters (last) =                 10
(PID.TID 0000.0001)      cg3d_last_res =   3.04970219921672E-01
(PID.TID 0000.0001) // =======================================================
(PID.TID 0000.0001) // Begin MONITOR dynamic field statistics
(PID.TID 0000.0001) // =======================================================
(PID.TID 0000.0001) %MON time_tsnumber                =                    16
(PID.TID 0000.0001) %MON time_secondsf                =   1.6000000000000E+00
(PID.TID 0000.0001) %MON dynstat_eta_max              =   7.5042268945676E-08
(PID.TID 0000.0001) %MON dynstat_eta_min              =  -1.1845663290868E-06
(PID.TID 0000.0001) %MON dynstat_eta_mean             =   4.2458857165017E-08
(PID.TID 0000.0001) %MON dynstat_eta_sd               =   1.7609386824682E-07
(PID.TID 0000.0001) %MON dynstat_eta_del2             =   4.9956806487077E-09
(PID.TID 0000.0001) %MON dynstat_uvel_max             =   1.7283575572039E-05
(PID.TID 0000.0001) %MON dynstat_uvel_min             =  -1.7255342308630E-05
(PID.TID 0000.0001) %MON dynstat_uvel_mean            =   2.6855971166479E-11
(PID.TID 0000.0001) %MON dynstat_uvel_sd              =   1.7252533138055E-06
(PID.TID 0000.0001) %MON dynstat_uvel_del2            =   3.9657432147469E-09
(PID.TID 0000.0001) %MON dynstat_vvel_max             =   8.1366876378556E-05
(PID.TID 0000.0001) %MON dynstat_vvel_min             =  -8.1211432690299E-05
(PID.TID 0000.0001) %MON dynstat_vvel_mean            =  -1.5457718656123E-17
(PID.TID 0000.0001) %MON dynstat_vvel_sd              =   6.6606751651812E-06
(PID.TID 0000.0001) %MON dynstat_vvel_del2            =   6.8396076098428E-09
(PID.TID 0000.0001) %MON dynstat_wvel_max             =   2.5933276962742E-05
(PID.TID 0000.0001) %MON dynstat_wvel_min             =  -1.3890737412646E-04
(PID.TID 0000.0001) %MON dynstat_wvel_mean            =  -7.8737968491389E-23
(PID.TID 0000.0001) %MON dynstat_wvel_sd              =   1.5918930291390E-05
(PID.TID 0000.0001) %MON dynstat_wvel_del2            =   9.9802241159816E-08
(PID.TID 0000.0001) %MON dynstat_theta_max            =   2.0000965713120E+01
(PID.TID 0000.0001) %MON dynstat_theta_min            =   1.9911774492186E+01
(PID.TID 0000.0001) %MON dynstat_theta_mean           =   1.9998672667576E+01
(PID.TID 0000.0001) %MON dynstat_theta_sd             =   1.2450828746148E-02
(PID.TID 0000.0001) %MON dynstat_theta_del2           =   6.5492549711615E-05
(PID.TID 0000.0001) %MON dynstat_salt_max             =   3.5000000000000E+01
(PID.TID 0000.0001) %MON dynstat_salt_min             =   3.5000000000000E+01
(PID.TID 0000.0001) %MON dynstat_salt_mean            =   3.5000000000001E+01
(PID.TID 0000.0001) %MON dynstat_salt_sd              =   7.5317529990572E-13
(PID.TID 0000.0001) %MON dynstat_salt_del2            =   0.0000000000000E+00
(PID.TID 0000.0001) %MON advcfl_uvel_max              =   3.4746524041167E-04
(PID.TID 0000.0001) %MON advcfl_vvel_max              =   8.1366876378556E-04
(PID.TID 0000.0001) %MON advcfl_wvel_max              =   2.7781474825292E-03
(PID.TID 0000.0001) %MON advcfl_W_hf_max              =   2.7781474825292E-03
(PID.TID 0000.0001) %MON pe_b_mean                    =   1.1099441617641E-12
(PID.TID 0000.0001) %MON ke_max                       =   9.6471833424558E-09
(PID.TID 0000.0001) %MON ke_mean                      =   1.4718384176649E-10
(PID.TID 0000.0001) %MON ke_vol                       =   3.8082386146814E-02
(PID.TID 0000.0001) %MON vort_r_min                   =  -1.2635444788178E-03
(PID.TID 0000.0001) %MON vort_r_max                   =   1.2631173550698E-03
(PID.TID 0000.0001) %MON vort_a_mean                  =   5.0000000000196E-01
(PID.TID 0000.0001) %MON vort_a_sd                    =   8.0072002870758E-05
(PID.TID 0000.0001) %MON vort_p_mean                  =   5.1396648044895E-01
(PID.TID 0000.0001) %MON vort_p_sd                    =   1.4406490692297E-01
(PID.TID 0000.0001) %MON surfExpan_theta_mean         =   0.0000000000000E+00
(PID.TID 0000.0001) %MON surfExpan_salt_mean          =   0.0000000000000E+00
(PID.TID 0000.0001) // =======================================================
(PID.TID 0000.0001) // End MONITOR dynamic field statistics
(PID.TID 0000.0001) // =======================================================
 cg2d: Sum(rhs),rhsMax =   3.52565199257526E-14  2.79700182031473E-06
(PID.TID 0000.0001)      cg2d_init_res =   8.39929075620563E-01
(PID.TID 0000.0001)      cg2d_iters(min,last) =      -1      38
(PID.TID 0000.0001)      cg2d_last_res =   9.53947516405879E-08
 cg3d: Sum(rhs),rhsMax =   4.40533026724310E-14  9.77209347403795E-07
(PID.TID 0000.0001)      cg3d_init_res =   2.71087280370883E+00
(PID.TID 0000.0001)      cg3d_iters (last) =                 10
(PID.TID 0000.0001)      cg3d_last_res =   2.94547113271172E-01
(PID.TID 0000.0001) // =======================================================
(PID.TID 0000.0001) // Begin MONITOR dynamic field statistics
(PID.TID 0000.0001) // =======================================================
(PID.TID 0000.0001) %MON time_tsnumber                =                    17
(PID.TID 0000.0001) %MON time_secondsf                =   1.7000000000000E+00
(PID.TID 0000.0001) %MON dynstat_eta_max              =   7.9380267659051E-08
(PID.TID 0000.0001) %MON dynstat_eta_min              =  -1.2581994724935E-06
(PID.TID 0000.0001) %MON dynstat_eta_mean             =   4.5162542079050E-08
(PID.TID 0000.0001) %MON dynstat_eta_sd               =   1.8710651545863E-07
(PID.TID 0000.0001) %MON dynstat_eta_del2             =   5.2957621417827E-09
(PID.TID 0000.0001) %MON dynstat_uvel_max             =   2.0526587183838E-05
(PID.TID 0000.0001) %MON dynstat_uvel_min             =  -2.0484580572190E-05
(PID.TID 0000.0001) %MON dynstat_uvel_mean            =   3.8112464182766E-11
(PID.TID 0000.0001) %MON dynstat_uvel_sd              =   2.0477610515152E-06
(PID.TID 0000.0001) %MON dynstat_uvel_del2            =   4.5783005271185E-09
(PID.TID 0000.0001) %MON dynstat_vvel_max             =   9.1057668670454E-05
(PID.TID 0000.0001) %MON dynstat_vvel_min             =  -9.0848101739851E-05
(PID.TID 0000.0001) %MON dynstat_vvel_mean            =   1.0222496647698E-16
(PID.TID 0000.0001) %MON dynstat_vvel_sd              =   7.4472085143215E-06
(PID.TID 0000.0001) %MON dynstat_vvel_del2            =   7.5119328029218E-09
(PID.TID 0000.0001) %MON dynstat_wvel_max             =   2.8888335659696E-05
(PID.TID 0000.0001) %MON dynstat_wvel_min             =  -1.5483397967096E-04
(PID.TID 0000.0001) %MON dynstat_wvel_mean            =   1.7612440320442E-23
(PID.TID 0000.0001) %MON dynstat_wvel_sd              =   1.7854637274345E-05
(PID.TID 0000.0001) %MON dynstat_wvel_del2            =   1.1058311519474E-07
(PID.TID 0000.0001) %MON dynstat_theta_max            =   2.0000964311639E+01
(PID.TID 0000.0001) %MON dynstat_theta_min            =   1.9906355551779E+01
(PID.TID 0000.0001) %MON dynstat_theta_mean           =   1.9998558346290E+01
(PID.TID 0000.0001) %MON dynstat_theta_sd             =   1.3210344743599E-02
(PID.TID 0000.0001) %MON dynstat_theta_del2           =   6.9321384056784E-05
(PID.TID 0000.0001) %MON dynstat_salt_max             =   3.5000000000000E+01
(PID.TID 0000.0001) %MON dynstat_salt_min             =   3.5000000000000E+01
(PID.TID 0000.0001) %MON dynstat_salt_mean            =   3.5000000000001E+01
(PID.TID 0000.0001) %MON dynstat_salt_sd              =   7.5317529990572E-13
(PID.TID 0000.0001) %MON dynstat_salt_del2            =   0.0000000000000E+00
(PID.TID 0000.0001) %MON advcfl_uvel_max              =   4.1266203980395E-04
(PID.TID 0000.0001) %MON advcfl_vvel_max              =   9.1057668670454E-04
(PID.TID 0000.0001) %MON advcfl_wvel_max              =   3.0966795934192E-03
(PID.TID 0000.0001) %MON advcfl_W_hf_max              =   3.0966795934192E-03
(PID.TID 0000.0001) %MON pe_b_mean                    =   1.2532614403712E-12
(PID.TID 0000.0001) %MON ke_max                       =   1.1986108592396E-08
(PID.TID 0000.0001) %MON ke_mean                      =   1.8521250772060E-10
(PID.TID 0000.0001) %MON ke_vol                       =   3.8082386146814E-02
(PID.TID 0000.0001) %MON vort_r_min                   =  -1.4898288825481E-03
(PID.TID 0000.0001) %MON vort_r_max                   =   1.4900094812697E-03
(PID.TID 0000.0001) %MON vort_a_mean                  =   5.0000000000193E-01
(PID.TID 0000.0001) %MON vort_a_sd                    =   9.5365900766856E-05
(PID.TID 0000.0001) %MON vort_p_mean                  =   5.1396648044892E-01
(PID.TID 0000.0001) %MON vort_p_sd                    =   1.4406496525208E-01
(PID.TID 0000.0001) %MON surfExpan_theta_mean         =   0.0000000000000E+00
(PID.TID 0000.0001) %MON surfExpan_salt_mean          =   0.0000000000000E+00
(PID.TID 0000.0001) // =======================================================
(PID.TID 0000.0001) // End MONITOR dynamic field statistics
(PID.TID 0000.0001) // =======================================================
 cg2d: Sum(rhs),rhsMax =   1.18793863634892E-14  2.94629491725326E-06
(PID.TID 0000.0001)      cg2d_init_res =   7.92260944651852E-01
(PID.TID 0000.0001)      cg2d_iters(min,last) =      -1      38
(PID.TID 0000.0001)      cg2d_last_res =   9.25536543598610E-08
 cg3d: Sum(rhs),rhsMax =   5.15672574086246E-14  1.02874271675958E-06
(PID.TID 0000.0001)      cg3d_init_res =   2.55786050633074E+00
(PID.TID 0000.0001)      cg3d_iters (last) =                 10
(PID.TID 0000.0001)      cg3d_last_res =   2.69868404707580E-01
(PID.TID 0000.0001) // =======================================================
(PID.TID 0000.0001) // Begin MONITOR dynamic field statistics
(PID.TID 0000.0001) // =======================================================
(PID.TID 0000.0001) %MON time_tsnumber                =                    18
(PID.TID 0000.0001) %MON time_secondsf                =   1.8000000000000E+00
(PID.TID 0000.0001) %MON dynstat_eta_max              =   8.3714378749668E-08
(PID.TID 0000.0001) %MON dynstat_eta_min              =  -1.3316016017492E-06
(PID.TID 0000.0001) %MON dynstat_eta_mean             =   4.7863429331909E-08
(PID.TID 0000.0001) %MON dynstat_eta_sd               =   1.9808616339888E-07
(PID.TID 0000.0001) %MON dynstat_eta_del2             =   5.5936614413494E-09
(PID.TID 0000.0001) %MON dynstat_uvel_max             =   2.3963261980646E-05
(PID.TID 0000.0001) %MON dynstat_uvel_min             =  -2.3903507924022E-05
(PID.TID 0000.0001) %MON dynstat_uvel_mean            =   5.2977252331710E-11
(PID.TID 0000.0001) %MON dynstat_uvel_sd              =   2.4066036316853E-06
(PID.TID 0000.0001) %MON dynstat_uvel_del2            =   5.2557829787972E-09
(PID.TID 0000.0001) %MON dynstat_vvel_max             =   1.0129454715329E-04
(PID.TID 0000.0001) %MON dynstat_vvel_min             =  -1.0101914120891E-04
(PID.TID 0000.0001) %MON dynstat_vvel_mean            =  -1.0790627669234E-17
(PID.TID 0000.0001) %MON dynstat_vvel_sd              =   8.2734671568124E-06
(PID.TID 0000.0001) %MON dynstat_vvel_del2            =   8.2179961303001E-09
(PID.TID 0000.0001) %MON dynstat_wvel_max             =   3.1387757901027E-05
(PID.TID 0000.0001) %MON dynstat_wvel_min             =  -1.7151647866683E-04
(PID.TID 0000.0001) %MON dynstat_wvel_mean            =   1.3710076092580E-22
(PID.TID 0000.0001) %MON dynstat_wvel_sd              =   1.9893651928324E-05
(PID.TID 0000.0001) %MON dynstat_wvel_del2            =   1.2192336724432E-07
(PID.TID 0000.0001) %MON dynstat_theta_max            =   2.0000962909848E+01
(PID.TID 0000.0001) %MON dynstat_theta_min            =   1.9900944412778E+01
(PID.TID 0000.0001) %MON dynstat_theta_mean           =   1.9998444055867E+01
(PID.TID 0000.0001) %MON dynstat_theta_sd             =   1.3967755673241E-02
(PID.TID 0000.0001) %MON dynstat_theta_del2           =   7.3121773609187E-05
(PID.TID 0000.0001) %MON dynstat_salt_max             =   3.5000000000000E+01
(PID.TID 0000.0001) %MON dynstat_salt_min             =   3.5000000000000E+01
(PID.TID 0000.0001) %MON dynstat_salt_mean            =   3.5000000000001E+01
(PID.TID 0000.0001) %MON dynstat_salt_sd              =   7.5317529990572E-13
(PID.TID 0000.0001) %MON dynstat_salt_del2            =   0.0000000000000E+00
(PID.TID 0000.0001) %MON advcfl_uvel_max              =   4.8175220170432E-04
(PID.TID 0000.0001) %MON advcfl_vvel_max              =   1.0129454715329E-03
(PID.TID 0000.0001) %MON advcfl_wvel_max              =   3.4303295733366E-03
(PID.TID 0000.0001) %MON advcfl_W_hf_max              =   3.4303295733366E-03
(PID.TID 0000.0001) %MON pe_b_mean                    =   1.4048270452947E-12
(PID.TID 0000.0001) %MON ke_max                       =   1.4707918310256E-08
(PID.TID 0000.0001) %MON ke_mean                      =   2.3003230412916E-10
(PID.TID 0000.0001) %MON ke_vol                       =   3.8082386146814E-02
(PID.TID 0000.0001) %MON vort_r_min                   =  -1.7403996166523E-03
(PID.TID 0000.0001) %MON vort_r_max                   =   1.7399160698249E-03
(PID.TID 0000.0001) %MON vort_a_mean                  =   5.0000000000189E-01
(PID.TID 0000.0001) %MON vort_a_sd                    =   1.1242843912262E-04
(PID.TID 0000.0001) %MON vort_p_mean                  =   5.1396648044887E-01
(PID.TID 0000.0001) %MON vort_p_sd                    =   1.4406504266437E-01
(PID.TID 0000.0001) %MON surfExpan_theta_mean         =   0.0000000000000E+00
(PID.TID 0000.0001) %MON surfExpan_salt_mean          =   0.0000000000000E+00
(PID.TID 0000.0001) // =======================================================
(PID.TID 0000.0001) // End MONITOR dynamic field statistics
(PID.TID 0000.0001) // =======================================================
 cg2d: Sum(rhs),rhsMax =   7.75074449066437E-15  3.09496617947180E-06
(PID.TID 0000.0001)      cg2d_init_res =   7.49384092875378E-01
(PID.TID 0000.0001)      cg2d_iters(min,last) =      -1      38
(PID.TID 0000.0001)      cg2d_last_res =   8.94810205206572E-08
 cg3d: Sum(rhs),rhsMax =   3.59512766778813E-14  1.07985474007936E-06
(PID.TID 0000.0001)      cg3d_init_res =   2.41918396237575E+00
(PID.TID 0000.0001)      cg3d_iters (last) =                 10
(PID.TID 0000.0001)      cg3d_last_res =   2.60124186778356E-01
(PID.TID 0000.0001) // =======================================================
(PID.TID 0000.0001) // Begin MONITOR dynamic field statistics
(PID.TID 0000.0001) // =======================================================
(PID.TID 0000.0001) %MON time_tsnumber                =                    19
(PID.TID 0000.0001) %MON time_secondsf                =   1.9000000000000E+00
(PID.TID 0000.0001) %MON dynstat_eta_max              =   8.8044159716785E-08
(PID.TID 0000.0001) %MON dynstat_eta_min              =  -1.4047717055760E-06
(PID.TID 0000.0001) %MON dynstat_eta_mean             =   5.0561413224601E-08
(PID.TID 0000.0001) %MON dynstat_eta_sd               =   2.0903267556017E-07
(PID.TID 0000.0001) %MON dynstat_eta_del2             =   5.8893932148700E-09
(PID.TID 0000.0001) %MON dynstat_uvel_max             =   2.7922032040177E-05
(PID.TID 0000.0001) %MON dynstat_uvel_min             =  -2.7835191315336E-05
(PID.TID 0000.0001) %MON dynstat_uvel_mean            =   7.2300026992397E-11
(PID.TID 0000.0001) %MON dynstat_uvel_sd              =   2.8039034591168E-06
(PID.TID 0000.0001) %MON dynstat_uvel_del2            =   6.0213849836143E-09
(PID.TID 0000.0001) %MON dynstat_vvel_max             =   1.1190381322327E-04
(PID.TID 0000.0001) %MON dynstat_vvel_min             =  -1.1154367874159E-04
(PID.TID 0000.0001) %MON dynstat_vvel_mean            =   5.8007364428871E-17
(PID.TID 0000.0001) %MON dynstat_vvel_sd              =   9.1366805292227E-06
(PID.TID 0000.0001) %MON dynstat_vvel_del2            =   8.9376636810362E-09
(PID.TID 0000.0001) %MON dynstat_wvel_max             =   3.4499277994639E-05
(PID.TID 0000.0001) %MON dynstat_wvel_min             =  -1.8900941063175E-04
(PID.TID 0000.0001) %MON dynstat_wvel_mean            =   1.1845229470415E-22
(PID.TID 0000.0001) %MON dynstat_wvel_sd              =   2.2036072740771E-05
(PID.TID 0000.0001) %MON dynstat_wvel_del2            =   1.3372303241021E-07
(PID.TID 0000.0001) %MON dynstat_theta_max            =   2.0000961507916E+01
(PID.TID 0000.0001) %MON dynstat_theta_min            =   1.9895540302168E+01
(PID.TID 0000.0001) %MON dynstat_theta_mean           =   1.9998329796219E+01
(PID.TID 0000.0001) %MON dynstat_theta_sd             =   1.4723071764510E-02
(PID.TID 0000.0001) %MON dynstat_theta_del2           =   7.6893854071413E-05
(PID.TID 0000.0001) %MON dynstat_salt_max             =   3.5000000000000E+01
(PID.TID 0000.0001) %MON dynstat_salt_min             =   3.5000000000000E+01
(PID.TID 0000.0001) %MON dynstat_salt_mean            =   3.5000000000001E+01
(PID.TID 0000.0001) %MON dynstat_salt_sd              =   7.5317529990572E-13
(PID.TID 0000.0001) %MON dynstat_salt_del2            =   0.0000000000000E+00
(PID.TID 0000.0001) %MON advcfl_uvel_max              =   5.6133845309868E-04
(PID.TID 0000.0001) %MON advcfl_vvel_max              =   1.1190381322327E-03
(PID.TID 0000.0001) %MON advcfl_wvel_max              =   3.7801882126351E-03
(PID.TID 0000.0001) %MON advcfl_W_hf_max              =   3.7801882126351E-03
(PID.TID 0000.0001) %MON pe_b_mean                    =   1.5645636122721E-12
(PID.TID 0000.0001) %MON ke_max                       =   1.7860781277206E-08
(PID.TID 0000.0001) %MON ke_mean                      =   2.8238129756307E-10
(PID.TID 0000.0001) %MON ke_vol                       =   3.8082386146814E-02
(PID.TID 0000.0001) %MON vort_r_min                   =  -2.0215524424218E-03
(PID.TID 0000.0001) %MON vort_r_max                   =   2.0214793807058E-03
(PID.TID 0000.0001) %MON vort_a_mean                  =   5.0000000000182E-01
(PID.TID 0000.0001) %MON vort_a_sd                    =   1.3135534457160E-04
(PID.TID 0000.0001) %MON vort_p_mean                  =   5.1396648044881E-01
(PID.TID 0000.0001) %MON vort_p_sd                    =   1.4406514376715E-01
(PID.TID 0000.0001) %MON surfExpan_theta_mean         =   0.0000000000000E+00
(PID.TID 0000.0001) %MON surfExpan_salt_mean          =   0.0000000000000E+00
(PID.TID 0000.0001) // =======================================================
(PID.TID 0000.0001) // End MONITOR dynamic field statistics
(PID.TID 0000.0001) // =======================================================
 cg2d: Sum(rhs),rhsMax =   9.54791801177635E-15  3.24302307898220E-06
(PID.TID 0000.0001)      cg2d_init_res =   7.10613181386928E-01
(PID.TID 0000.0001)      cg2d_iters(min,last) =      -1      38
(PID.TID 0000.0001)      cg2d_last_res =   8.67997705508115E-08
 cg3d: Sum(rhs),rhsMax =   1.06520695042356E-14  1.13067737286535E-06
(PID.TID 0000.0001)      cg3d_init_res =   2.29476332427449E+00
(PID.TID 0000.0001)      cg3d_iters (last) =                 10
(PID.TID 0000.0001)      cg3d_last_res =   2.40393849005759E-01
(PID.TID 0000.0001) // =======================================================
(PID.TID 0000.0001) // Begin MONITOR dynamic field statistics
(PID.TID 0000.0001) // =======================================================
(PID.TID 0000.0001) %MON time_tsnumber                =                    20
(PID.TID 0000.0001) %MON time_secondsf                =   2.0000000000000E+00
(PID.TID 0000.0001) %MON dynstat_eta_max              =   9.2369688153696E-08
(PID.TID 0000.0001) %MON dynstat_eta_min              =  -1.4777091186811E-06
(PID.TID 0000.0001) %MON dynstat_eta_mean             =   5.3256369692262E-08
(PID.TID 0000.0001) %MON dynstat_eta_sd               =   2.1994590381643E-07
(PID.TID 0000.0001) %MON dynstat_eta_del2             =   6.1829739280147E-09
(PID.TID 0000.0001) %MON dynstat_uvel_max             =   3.2113342258666E-05
(PID.TID 0000.0001) %MON dynstat_uvel_min             =  -3.1994039352720E-05
(PID.TID 0000.0001) %MON dynstat_uvel_mean            =   9.7056847742788E-11
(PID.TID 0000.0001) %MON dynstat_uvel_sd              =   3.2408965692997E-06
(PID.TID 0000.0001) %MON dynstat_uvel_del2            =   6.8614165344332E-09
(PID.TID 0000.0001) %MON dynstat_vvel_max             =   1.2303615147403E-04
(PID.TID 0000.0001) %MON dynstat_vvel_min             =  -1.2257607028390E-04
(PID.TID 0000.0001) %MON dynstat_vvel_mean            =  -1.9655426614191E-17
(PID.TID 0000.0001) %MON dynstat_vvel_sd              =   1.0037829012129E-05
(PID.TID 0000.0001) %MON dynstat_vvel_del2            =   9.6898413918398E-09
(PID.TID 0000.0001) %MON dynstat_wvel_max             =   3.7160572520588E-05
(PID.TID 0000.0001) %MON dynstat_wvel_min             =  -2.0708197908235E-04
(PID.TID 0000.0001) %MON dynstat_wvel_mean            =  -1.3122994748565E-23
(PID.TID 0000.0001) %MON dynstat_wvel_sd              =   2.4279345537123E-05
(PID.TID 0000.0001) %MON dynstat_wvel_del2            =   1.4607522226012E-07
(PID.TID 0000.0001) %MON dynstat_theta_max            =   2.0000960105873E+01
(PID.TID 0000.0001) %MON dynstat_theta_min            =   1.9890142345060E+01
(PID.TID 0000.0001) %MON dynstat_theta_mean           =   1.9998215567260E+01
(PID.TID 0000.0001) %MON dynstat_theta_sd             =   1.5476303799504E-02
(PID.TID 0000.0001) %MON dynstat_theta_del2           =   8.0637777858131E-05
(PID.TID 0000.0001) %MON dynstat_salt_max             =   3.5000000000000E+01
(PID.TID 0000.0001) %MON dynstat_salt_min             =   3.5000000000000E+01
(PID.TID 0000.0001) %MON dynstat_salt_mean            =   3.5000000000001E+01
(PID.TID 0000.0001) %MON dynstat_salt_sd              =   7.5317529990572E-13
(PID.TID 0000.0001) %MON dynstat_salt_del2            =   0.0000000000000E+00
(PID.TID 0000.0001) %MON advcfl_uvel_max              =   6.4559964122129E-04
(PID.TID 0000.0001) %MON advcfl_vvel_max              =   1.2303615147403E-03
(PID.TID 0000.0001) %MON advcfl_wvel_max              =   4.1416395816471E-03
(PID.TID 0000.0001) %MON advcfl_W_hf_max              =   4.1416395816471E-03
(PID.TID 0000.0001) %MON pe_b_mean                    =   1.7323932803303E-12
(PID.TID 0000.0001) %MON ke_max                       =   2.1439054677384E-08
(PID.TID 0000.0001) %MON ke_mean                      =   3.4300228477888E-10
(PID.TID 0000.0001) %MON ke_vol                       =   3.8082386146814E-02
(PID.TID 0000.0001) %MON vort_r_min                   =  -2.3235418663598E-03
(PID.TID 0000.0001) %MON vort_r_max                   =   2.3231692311861E-03
(PID.TID 0000.0001) %MON vort_a_mean                  =   5.0000000000174E-01
(PID.TID 0000.0001) %MON vort_a_sd                    =   1.5221952445441E-04
(PID.TID 0000.0001) %MON vort_p_mean                  =   5.1396648044872E-01
(PID.TID 0000.0001) %MON vort_p_sd                    =   1.4406527383099E-01
(PID.TID 0000.0001) %MON surfExpan_theta_mean         =   0.0000000000000E+00
(PID.TID 0000.0001) %MON surfExpan_salt_mean          =   0.0000000000000E+00
(PID.TID 0000.0001) // =======================================================
(PID.TID 0000.0001) // End MONITOR dynamic field statistics
(PID.TID 0000.0001) // =======================================================
(PID.TID 0000.0001) %CHECKPOINT        20 0000000020
(PID.TID 0000.0001)   Seconds in section "ALL                    [THE_MODEL_MAIN]":
(PID.TID 0000.0001)           User time:   11.220000000000001
(PID.TID 0000.0001)         System time:  0.11000000000000000
(PID.TID 0000.0001)     Wall clock time:   22.527046203613281
(PID.TID 0000.0001)          No. starts:           1
(PID.TID 0000.0001)           No. stops:           1
(PID.TID 0000.0001)   Seconds in section "INITIALISE_FIXED       [THE_MODEL_MAIN]":
(PID.TID 0000.0001)           User time:  0.33000000000000002
(PID.TID 0000.0001)         System time:  5.00000000000000028E-002
(PID.TID 0000.0001)     Wall clock time:   6.6737890243530273
(PID.TID 0000.0001)          No. starts:           1
(PID.TID 0000.0001)           No. stops:           1
(PID.TID 0000.0001)   Seconds in section "THE_MAIN_LOOP          [THE_MODEL_MAIN]":
(PID.TID 0000.0001)           User time:   10.890000000000001
(PID.TID 0000.0001)         System time:  5.99999999999999978E-002
(PID.TID 0000.0001)     Wall clock time:   15.851150035858154
(PID.TID 0000.0001)          No. starts:           1
(PID.TID 0000.0001)           No. stops:           1
(PID.TID 0000.0001)   Seconds in section "INITIALISE_VARIA    [THE_MAIN_LOOP]":
(PID.TID 0000.0001)           User time:  0.19000000000000000
(PID.TID 0000.0001)         System time:  2.99999999999999989E-002
(PID.TID 0000.0001)     Wall clock time:   2.0410900115966797
(PID.TID 0000.0001)          No. starts:           1
(PID.TID 0000.0001)           No. stops:           1
(PID.TID 0000.0001)   Seconds in section "MAIN LOOP           [THE_MAIN_LOOP]":
(PID.TID 0000.0001)           User time:   10.700000000000001
(PID.TID 0000.0001)         System time:  2.99999999999999989E-002
(PID.TID 0000.0001)     Wall clock time:   13.810020923614502
(PID.TID 0000.0001)          No. starts:           1
(PID.TID 0000.0001)           No. stops:           1
(PID.TID 0000.0001)   Seconds in section "MAIN_DO_LOOP        [THE_MAIN_LOOP]":
(PID.TID 0000.0001)           User time:   10.700000000000005
(PID.TID 0000.0001)         System time:  2.99999999999999989E-002
(PID.TID 0000.0001)     Wall clock time:   13.809832096099854
(PID.TID 0000.0001)          No. starts:          20
(PID.TID 0000.0001)           No. stops:          20
(PID.TID 0000.0001)   Seconds in section "FORWARD_STEP        [MAIN_DO_LOOP]":
(PID.TID 0000.0001)           User time:   10.700000000000005
(PID.TID 0000.0001)         System time:  2.99999999999999989E-002
(PID.TID 0000.0001)     Wall clock time:   13.809484004974365
(PID.TID 0000.0001)          No. starts:          20
(PID.TID 0000.0001)           No. stops:          20
(PID.TID 0000.0001)   Seconds in section "LOAD_FIELDS_DRIVER  [FORWARD_STEP]":
(PID.TID 0000.0001)           User time:   0.0000000000000000
(PID.TID 0000.0001)         System time:   0.0000000000000000
(PID.TID 0000.0001)     Wall clock time:  5.45978546142578125E-004
(PID.TID 0000.0001)          No. starts:          20
(PID.TID 0000.0001)           No. stops:          20
(PID.TID 0000.0001)   Seconds in section "EXTERNAL_FLDS_LOAD [LOAD_FLDS_DRIVER]":
(PID.TID 0000.0001)           User time:   0.0000000000000000
(PID.TID 0000.0001)         System time:   0.0000000000000000
(PID.TID 0000.0001)     Wall clock time:  1.88350677490234375E-004
(PID.TID 0000.0001)          No. starts:          20
(PID.TID 0000.0001)           No. stops:          20
(PID.TID 0000.0001)   Seconds in section "DO_ATMOSPHERIC_PHYS [FORWARD_STEP]":
(PID.TID 0000.0001)           User time:   0.0000000000000000
(PID.TID 0000.0001)         System time:   0.0000000000000000
(PID.TID 0000.0001)     Wall clock time:  1.79290771484375000E-004
(PID.TID 0000.0001)          No. starts:          20
(PID.TID 0000.0001)           No. stops:          20
(PID.TID 0000.0001)   Seconds in section "DO_OCEANIC_PHYS     [FORWARD_STEP]":
(PID.TID 0000.0001)           User time:  5.00000000000007105E-002
(PID.TID 0000.0001)         System time:   0.0000000000000000
(PID.TID 0000.0001)     Wall clock time:  5.04670143127441406E-002
(PID.TID 0000.0001)          No. starts:          20
(PID.TID 0000.0001)           No. stops:          20
(PID.TID 0000.0001)   Seconds in section "THERMODYNAMICS      [FORWARD_STEP]":
(PID.TID 0000.0001)           User time:   1.7900000000000009
(PID.TID 0000.0001)         System time:   0.0000000000000000
(PID.TID 0000.0001)     Wall clock time:   1.7958977222442627
(PID.TID 0000.0001)          No. starts:          20
(PID.TID 0000.0001)           No. stops:          20
(PID.TID 0000.0001)   Seconds in section "DYNAMICS            [FORWARD_STEP]":
(PID.TID 0000.0001)           User time:   3.3900000000000023
(PID.TID 0000.0001)         System time:   0.0000000000000000
(PID.TID 0000.0001)     Wall clock time:   3.3844051361083984
(PID.TID 0000.0001)          No. starts:          20
(PID.TID 0000.0001)           No. stops:          20
(PID.TID 0000.0001)   Seconds in section "CALC_GW          [DYNAMICS]":
(PID.TID 0000.0001)           User time:  0.83000000000000540
(PID.TID 0000.0001)         System time:   0.0000000000000000
(PID.TID 0000.0001)     Wall clock time:  0.83671855926513672
(PID.TID 0000.0001)          No. starts:          80
(PID.TID 0000.0001)           No. stops:          80
(PID.TID 0000.0001)   Seconds in section "SOLVE_FOR_PRESSURE  [FORWARD_STEP]":
(PID.TID 0000.0001)           User time:   3.7500000000000000
(PID.TID 0000.0001)         System time:   0.0000000000000000
(PID.TID 0000.0001)     Wall clock time:   3.7718505859375000
(PID.TID 0000.0001)          No. starts:          20
(PID.TID 0000.0001)           No. stops:          20
(PID.TID 0000.0001)   Seconds in section "CG3D   [SOLVE_FOR_PRESSURE]":
(PID.TID 0000.0001)           User time:   3.1399999999999988
(PID.TID 0000.0001)         System time:   0.0000000000000000
(PID.TID 0000.0001)     Wall clock time:   3.1384017467498779
(PID.TID 0000.0001)          No. starts:          20
(PID.TID 0000.0001)           No. stops:          20
(PID.TID 0000.0001)   Seconds in section "MOM_CORRECTION_STEP [FORWARD_STEP]":
(PID.TID 0000.0001)           User time:  0.11999999999999922
(PID.TID 0000.0001)         System time:   0.0000000000000000
(PID.TID 0000.0001)     Wall clock time:  0.13459920883178711
(PID.TID 0000.0001)          No. starts:          20
(PID.TID 0000.0001)           No. stops:          20
(PID.TID 0000.0001)   Seconds in section "INTEGR_CONTINUITY   [FORWARD_STEP]":
(PID.TID 0000.0001)           User time:  0.13000000000000078
(PID.TID 0000.0001)         System time:   0.0000000000000000
(PID.TID 0000.0001)     Wall clock time:  0.12014126777648926
(PID.TID 0000.0001)          No. starts:          20
(PID.TID 0000.0001)           No. stops:          20
(PID.TID 0000.0001)   Seconds in section "TRC_CORRECTION_STEP [FORWARD_STEP]":
(PID.TID 0000.0001)           User time:  4.00000000000009237E-002
(PID.TID 0000.0001)         System time:   0.0000000000000000
(PID.TID 0000.0001)     Wall clock time:  4.40859794616699219E-002
(PID.TID 0000.0001)          No. starts:          20
(PID.TID 0000.0001)           No. stops:          20
(PID.TID 0000.0001)   Seconds in section "BLOCKING_EXCHANGES  [FORWARD_STEP]":
(PID.TID 0000.0001)           User time:  7.00000000000002842E-002
(PID.TID 0000.0001)         System time:   0.0000000000000000
(PID.TID 0000.0001)     Wall clock time:  6.78088665008544922E-002
(PID.TID 0000.0001)          No. starts:          20
(PID.TID 0000.0001)           No. stops:          20
(PID.TID 0000.0001)   Seconds in section "MONITOR             [FORWARD_STEP]":
(PID.TID 0000.0001)           User time:   1.1999999999999957
(PID.TID 0000.0001)         System time:  9.99999999999999500E-003
(PID.TID 0000.0001)     Wall clock time:   1.1989586353302002
(PID.TID 0000.0001)          No. starts:          20
(PID.TID 0000.0001)           No. stops:          20
(PID.TID 0000.0001)   Seconds in section "DO_THE_MODEL_IO     [FORWARD_STEP]":
(PID.TID 0000.0001)           User time:  0.11999999999999922
(PID.TID 0000.0001)         System time:  1.00000000000000089E-002
(PID.TID 0000.0001)     Wall clock time:   3.1895720958709717
(PID.TID 0000.0001)          No. starts:          20
(PID.TID 0000.0001)           No. stops:          20
(PID.TID 0000.0001)   Seconds in section "DO_WRITE_PICKUP     [FORWARD_STEP]":
(PID.TID 0000.0001)           User time:  4.00000000000009237E-002
(PID.TID 0000.0001)         System time:  9.99999999999999500E-003
(PID.TID 0000.0001)     Wall clock time:  4.84466552734375000E-002
(PID.TID 0000.0001)          No. starts:          20
(PID.TID 0000.0001)           No. stops:          20
(PID.TID 0000.0001) // ======================================================
(PID.TID 0000.0001) // Tile <-> Tile communication statistics
(PID.TID 0000.0001) // ======================================================
(PID.TID 0000.0001) // o Tile number: 000001
(PID.TID 0000.0001) //         No. X exchanges =              0
(PID.TID 0000.0001) //            Max. X spins =              0
(PID.TID 0000.0001) //            Min. X spins =     1000000000
(PID.TID 0000.0001) //          Total. X spins =              0
(PID.TID 0000.0001) //            Avg. X spins =       0.00E+00
(PID.TID 0000.0001) //         No. Y exchanges =              0
(PID.TID 0000.0001) //            Max. Y spins =              0
(PID.TID 0000.0001) //            Min. Y spins =     1000000000
(PID.TID 0000.0001) //          Total. Y spins =              0
(PID.TID 0000.0001) //            Avg. Y spins =       0.00E+00
(PID.TID 0000.0001) // o Tile number: 000002
(PID.TID 0000.0001) //         No. X exchanges =              0
(PID.TID 0000.0001) //            Max. X spins =              0
(PID.TID 0000.0001) //            Min. X spins =     1000000000
(PID.TID 0000.0001) //          Total. X spins =              0
(PID.TID 0000.0001) //            Avg. X spins =       0.00E+00
(PID.TID 0000.0001) //         No. Y exchanges =              0
(PID.TID 0000.0001) //            Max. Y spins =              0
(PID.TID 0000.0001) //            Min. Y spins =     1000000000
(PID.TID 0000.0001) //          Total. Y spins =              0
(PID.TID 0000.0001) //            Avg. Y spins =       0.00E+00
(PID.TID 0000.0001) // o Tile number: 000003
(PID.TID 0000.0001) //         No. X exchanges =              0
(PID.TID 0000.0001) //            Max. X spins =              0
(PID.TID 0000.0001) //            Min. X spins =     1000000000
(PID.TID 0000.0001) //          Total. X spins =              0
(PID.TID 0000.0001) //            Avg. X spins =       0.00E+00
(PID.TID 0000.0001) //         No. Y exchanges =              0
(PID.TID 0000.0001) //            Max. Y spins =              0
(PID.TID 0000.0001) //            Min. Y spins =     1000000000
(PID.TID 0000.0001) //          Total. Y spins =              0
(PID.TID 0000.0001) //            Avg. Y spins =       0.00E+00
(PID.TID 0000.0001) // o Tile number: 000004
(PID.TID 0000.0001) //         No. X exchanges =              0
(PID.TID 0000.0001) //            Max. X spins =              0
(PID.TID 0000.0001) //            Min. X spins =     1000000000
(PID.TID 0000.0001) //          Total. X spins =              0
(PID.TID 0000.0001) //            Avg. X spins =       0.00E+00
(PID.TID 0000.0001) //         No. Y exchanges =              0
(PID.TID 0000.0001) //            Max. Y spins =              0
(PID.TID 0000.0001) //            Min. Y spins =     1000000000
(PID.TID 0000.0001) //          Total. Y spins =              0
(PID.TID 0000.0001) //            Avg. Y spins =       0.00E+00
(PID.TID 0000.0001) // o Thread number: 000001
(PID.TID 0000.0001) //            No. barriers =           9750
(PID.TID 0000.0001) //      Max. barrier spins =              1
(PID.TID 0000.0001) //      Min. barrier spins =              1
(PID.TID 0000.0001) //     Total barrier spins =           9750
(PID.TID 0000.0001) //      Avg. barrier spins =       1.00E+00
PROGRAM MAIN: Execution ended Normally
