(PID.TID 0000.0001) 
(PID.TID 0000.0001) // ======================================================
(PID.TID 0000.0001) //                      MITgcm UV
(PID.TID 0000.0001) //                      =========
(PID.TID 0000.0001) // ======================================================
(PID.TID 0000.0001) // execution environment starting up...
(PID.TID 0000.0001) 
(PID.TID 0000.0001) // MITgcmUV version:  checkpoint58o_post
(PID.TID 0000.0001) // Build user:        jmc
(PID.TID 0000.0001) // Build host:        faulks
(PID.TID 0000.0001) // Build date:        Sun Sep  3 19:45:34 EDT 2006
(PID.TID 0000.0001) 
(PID.TID 0000.0001) // =======================================================
(PID.TID 0000.0001) // Execution Environment parameter file "eedata"
(PID.TID 0000.0001) // =======================================================
(PID.TID 0000.0001) ># Example "eedata" file
(PID.TID 0000.0001) ># Lines beginning "#" are comments
(PID.TID 0000.0001) ># nTx - No. threads per process in X
(PID.TID 0000.0001) ># nTy - No. threads per process in Y
(PID.TID 0000.0001) > &EEPARMS
(PID.TID 0000.0001) > &
(PID.TID 0000.0001) ># Note: Some systems use & as the
(PID.TID 0000.0001) ># namelist terminator. Other systems
(PID.TID 0000.0001) ># use a / character (as shown here).
(PID.TID 0000.0001) 
(PID.TID 0000.0001) // =======================================================
(PID.TID 0000.0001) // Computational Grid Specification ( see files "SIZE.h" )
(PID.TID 0000.0001) //                                  ( and "eedata"       )
(PID.TID 0000.0001) // =======================================================
(PID.TID 0000.0001)      nPx =    1 ; /* No. processes in X */
(PID.TID 0000.0001)      nPy =    1 ; /* No. processes in Y */
(PID.TID 0000.0001)      nSx =    4 ; /* No. tiles in X per process */
(PID.TID 0000.0001)      nSy =    1 ; /* No. tiles in Y per process */
(PID.TID 0000.0001)      sNx =   30 ; /* Tile size in X */
(PID.TID 0000.0001)      sNy =   23 ; /* Tile size in Y */
(PID.TID 0000.0001)      OLx =    3 ; /* Tile overlap distance in X */
(PID.TID 0000.0001)      OLy =    3 ; /* Tile overlap distance in Y */
(PID.TID 0000.0001)      nTx =    1 ; /* No. threads in X per process */
(PID.TID 0000.0001)      nTy =    1 ; /* No. threads in Y per process */
(PID.TID 0000.0001)       Nr =   29 ; /* No. levels in the vertical   */
(PID.TID 0000.0001)       nX =  120 ; /* Total domain size in X ( = nPx*nSx*sNx ) */
(PID.TID 0000.0001)       nY =   23 ; /* Total domain size in Y ( = nPy*nSy*sNy ) */
(PID.TID 0000.0001)   nTiles =    4 ; /* Total no. tiles per process ( = nSx*nSy ) */
(PID.TID 0000.0001)   nProcs =    1 ; /* Total no. processes ( = nPx*nPy ) */
(PID.TID 0000.0001) nThreads =    1 ; /* Total no. threads per process ( = nTx*nTy ) */
(PID.TID 0000.0001) usingMPI =    F ; /* Flag used to control whether MPI is in use */
(PID.TID 0000.0001)                   /*  note: To execute a program with MPI calls */
(PID.TID 0000.0001)                   /*  it must be launched appropriately e.g     */
(PID.TID 0000.0001)                   /*  "mpirun -np 64 ......"                    */
(PID.TID 0000.0001) useCoupler=   F ; /* Flag used to control communications with */
(PID.TID 0000.0001)                   /*  other model components, through a coupler */
(PID.TID 0000.0001) 
(PID.TID 0000.0001) // ======================================================
(PID.TID 0000.0001) // Mapping of tiles to threads
(PID.TID 0000.0001) // ======================================================
(PID.TID 0000.0001) // -o- Thread   1, tiles (   1:   4,   1:   1)
(PID.TID 0000.0001) 
(PID.TID 0000.0001) // ======================================================
(PID.TID 0000.0001) // Tile <-> Tile connectvity table
(PID.TID 0000.0001) // ======================================================
(PID.TID 0000.0001) // Tile number: 000001 (process no. = 000001)
(PID.TID 0000.0001) //        WEST: Tile = 000004, Process = 000001, Comm = put
(PID.TID 0000.0001) //                bi = 000004, bj = 000001
(PID.TID 0000.0001) //        EAST: Tile = 000002, Process = 000001, Comm = put
(PID.TID 0000.0001) //                bi = 000002, bj = 000001
(PID.TID 0000.0001) //       SOUTH: Tile = 000001, Process = 000001, Comm = put
(PID.TID 0000.0001) //                bi = 000001, bj = 000001
(PID.TID 0000.0001) //       NORTH: Tile = 000001, Process = 000001, Comm = put
(PID.TID 0000.0001) //                bi = 000001, bj = 000001
(PID.TID 0000.0001) // Tile number: 000002 (process no. = 000001)
(PID.TID 0000.0001) //        WEST: Tile = 000001, Process = 000001, Comm = put
(PID.TID 0000.0001) //                bi = 000001, bj = 000001
(PID.TID 0000.0001) //        EAST: Tile = 000003, Process = 000001, Comm = put
(PID.TID 0000.0001) //                bi = 000003, bj = 000001
(PID.TID 0000.0001) //       SOUTH: Tile = 000002, Process = 000001, Comm = put
(PID.TID 0000.0001) //                bi = 000002, bj = 000001
(PID.TID 0000.0001) //       NORTH: Tile = 000002, Process = 000001, Comm = put
(PID.TID 0000.0001) //                bi = 000002, bj = 000001
(PID.TID 0000.0001) // Tile number: 000003 (process no. = 000001)
(PID.TID 0000.0001) //        WEST: Tile = 000002, Process = 000001, Comm = put
(PID.TID 0000.0001) //                bi = 000002, bj = 000001
(PID.TID 0000.0001) //        EAST: Tile = 000004, Process = 000001, Comm = put
(PID.TID 0000.0001) //                bi = 000004, bj = 000001
(PID.TID 0000.0001) //       SOUTH: Tile = 000003, Process = 000001, Comm = put
(PID.TID 0000.0001) //                bi = 000003, bj = 000001
(PID.TID 0000.0001) //       NORTH: Tile = 000003, Process = 000001, Comm = put
(PID.TID 0000.0001) //                bi = 000003, bj = 000001
(PID.TID 0000.0001) // Tile number: 000004 (process no. = 000001)
(PID.TID 0000.0001) //        WEST: Tile = 000003, Process = 000001, Comm = put
(PID.TID 0000.0001) //                bi = 000003, bj = 000001
(PID.TID 0000.0001) //        EAST: Tile = 000001, Process = 000001, Comm = put
(PID.TID 0000.0001) //                bi = 000001, bj = 000001
(PID.TID 0000.0001) //       SOUTH: Tile = 000004, Process = 000001, Comm = put
(PID.TID 0000.0001) //                bi = 000004, bj = 000001
(PID.TID 0000.0001) //       NORTH: Tile = 000004, Process = 000001, Comm = put
(PID.TID 0000.0001) //                bi = 000004, bj = 000001
(PID.TID 0000.0001) 
(PID.TID 0000.0001) // =======================================================
(PID.TID 0000.0001) // Model parameter file "data"
(PID.TID 0000.0001) // =======================================================
(PID.TID 0000.0001) ># ====================
(PID.TID 0000.0001) ># | Model parameters |
(PID.TID 0000.0001) ># ====================
(PID.TID 0000.0001) >#
(PID.TID 0000.0001) ># Continuous equation parameters
(PID.TID 0000.0001) > &PARM01
(PID.TID 0000.0001) > tRef=29*20.0,
(PID.TID 0000.0001) > sRef=29*35.0,
(PID.TID 0000.0001) > viscAh=5.0E-6,
(PID.TID 0000.0001) > viscAz=5.0E-6,
(PID.TID 0000.0001) > no_slip_sides=.FALSE.,
(PID.TID 0000.0001) > no_slip_bottom=.FALSE.,
(PID.TID 0000.0001) > diffKhT=2.5E-6,
(PID.TID 0000.0001) > diffKzT=2.5E-6,
(PID.TID 0000.0001) > diffKhS=1.0E-6,
(PID.TID 0000.0001) > diffKzS=1.0E-6,
(PID.TID 0000.0001) > f0=0.5,
(PID.TID 0000.0001) > sBeta =0.,
(PID.TID 0000.0001) > gravity=9.81,
(PID.TID 0000.0001) > rhoConst=1000.0,
(PID.TID 0000.0001) > rhoNil=1000.0,
(PID.TID 0000.0001) >#heatCapacity_Cp=3900.0,
(PID.TID 0000.0001) > rigidLid=.TRUE.,
(PID.TID 0000.0001) > implicitFreeSurface=.FALSE.,
(PID.TID 0000.0001) > eosType='LINEAR',
(PID.TID 0000.0001) > nonHydrostatic=.TRUE.,
(PID.TID 0000.0001) > readBinaryPrec=32,
(PID.TID 0000.0001) > &
(PID.TID 0000.0001) >
(PID.TID 0000.0001) ># Elliptic solver parameters
(PID.TID 0000.0001) > &PARM02
(PID.TID 0000.0001) > cg2dMaxIters=1000,
(PID.TID 0000.0001) > cg2dTargetResidual=1.E-7,
(PID.TID 0000.0001) > cg3dMaxIters=10,
(PID.TID 0000.0001) > cg3dTargetResidual=1.E-9,
(PID.TID 0000.0001) > &
(PID.TID 0000.0001) >
(PID.TID 0000.0001) ># Time stepping parameters
(PID.TID 0000.0001) > &PARM03
(PID.TID 0000.0001) > nIter0=0,
(PID.TID 0000.0001) > nTimeSteps=20,
(PID.TID 0000.0001) >#nTimeSteps=36000000,
(PID.TID 0000.0001) > deltaT=0.1,
(PID.TID 0000.0001) > abEps=0.1,
(PID.TID 0000.0001) > pChkptFreq=2.0,
(PID.TID 0000.0001) >#chkptFreq=2.0,
(PID.TID 0000.0001) > dumpFreq=2.0,
(PID.TID 0000.0001) > monitorFreq=0.1,
(PID.TID 0000.0001) > &
(PID.TID 0000.0001) >
(PID.TID 0000.0001) ># Gridding parameters
(PID.TID 0000.0001) > &PARM04
(PID.TID 0000.0001) > usingCylindricalGrid=.TRUE.,
(PID.TID 0000.0001) > dXspacing=3.,
(PID.TID 0000.0001) > dYspacing=0.01,
(PID.TID 0000.0001) > delZ=29*0.005,
(PID.TID 0000.0001) > phiMin=0.07,
(PID.TID 0000.0001) > &
(PID.TID 0000.0001) >
(PID.TID 0000.0001) ># Input datasets
(PID.TID 0000.0001) > &PARM05
(PID.TID 0000.0001) > hydrogThetaFile='thetaPolR.bin',
(PID.TID 0000.0001) > bathyFile='bathyPolR.bin',
(PID.TID 0000.0001) > tCylIn  = 0.,
(PID.TID 0000.0001) > tCylOut = 20.,
(PID.TID 0000.0001) > &
(PID.TID 0000.0001) 
(PID.TID 0000.0001) S/R INI_PARMS ; starts to read PARM01
(PID.TID 0000.0001) S/R INI_PARMS ; read PARM01 : OK
(PID.TID 0000.0001) S/R INI_PARMS ; starts to read PARM02
(PID.TID 0000.0001) S/R INI_PARMS ; read PARM02 : OK
(PID.TID 0000.0001) S/R INI_PARMS ; starts to read PARM03
(PID.TID 0000.0001) S/R INI_PARMS ; read PARM03 : OK
(PID.TID 0000.0001) S/R INI_PARMS ; starts to read PARM04
(PID.TID 0000.0001) S/R INI_PARMS ; read PARM04 : OK
(PID.TID 0000.0001) S/R INI_PARMS ; Cylinder OK
(PID.TID 0000.0001) S/R INI_PARMS ; starts to read PARM05
(PID.TID 0000.0001) S/R INI_PARMS ; read PARM05 : OK
(PID.TID 0000.0001)  PACKAGES_BOOT: opening data.pkg
(PID.TID 0000.0001)  OPEN_COPY_DATA_FILE: opening file data.pkg
(PID.TID 0000.0001) // =======================================================
(PID.TID 0000.0001) // Parameter file "data.pkg"
(PID.TID 0000.0001) // =======================================================
(PID.TID 0000.0001) ># Packages
(PID.TID 0000.0001) > &PACKAGES
(PID.TID 0000.0001) > useMNC=.TRUE.,
(PID.TID 0000.0001) > &
(PID.TID 0000.0001) 
(PID.TID 0000.0001)  PACKAGES_BOOT: finished reading data.pkg
(PID.TID 0000.0001)  MNC_READPARMS: opening file 'data.mnc'
(PID.TID 0000.0001)  OPEN_COPY_DATA_FILE: opening file data.mnc
(PID.TID 0000.0001) // =======================================================
(PID.TID 0000.0001) // Parameter file "data.mnc"
(PID.TID 0000.0001) // =======================================================
(PID.TID 0000.0001) ># Example "data.mnc" file
(PID.TID 0000.0001) ># Lines beginning "#" are comments
(PID.TID 0000.0001) > &MNC_01
(PID.TID 0000.0001) ># mnc_echo_gvtypes=.FALSE.,
(PID.TID 0000.0001) ># mnc_use_indir=.FALSE.,
(PID.TID 0000.0001) > mnc_use_outdir=.TRUE.,
(PID.TID 0000.0001) > mnc_outdir_str='mnc_test_',
(PID.TID 0000.0001) >#mnc_outdir_date=.TRUE.,
(PID.TID 0000.0001) > monitor_mnc=.FALSE.,
(PID.TID 0000.0001) >#snapshot_mnc=.FALSE.,
(PID.TID 0000.0001) >#timeave_mnc=.FALSE.,
(PID.TID 0000.0001) > pickup_read_mnc=.FALSE.,
(PID.TID 0000.0001) > pickup_write_mnc=.FALSE.,
(PID.TID 0000.0001) > &
(PID.TID 0000.0001) 
(PID.TID 0000.0001)  MNC_READPARMS: finished reading data.mnc
(PID.TID 0000.0001) SET_PARMS: done
(PID.TID 0000.0001) Enter INI_VERTICAL_GRID: setInterFDr=    T ; setCenterDr=    F
(PID.TID 0000.0001) %MON XC_max                       =   3.5850000000000E+02
(PID.TID 0000.0001) %MON XC_min                       =   1.5000000000000E+00
(PID.TID 0000.0001) %MON XC_mean                      =   1.8000000000000E+02
(PID.TID 0000.0001) %MON XC_sd                        =   1.0391943995230E+02
(PID.TID 0000.0001) %MON XG_max                       =   3.5700000000000E+02
(PID.TID 0000.0001) %MON XG_min                       =   3.0000000000000E+00
(PID.TID 0000.0001) %MON XG_mean                      =   1.8000000000000E+02
(PID.TID 0000.0001) %MON XG_sd                        =   1.0305338422391E+02
(PID.TID 0000.0001) %MON DXC_max                      =   1.5446163880150E-02
(PID.TID 0000.0001) %MON DXC_min                      =   3.9269908169872E-03
(PID.TID 0000.0001) %MON DXC_mean                     =   9.6865773485685E-03
(PID.TID 0000.0001) %MON DXC_sd                       =   3.4731613586981E-03
(PID.TID 0000.0001) %MON DXF_max                      =   1.5446163880150E-02
(PID.TID 0000.0001) %MON DXF_min                      =   3.9269908169872E-03
(PID.TID 0000.0001) %MON DXF_mean                     =   9.6865773485685E-03
(PID.TID 0000.0001) %MON DXF_sd                       =   3.4731613586981E-03
(PID.TID 0000.0001) %MON DXG_max                      =   1.5184364492351E-02
(PID.TID 0000.0001) %MON DXG_min                      =   3.6651914291881E-03
(PID.TID 0000.0001) %MON DXG_mean                     =   9.4247779607694E-03
(PID.TID 0000.0001) %MON DXG_sd                       =   3.4731613586981E-03
(PID.TID 0000.0001) %MON DXV_max                      =   1.5184364492351E-02
(PID.TID 0000.0001) %MON DXV_min                      =   3.6651914291881E-03
(PID.TID 0000.0001) %MON DXV_mean                     =   9.4247779607694E-03
(PID.TID 0000.0001) %MON DXV_sd                       =   3.4731613586981E-03
(PID.TID 0000.0001) %MON YC_max                       =   2.9500000000000E-01
(PID.TID 0000.0001) %MON YC_min                       =   7.5000000000000E-02
(PID.TID 0000.0001) %MON YC_mean                      =   1.8500000000000E-01
(PID.TID 0000.0001) %MON YC_sd                        =   6.6332495807108E-02
(PID.TID 0000.0001) %MON YG_max                       =   2.9000000000000E-01
(PID.TID 0000.0001) %MON YG_min                       =   7.0000000000000E-02
(PID.TID 0000.0001) %MON YG_mean                      =   1.8000000000000E-01
(PID.TID 0000.0001) %MON YG_sd                        =   6.6332495807108E-02
(PID.TID 0000.0001) %MON DYC_max                      =   1.0000000000000E-02
(PID.TID 0000.0001) %MON DYC_min                      =   1.0000000000000E-02
(PID.TID 0000.0001) %MON DYC_mean                     =   9.9999999999999E-03
(PID.TID 0000.0001) %MON DYC_sd                       =   1.4918621893401E-16
(PID.TID 0000.0001) %MON DYF_max                      =   1.0000000000000E-02
(PID.TID 0000.0001) %MON DYF_min                      =   1.0000000000000E-02
(PID.TID 0000.0001) %MON DYF_mean                     =   9.9999999999999E-03
(PID.TID 0000.0001) %MON DYF_sd                       =   1.4918621893401E-16
(PID.TID 0000.0001) %MON DYG_max                      =   1.0000000000000E-02
(PID.TID 0000.0001) %MON DYG_min                      =   1.0000000000000E-02
(PID.TID 0000.0001) %MON DYG_mean                     =   9.9999999999999E-03
(PID.TID 0000.0001) %MON DYG_sd                       =   1.4918621893401E-16
(PID.TID 0000.0001) %MON DYU_max                      =   1.0000000000000E-02
(PID.TID 0000.0001) %MON DYU_min                      =   1.0000000000000E-02
(PID.TID 0000.0001) %MON DYU_mean                     =   9.9999999999999E-03
(PID.TID 0000.0001) %MON DYU_sd                       =   1.4918621893401E-16
(PID.TID 0000.0001) %MON RA_max                       =   1.5446163880150E-04
(PID.TID 0000.0001) %MON RA_min                       =   3.9269908169872E-05
(PID.TID 0000.0001) %MON RA_mean                      =   9.6865773485685E-05
(PID.TID 0000.0001) %MON RA_sd                        =   3.4731613586981E-05
(PID.TID 0000.0001) %MON RAW_max                      =   1.5446163880150E-04
(PID.TID 0000.0001) %MON RAW_min                      =   3.9269908169872E-05
(PID.TID 0000.0001) %MON RAW_mean                     =   9.6865773485685E-05
(PID.TID 0000.0001) %MON RAW_sd                       =   3.4731613586981E-05
(PID.TID 0000.0001) %MON RAS_max                      =   1.5184364492351E-04
(PID.TID 0000.0001) %MON RAS_min                      =   3.6651914291881E-05
(PID.TID 0000.0001) %MON RAS_mean                     =   9.4247779607694E-05
(PID.TID 0000.0001) %MON RAS_sd                       =   3.4731613586981E-05
(PID.TID 0000.0001) %MON RAZ_max                      =   1.5184364492351E-04
(PID.TID 0000.0001) %MON RAZ_min                      =   3.6651914291881E-05
(PID.TID 0000.0001) %MON RAZ_mean                     =   9.4247779607694E-05
(PID.TID 0000.0001) %MON RAZ_sd                       =   3.4731613586981E-05
(PID.TID 0000.0001) %MON AngleCS_max                  =   1.0000000000000E+00
(PID.TID 0000.0001) %MON AngleCS_min                  =   1.0000000000000E+00
(PID.TID 0000.0001) %MON AngleCS_mean                 =   1.0000000000000E+00
(PID.TID 0000.0001) %MON AngleCS_sd                   =   0.0000000000000E+00
(PID.TID 0000.0001) %MON AngleSN_max                  =   0.0000000000000E+00
(PID.TID 0000.0001) %MON AngleSN_min                  =   0.0000000000000E+00
(PID.TID 0000.0001) %MON AngleSN_mean                 =   0.0000000000000E+00
(PID.TID 0000.0001) %MON AngleSN_sd                   =   0.0000000000000E+00
(PID.TID 0000.0001)  MDSREADFIELD: opening global file: bathyPolR.bin
(PID.TID 0000.0001) // =======================================================
(PID.TID 0000.0001) // Field Model R_low (ini_masks_etc) at iteration          1
(PID.TID 0000.0001) // CMIN =         -1.450000000000000E-01
(PID.TID 0000.0001) // CMAX =         -1.450000000000000E-01
(PID.TID 0000.0001) // CINT =          0.000000000000000E+00
(PID.TID 0000.0001) // SYMBOLS (CMIN->CMAX): -abcdefghijklmnopqrstuvwxyz+
(PID.TID 0000.0001) //                  0.0: .
(PID.TID 0000.0001) // RANGE I (Lo:Hi:Step):(  -2: 123:   1)
(PID.TID 0000.0001) // RANGE J (Lo:Hi:Step):(  26:  -2:  -1)
(PID.TID 0000.0001) // RANGE K (Lo:Hi:Step):(   1:   1:   1)
(PID.TID 0000.0001) // =======================================================
(PID.TID 0000.0001) // =======================================================
(PID.TID 0000.0001) // END OF FIELD                                          =
(PID.TID 0000.0001) // =======================================================
(PID.TID 0000.0001) 
(PID.TID 0000.0001) // =======================================================
(PID.TID 0000.0001) // Field Model Ro_surf (ini_masks_etc) at iteration          1
(PID.TID 0000.0001) // CMIN =          1.561251128379126E-17
(PID.TID 0000.0001) // CMAX =          1.561251128379126E-17
(PID.TID 0000.0001) // CINT =          0.000000000000000E+00
(PID.TID 0000.0001) // SYMBOLS (CMIN->CMAX): -abcdefghijklmnopqrstuvwxyz+
(PID.TID 0000.0001) //                  0.0: .
(PID.TID 0000.0001) // RANGE I (Lo:Hi:Step):(  -2: 123:   1)
(PID.TID 0000.0001) // RANGE J (Lo:Hi:Step):(  26:  -2:  -1)
(PID.TID 0000.0001) // RANGE K (Lo:Hi:Step):(   1:   1:   1)
(PID.TID 0000.0001) // =======================================================
(PID.TID 0000.0001) // =======================================================
(PID.TID 0000.0001) // END OF FIELD                                          =
(PID.TID 0000.0001) // =======================================================
(PID.TID 0000.0001) 
(PID.TID 0000.0001) // =======================================================
(PID.TID 0000.0001) // Field hFacC at iteration          1
(PID.TID 0000.0001) // CMIN =          1.000000000000000E+00
(PID.TID 0000.0001) // CMAX =          1.000000000000000E+00
(PID.TID 0000.0001) // CINT =          0.000000000000000E+00
(PID.TID 0000.0001) // SYMBOLS (CMIN->CMAX): -abcdefghijklmnopqrstuvwxyz+
(PID.TID 0000.0001) //                  0.0: .
(PID.TID 0000.0001) // RANGE I (Lo:Hi:Step):(  -2: 123:   1)
(PID.TID 0000.0001) // RANGE J (Lo:Hi:Step):(  26:  -2:  -1)
(PID.TID 0000.0001) // RANGE K (Lo:Hi:Step):(   1:   1:   1)
(PID.TID 0000.0001) // =======================================================
(PID.TID 0000.0001) // =======================================================
(PID.TID 0000.0001) // END OF FIELD                                          =
(PID.TID 0000.0001) // =======================================================
(PID.TID 0000.0001) 
(PID.TID 0000.0001) // =======================================================
(PID.TID 0000.0001) // Field hFacW at iteration          1
(PID.TID 0000.0001) // CMIN =          1.000000000000000E+00
(PID.TID 0000.0001) // CMAX =          1.000000000000000E+00
(PID.TID 0000.0001) // CINT =          0.000000000000000E+00
(PID.TID 0000.0001) // SYMBOLS (CMIN->CMAX): -abcdefghijklmnopqrstuvwxyz+
(PID.TID 0000.0001) //                  0.0: .
(PID.TID 0000.0001) // RANGE I (Lo:Hi:Step):(  -2: 123:   1)
(PID.TID 0000.0001) // RANGE J (Lo:Hi:Step):(  26:  -2:  -1)
(PID.TID 0000.0001) // RANGE K (Lo:Hi:Step):(   1:   1:   1)
(PID.TID 0000.0001) // =======================================================
(PID.TID 0000.0001) // =======================================================
(PID.TID 0000.0001) // END OF FIELD                                          =
(PID.TID 0000.0001) // =======================================================
(PID.TID 0000.0001) 
(PID.TID 0000.0001) // =======================================================
(PID.TID 0000.0001) // Field hFacS at iteration          1
(PID.TID 0000.0001) // CMIN =          1.000000000000000E+00
(PID.TID 0000.0001) // CMAX =          1.000000000000000E+00
(PID.TID 0000.0001) // CINT =          0.000000000000000E+00
(PID.TID 0000.0001) // SYMBOLS (CMIN->CMAX): -abcdefghijklmnopqrstuvwxyz+
(PID.TID 0000.0001) //                  0.0: .
(PID.TID 0000.0001) // RANGE I (Lo:Hi:Step):(  -2: 123:   1)
(PID.TID 0000.0001) // RANGE J (Lo:Hi:Step):(  26:  -2:  -1)
(PID.TID 0000.0001) // RANGE K (Lo:Hi:Step):(   1:   1:   1)
(PID.TID 0000.0001) // =======================================================
(PID.TID 0000.0001) // =======================================================
(PID.TID 0000.0001) // END OF FIELD                                          =
(PID.TID 0000.0001) // =======================================================
(PID.TID 0000.0001) 
(PID.TID 0000.0001) 
(PID.TID 0000.0001) // ===================================
(PID.TID 0000.0001) // GAD parameters :
(PID.TID 0000.0001) // ===================================
(PID.TID 0000.0001) tempAdvScheme =   /* Temp. Horiz.Advection scheme selector */
(PID.TID 0000.0001)                       2
(PID.TID 0000.0001)     ;
(PID.TID 0000.0001) tempVertAdvScheme =   /* Temp. Vert. Advection scheme selector */
(PID.TID 0000.0001)                       2
(PID.TID 0000.0001)     ;
(PID.TID 0000.0001) tempMultiDimAdvec =   /* use Muti-Dim Advec method for Temp */
(PID.TID 0000.0001)                   F
(PID.TID 0000.0001)     ;
(PID.TID 0000.0001) AdamsBashforthGt =   /* apply Adams-Bashforth extrapolation on Gt */
(PID.TID 0000.0001)                   T
(PID.TID 0000.0001)     ;
(PID.TID 0000.0001) AdamsBashforth_T =   /* apply Adams-Bashforth extrapolation on Temp */
(PID.TID 0000.0001)                   F
(PID.TID 0000.0001)     ;
(PID.TID 0000.0001) saltAdvScheme =   /* Salt. Horiz.advection scheme selector */
(PID.TID 0000.0001)                       2
(PID.TID 0000.0001)     ;
(PID.TID 0000.0001) saltVertAdvScheme =   /* Salt. Vert. Advection scheme selector */
(PID.TID 0000.0001)                       2
(PID.TID 0000.0001)     ;
(PID.TID 0000.0001) saltMultiDimAdvec =   /* use Muti-Dim Advec method for Salt */
(PID.TID 0000.0001)                   F
(PID.TID 0000.0001)     ;
(PID.TID 0000.0001) AdamsBashforthGs =   /* apply Adams-Bashforth extrapolation on Gs */
(PID.TID 0000.0001)                   T
(PID.TID 0000.0001)     ;
(PID.TID 0000.0001) AdamsBashforth_S =   /* apply Adams-Bashforth extrapolation on Salt */
(PID.TID 0000.0001)                   F
(PID.TID 0000.0001)     ;
(PID.TID 0000.0001) // ===================================
(PID.TID 0000.0001) %MON fCori_max                    =   5.0000000000295E-01
(PID.TID 0000.0001) %MON fCori_min                    =   5.0000000000075E-01
(PID.TID 0000.0001) %MON fCori_mean                   =   5.0000000000185E-01
(PID.TID 0000.0001) %MON fCori_sd                     =   6.6333047540611E-13
(PID.TID 0000.0001) %MON fCoriG_max                   =   5.0000000000290E-01
(PID.TID 0000.0001) %MON fCoriG_min                   =   5.0000000000070E-01
(PID.TID 0000.0001) %MON fCoriG_mean                  =   5.0000000000180E-01
(PID.TID 0000.0001) %MON fCoriG_sd                    =   6.6333153538242E-13
(PID.TID 0000.0001) %MON fCoriCos_max                 =   0.0000000000000E+00
(PID.TID 0000.0001) %MON fCoriCos_min                 =   0.0000000000000E+00
(PID.TID 0000.0001) %MON fCoriCos_mean                =   0.0000000000000E+00
(PID.TID 0000.0001) %MON fCoriCos_sd                  =   0.0000000000000E+00
(PID.TID 0000.0001) INI_CG2D: CG2D normalisation factor =  3.0693721328176142E+00
(PID.TID 0000.0001) 
(PID.TID 0000.0001) INI_CG3D: CG3D normalisation factor =  3.2370496900046497E+01
(PID.TID 0000.0001) 
(PID.TID 0000.0001) CONFIG_CHECK: OK
(PID.TID 0000.0001) // =======================================================
(PID.TID 0000.0001) // Model configuration
(PID.TID 0000.0001) // =======================================================
(PID.TID 0000.0001) //
(PID.TID 0000.0001) // "Physical" paramters ( PARM01 in namelist )
(PID.TID 0000.0001) //
(PID.TID 0000.0001) buoyancyRelation = OCEANIC
(PID.TID 0000.0001) fluidIsAir  =  /* fluid major constituent is Air */
(PID.TID 0000.0001)                   F
(PID.TID 0000.0001)     ;
(PID.TID 0000.0001) fluidIsWater=  /* fluid major constituent is Water */
(PID.TID 0000.0001)                   T
(PID.TID 0000.0001)     ;
(PID.TID 0000.0001) usingPCoords =  /* use p (or p*) vertical coordinate */
(PID.TID 0000.0001)                   F
(PID.TID 0000.0001)     ;
(PID.TID 0000.0001) usingZCoords =  /* use z (or z*) vertical coordinate */
(PID.TID 0000.0001)                   T
(PID.TID 0000.0001)     ;
(PID.TID 0000.0001) tRef =   /* Reference temperature profile ( oC or K ) */
(PID.TID 0000.0001)    29 @  2.000000000000000E+01              /* K =  1: 29 */
(PID.TID 0000.0001)     ;
(PID.TID 0000.0001) sRef =   /* Reference salinity profile ( psu ) */
(PID.TID 0000.0001)    29 @  3.500000000000000E+01              /* K =  1: 29 */
(PID.TID 0000.0001)     ;
(PID.TID 0000.0001) viscAh =   /* Lateral eddy viscosity ( m^2/s ) */
(PID.TID 0000.0001)                 5.000000000000000E-06
(PID.TID 0000.0001)     ;
(PID.TID 0000.0001) viscAhMax =   /* Maximum lateral eddy viscosity ( m^2/s ) */
(PID.TID 0000.0001)                 1.000000000000000E+21
(PID.TID 0000.0001)     ;
(PID.TID 0000.0001) viscAhGrid =   /* Grid dependent lateral eddy viscosity ( non-dim. ) */
(PID.TID 0000.0001)                 0.000000000000000E+00
(PID.TID 0000.0001)     ;
(PID.TID 0000.0001) useFullLeith =   /* Use Full Form of Leith Viscosity on/off flag*/
(PID.TID 0000.0001)                   F
(PID.TID 0000.0001)     ;
(PID.TID 0000.0001) useStrainTensionVisc =   /* Use StrainTension Form of Viscous Operator on/off flag*/
(PID.TID 0000.0001)                   F
(PID.TID 0000.0001)     ;
(PID.TID 0000.0001) useAreaViscLength =   /* Use area for visc length instead of geom. mean*/
(PID.TID 0000.0001)                   F
(PID.TID 0000.0001)     ;
(PID.TID 0000.0001) viscC2leith = /* Leith harmonic visc. factor (on grad(vort),non-dim.) */
(PID.TID 0000.0001)                 0.000000000000000E+00
(PID.TID 0000.0001)     ;
(PID.TID 0000.0001) viscC2leithD = /* Leith harmonic viscosity factor (on grad(div),non-dim.) */
(PID.TID 0000.0001)                 0.000000000000000E+00
(PID.TID 0000.0001)     ;
(PID.TID 0000.0001) viscC2smag =   /* Smagorinsky harmonic viscosity factor (non-dim.) */
(PID.TID 0000.0001)                 0.000000000000000E+00
(PID.TID 0000.0001)     ;
(PID.TID 0000.0001) viscA4 =   /* Lateral biharmonic viscosity ( m^4/s ) */
(PID.TID 0000.0001)                 0.000000000000000E+00
(PID.TID 0000.0001)     ;
(PID.TID 0000.0001) viscA4Max =   /* Maximum biharmonic viscosity ( m^2/s ) */
(PID.TID 0000.0001)                 1.000000000000000E+21
(PID.TID 0000.0001)     ;
(PID.TID 0000.0001) viscA4Grid =   /* Grid dependent biharmonic viscosity ( non-dim. ) */
(PID.TID 0000.0001)                 0.000000000000000E+00
(PID.TID 0000.0001)     ;
(PID.TID 0000.0001) viscC4leith = /* Leith biharm viscosity factor (on grad(vort), non-dim.) */
(PID.TID 0000.0001)                 0.000000000000000E+00
(PID.TID 0000.0001)     ;
(PID.TID 0000.0001) viscC4leithD = /* Leith biharm viscosity factor (on grad(div), non-dim.) */
(PID.TID 0000.0001)                 0.000000000000000E+00
(PID.TID 0000.0001)     ;
(PID.TID 0000.0001) viscC4Smag = /* Smagorinsky biharm viscosity factor (non-dim) */
(PID.TID 0000.0001)                 0.000000000000000E+00
(PID.TID 0000.0001)     ;
(PID.TID 0000.0001) no_slip_sides =  /* Viscous BCs: No-slip sides */
(PID.TID 0000.0001)                   F
(PID.TID 0000.0001)     ;
(PID.TID 0000.0001) sideDragFactor = /* side-drag scaling factor (non-dim) */
(PID.TID 0000.0001)                 2.000000000000000E+00
(PID.TID 0000.0001)     ;
(PID.TID 0000.0001) viscAr =   /* Vertical eddy viscosity ( units of r^2/s ) */
(PID.TID 0000.0001)                 5.000000000000000E-06
(PID.TID 0000.0001)     ;
(PID.TID 0000.0001) no_slip_bottom =  /* Viscous BCs: No-slip bottom */
(PID.TID 0000.0001)                   F
(PID.TID 0000.0001)     ;
(PID.TID 0000.0001) bottomDragLinear = /* linear bottom-drag coefficient ( 1/s ) */
(PID.TID 0000.0001)                 0.000000000000000E+00
(PID.TID 0000.0001)     ;
(PID.TID 0000.0001) bottomDragQuadratic = /* quadratic bottom-drag coeff. ( 1/m ) */
(PID.TID 0000.0001)                 0.000000000000000E+00
(PID.TID 0000.0001)     ;
(PID.TID 0000.0001) diffKhT =   /* Laplacian diffusion of heat laterally ( m^2/s ) */
(PID.TID 0000.0001)                 2.500000000000000E-06
(PID.TID 0000.0001)     ;
(PID.TID 0000.0001) diffK4T =   /* Bihaarmonic diffusion of heat laterally ( m^4/s ) */
(PID.TID 0000.0001)                 0.000000000000000E+00
(PID.TID 0000.0001)     ;
(PID.TID 0000.0001) diffKhS =   /* Laplacian diffusion of salt laterally ( m^2/s ) */
(PID.TID 0000.0001)                 1.000000000000000E-06
(PID.TID 0000.0001)     ;
(PID.TID 0000.0001) diffK4S =   /* Bihaarmonic diffusion of salt laterally ( m^4/s ) */
(PID.TID 0000.0001)                 0.000000000000000E+00
(PID.TID 0000.0001)     ;
(PID.TID 0000.0001) diffKrNrT = /* vertical profile of vertical diffusion of Temp ( m^2/s )*/
(PID.TID 0000.0001)    29 @  2.500000000000000E-06              /* K =  1: 29 */
(PID.TID 0000.0001)     ;
(PID.TID 0000.0001) diffKrNrS = /* vertical profile of vertical diffusion of Salt ( m^2/s )*/
(PID.TID 0000.0001)    29 @  1.000000000000000E-06              /* K =  1: 29 */
(PID.TID 0000.0001)     ;
(PID.TID 0000.0001) diffKrBL79surf =   /* Surface diffusion for Bryan and Lewis 1979 ( m^2/s ) */
(PID.TID 0000.0001)                 0.000000000000000E+00
(PID.TID 0000.0001)     ;
(PID.TID 0000.0001) diffKrBL79deep =   /* Deep diffusion for Bryan and Lewis 1979 ( m^2/s ) */
(PID.TID 0000.0001)                 0.000000000000000E+00
(PID.TID 0000.0001)     ;
(PID.TID 0000.0001) diffKrBL79scl =   /* Depth scale for Bryan and Lewis 1979 ( m ) */
(PID.TID 0000.0001)                 2.000000000000000E+02
(PID.TID 0000.0001)     ;
(PID.TID 0000.0001) diffKrBL79Ho =   /* Turning depth for Bryan and Lewis 1979 ( m ) */
(PID.TID 0000.0001)                -2.000000000000000E+03
(PID.TID 0000.0001)     ;
(PID.TID 0000.0001) Equation of State : eosType = LINEAR ;
(PID.TID 0000.0001) tAlpha =   /* Linear EOS thermal expansion coefficient ( 1/oC ) */
(PID.TID 0000.0001)                 2.000000000000000E-04
(PID.TID 0000.0001)     ;
(PID.TID 0000.0001) sBeta =   /* Linear EOS haline contraction coefficient ( 1/psu ) */
(PID.TID 0000.0001)                 0.000000000000000E+00
(PID.TID 0000.0001)     ;
(PID.TID 0000.0001) rhonil =   /* Reference density ( kg/m^3 ) */
(PID.TID 0000.0001)                 1.000000000000000E+03
(PID.TID 0000.0001)     ;
(PID.TID 0000.0001) rhoConst =   /* Reference density ( kg/m^3 ) */
(PID.TID 0000.0001)                 1.000000000000000E+03
(PID.TID 0000.0001)     ;
(PID.TID 0000.0001) rhoFacC = /* normalized Reference density @ cell-Center (-) */
(PID.TID 0000.0001)    29 @  1.000000000000000E+00              /* K =  1: 29 */
(PID.TID 0000.0001)     ;
(PID.TID 0000.0001) rhoFacF = /* normalized Reference density @ W-Interface (-) */
(PID.TID 0000.0001)    30 @  1.000000000000000E+00              /* K =  1: 30 */
(PID.TID 0000.0001)     ;
(PID.TID 0000.0001) rhoConstFresh =   /* Reference density ( kg/m^3 ) */
(PID.TID 0000.0001)                 1.000000000000000E+03
(PID.TID 0000.0001)     ;
(PID.TID 0000.0001) gravity =   /* Gravitational acceleration ( m/s^2 ) */
(PID.TID 0000.0001)                 9.810000000000000E+00
(PID.TID 0000.0001)     ;
(PID.TID 0000.0001) gBaro =   /* Barotropic gravity ( m/s^2 ) */
(PID.TID 0000.0001)                 9.810000000000000E+00
(PID.TID 0000.0001)     ;
(PID.TID 0000.0001) rotationPeriod =   /* Rotation Period ( s ) */
(PID.TID 0000.0001)                 8.616400000000000E+04
(PID.TID 0000.0001)     ;
(PID.TID 0000.0001) omega =   /* Angular velocity ( rad/s ) */
(PID.TID 0000.0001)                 7.292123516990375E-05
(PID.TID 0000.0001)     ;
(PID.TID 0000.0001) f0 =   /* Reference coriolis parameter ( 1/s ) */
(PID.TID 0000.0001)                 5.000000000000000E-01
(PID.TID 0000.0001)     ;
(PID.TID 0000.0001) beta =   /* Beta ( 1/(m.s) ) */
(PID.TID 0000.0001)                 9.999999999999999E-12
(PID.TID 0000.0001)     ;
(PID.TID 0000.0001) freeSurfFac =   /* Implicit free surface factor */
(PID.TID 0000.0001)                 0.000000000000000E+00
(PID.TID 0000.0001)     ;
(PID.TID 0000.0001) implicitFreeSurface =   /* Implicit free surface on/off flag */
(PID.TID 0000.0001)                   F
(PID.TID 0000.0001)     ;
(PID.TID 0000.0001) rigidLid =   /* Rigid lid on/off flag */
(PID.TID 0000.0001)                   T
(PID.TID 0000.0001)     ;
(PID.TID 0000.0001) implicSurfPress =   /* Surface Pressure implicit factor (0-1)*/
(PID.TID 0000.0001)                 1.000000000000000E+00
(PID.TID 0000.0001)     ;
(PID.TID 0000.0001) implicDiv2Dflow =   /* Barot. Flow Div. implicit factor (0-1)*/
(PID.TID 0000.0001)                 1.000000000000000E+00
(PID.TID 0000.0001)     ;
(PID.TID 0000.0001) exactConserv =   /* Exact Volume Conservation on/off flag*/
(PID.TID 0000.0001)                   F
(PID.TID 0000.0001)     ;
(PID.TID 0000.0001) uniformLin_PhiSurf =   /* use uniform Bo_surf on/off flag*/
(PID.TID 0000.0001)                   T
(PID.TID 0000.0001)     ;
(PID.TID 0000.0001) nonlinFreeSurf =   /* Non-linear Free Surf. options (-1,0,1,2,3)*/
(PID.TID 0000.0001)                       0
(PID.TID 0000.0001)     ;
(PID.TID 0000.0001)      -1,0= Off ; 1,2,3= On, 2=+rescale gU,gV, 3=+update cg2d solv.
(PID.TID 0000.0001) hFacInf =   /* lower threshold for hFac (nonlinFreeSurf only)*/
(PID.TID 0000.0001)                 2.000000000000000E-01
(PID.TID 0000.0001)     ;
(PID.TID 0000.0001) hFacSup =   /* upper threshold for hFac (nonlinFreeSurf only)*/
(PID.TID 0000.0001)                 2.000000000000000E+00
(PID.TID 0000.0001)     ;
(PID.TID 0000.0001) select_rStar =   /* r* Coordinate options (not yet implemented)*/
(PID.TID 0000.0001)                       0
(PID.TID 0000.0001)     ;
(PID.TID 0000.0001) useRealFreshWaterFlux =   /* Real Fresh Water Flux on/off flag*/
(PID.TID 0000.0001)                   F
(PID.TID 0000.0001)     ;
(PID.TID 0000.0001) convertFW2Salt = /* convert F.W. Flux to Salt Flux (-1=use local S)(ppt)*/
(PID.TID 0000.0001)                 3.500000000000000E+01
(PID.TID 0000.0001)     ;
(PID.TID 0000.0001) use3Dsolver = /* use 3-D pressure solver on/off flag */
(PID.TID 0000.0001)                   T
(PID.TID 0000.0001)     ;
(PID.TID 0000.0001) nonHydrostatic =  /* Non-Hydrostatic on/off flag */
(PID.TID 0000.0001)                   T
(PID.TID 0000.0001)     ;
(PID.TID 0000.0001) nh_Am2 = /* Non-Hydrostatic terms scaling factor */
(PID.TID 0000.0001)                 1.000000000000000E+00
(PID.TID 0000.0001)     ;
(PID.TID 0000.0001) quasiHydrostatic = /* Quasi-Hydrostatic on/off flag */
(PID.TID 0000.0001)                   F
(PID.TID 0000.0001)     ;
(PID.TID 0000.0001) momStepping =  /* Momentum equation on/off flag */
(PID.TID 0000.0001)                   T
(PID.TID 0000.0001)     ;
(PID.TID 0000.0001) vectorInvariantMomentum= /* Vector-Invariant Momentum on/off */
(PID.TID 0000.0001)                   F
(PID.TID 0000.0001)     ;
(PID.TID 0000.0001) momAdvection =  /* Momentum advection on/off flag */
(PID.TID 0000.0001)                   T
(PID.TID 0000.0001)     ;
(PID.TID 0000.0001) momViscosity =  /* Momentum viscosity on/off flag */
(PID.TID 0000.0001)                   T
(PID.TID 0000.0001)     ;
(PID.TID 0000.0001) momImplVertAdv =/* Momentum implicit vert. advection on/off*/
(PID.TID 0000.0001)                   F
(PID.TID 0000.0001)     ;
(PID.TID 0000.0001) implicitViscosity = /* Implicit viscosity on/off flag */
(PID.TID 0000.0001)                   F
(PID.TID 0000.0001)     ;
(PID.TID 0000.0001) metricTerms =  /* metric-Terms on/off flag */
(PID.TID 0000.0001)                   T
(PID.TID 0000.0001)     ;
(PID.TID 0000.0001) useNHMTerms = /* Non-Hydrostatic Metric-Terms on/off */
(PID.TID 0000.0001)                   F
(PID.TID 0000.0001)     ;
(PID.TID 0000.0001) useConstantF =  /* use Constant f0 Coriolis flag */
(PID.TID 0000.0001)                   F
(PID.TID 0000.0001)     ;
(PID.TID 0000.0001) useBetaPlaneF = /* use Beta-Plane Coriolis flag */
(PID.TID 0000.0001)                   T
(PID.TID 0000.0001)     ;
(PID.TID 0000.0001) useSphereF  =   /* use Spherical Coriolis flag */
(PID.TID 0000.0001)                   F
(PID.TID 0000.0001)     ;
(PID.TID 0000.0001) use3dCoriolis = /* 3-D Coriolis on/off flag */
(PID.TID 0000.0001)                   F
(PID.TID 0000.0001)     ;
(PID.TID 0000.0001) useCoriolis =  /* Coriolis on/off flag */
(PID.TID 0000.0001)                   T
(PID.TID 0000.0001)     ;
(PID.TID 0000.0001) useCDscheme =  /* CD scheme on/off flag */
(PID.TID 0000.0001)                   F
(PID.TID 0000.0001)     ;
(PID.TID 0000.0001) useJamartWetPoints= /* Coriolis WetPoints method flag */
(PID.TID 0000.0001)                   F
(PID.TID 0000.0001)     ;
(PID.TID 0000.0001) useJamartMomAdv= /* V.I. Non-linear terms Jamart flag */
(PID.TID 0000.0001)                   F
(PID.TID 0000.0001)     ;
(PID.TID 0000.0001) SadournyCoriolis= /* Sadourny Coriolis discr. flag */
(PID.TID 0000.0001)                   F
(PID.TID 0000.0001)     ;
(PID.TID 0000.0001) upwindVorticity= /* Upwind bias vorticity flag */
(PID.TID 0000.0001)                   F
(PID.TID 0000.0001)     ;
(PID.TID 0000.0001) useAbsVorticity= /* Work with f+zeta in Coriolis */
(PID.TID 0000.0001)                   F
(PID.TID 0000.0001)     ;
(PID.TID 0000.0001) highOrderVorticity= /* High order interp. of vort. flag */
(PID.TID 0000.0001)                   F
(PID.TID 0000.0001)     ;
(PID.TID 0000.0001) upwindShear= /* Upwind vertical Shear advection flag */
(PID.TID 0000.0001)                   F
(PID.TID 0000.0001)     ;
(PID.TID 0000.0001) selectKEscheme= /* Kinetic Energy scheme selector */
(PID.TID 0000.0001)                       0
(PID.TID 0000.0001)     ;
(PID.TID 0000.0001) momForcing =  /* Momentum forcing on/off flag */
(PID.TID 0000.0001)                   T
(PID.TID 0000.0001)     ;
(PID.TID 0000.0001) momPressureForcing =  /* Momentum pressure term on/off flag */
(PID.TID 0000.0001)                   T
(PID.TID 0000.0001)     ;
(PID.TID 0000.0001) implicitIntGravWave= /* Implicit Internal Gravity Wave flag */
(PID.TID 0000.0001)                   F
(PID.TID 0000.0001)     ;
(PID.TID 0000.0001) staggerTimeStep =   /* Stagger time stepping on/off flag */
(PID.TID 0000.0001)                   F
(PID.TID 0000.0001)     ;
(PID.TID 0000.0001) multiDimAdvection =   /* enable/disable Multi-Dim Advection */
(PID.TID 0000.0001)                   T
(PID.TID 0000.0001)     ;
(PID.TID 0000.0001) useMultiDimAdvec =   /* Multi-Dim Advection is/is-not used */
(PID.TID 0000.0001)                   F
(PID.TID 0000.0001)     ;
(PID.TID 0000.0001) implicitDiffusion =/* Implicit Diffusion on/off flag */
(PID.TID 0000.0001)                   F
(PID.TID 0000.0001)     ;
(PID.TID 0000.0001) tempStepping =  /* Temperature equation on/off flag */
(PID.TID 0000.0001)                   T
(PID.TID 0000.0001)     ;
(PID.TID 0000.0001) tempAdvection=  /* Temperature advection on/off flag */
(PID.TID 0000.0001)                   T
(PID.TID 0000.0001)     ;
(PID.TID 0000.0001) tempImplVertAdv =/* Temp. implicit vert. advection on/off */
(PID.TID 0000.0001)                   F
(PID.TID 0000.0001)     ;
(PID.TID 0000.0001) tempForcing  =  /* Temperature forcing on/off flag */
(PID.TID 0000.0001)                   T
(PID.TID 0000.0001)     ;
(PID.TID 0000.0001) saltStepping =  /* Salinity equation on/off flag */
(PID.TID 0000.0001)                   T
(PID.TID 0000.0001)     ;
(PID.TID 0000.0001) saltAdvection=  /* Salinity advection on/off flag */
(PID.TID 0000.0001)                   T
(PID.TID 0000.0001)     ;
(PID.TID 0000.0001) saltImplVertAdv =/* Sali. implicit vert. advection on/off */
(PID.TID 0000.0001)                   F
(PID.TID 0000.0001)     ;
(PID.TID 0000.0001) saltForcing  =  /* Salinity forcing on/off flag */
(PID.TID 0000.0001)                   T
(PID.TID 0000.0001)     ;
(PID.TID 0000.0001)  readBinaryPrec = /* Precision used for reading binary files */
(PID.TID 0000.0001)                      32
(PID.TID 0000.0001)     ;
(PID.TID 0000.0001) writeBinaryPrec = /* Precision used for writing binary files */
(PID.TID 0000.0001)                      32
(PID.TID 0000.0001)     ;
(PID.TID 0000.0001)  globalFiles = /* write "global" (=not per tile) files */
(PID.TID 0000.0001)                   F
(PID.TID 0000.0001)     ;
(PID.TID 0000.0001)  useSingleCpuIO = /* only master MPI process does I/O */
(PID.TID 0000.0001)                   F
(PID.TID 0000.0001)     ;
(PID.TID 0000.0001)  debugMode  =  /* Debug Mode on/off flag */
(PID.TID 0000.0001)                   F
(PID.TID 0000.0001)     ;
(PID.TID 0000.0001)    debLevA  =  /* 1rst level of debugging */
(PID.TID 0000.0001)                       1
(PID.TID 0000.0001)     ;
(PID.TID 0000.0001)    debLevB  =  /* 2nd  level of debugging */
(PID.TID 0000.0001)                       2
(PID.TID 0000.0001)     ;
(PID.TID 0000.0001)  debugLevel =  /* select debugging level */
(PID.TID 0000.0001)                       1
(PID.TID 0000.0001)     ;
(PID.TID 0000.0001) //
(PID.TID 0000.0001) // Elliptic solver(s) paramters ( PARM02 in namelist )
(PID.TID 0000.0001) //
(PID.TID 0000.0001) cg2dMaxIters =   /* Upper limit on 2d con. grad iterations  */
(PID.TID 0000.0001)                    1000
(PID.TID 0000.0001)     ;
(PID.TID 0000.0001) cg2dChkResFreq =   /* 2d con. grad convergence test frequency */
(PID.TID 0000.0001)                       1
(PID.TID 0000.0001)     ;
(PID.TID 0000.0001) cg2dTargetResidual =   /* 2d con. grad target residual  */
(PID.TID 0000.0001)                 1.000000000000000E-07
(PID.TID 0000.0001)     ;
(PID.TID 0000.0001) cg2dTargetResWunit =   /* CG2d target residual [W units] */
(PID.TID 0000.0001)                -1.000000000000000E+00
(PID.TID 0000.0001)     ;
(PID.TID 0000.0001) cg2dPreCondFreq =   /* Freq. for updating cg2d preconditioner */
(PID.TID 0000.0001)                       1
(PID.TID 0000.0001)     ;
(PID.TID 0000.0001) //
(PID.TID 0000.0001) // Time stepping paramters ( PARM03 in namelist )
(PID.TID 0000.0001) //
(PID.TID 0000.0001) nIter0 =   /* Run starting timestep number  */
(PID.TID 0000.0001)                       0
(PID.TID 0000.0001)     ;
(PID.TID 0000.0001) nTimeSteps =   /* Number of timesteps */
(PID.TID 0000.0001)                      20
(PID.TID 0000.0001)     ;
(PID.TID 0000.0001) deltaTmom =   /* Momentum equation timestep ( s ) */
(PID.TID 0000.0001)                 1.000000000000000E-01
(PID.TID 0000.0001)     ;
(PID.TID 0000.0001) deltaTfreesurf =   /* FreeSurface equation timestep ( s ) */
(PID.TID 0000.0001)                 1.000000000000000E-01
(PID.TID 0000.0001)     ;
(PID.TID 0000.0001) dTtracerLev =   /* Tracer equation timestep ( s ) */
(PID.TID 0000.0001)    29 @  1.000000000000000E-01              /* K =  1: 29 */
(PID.TID 0000.0001)     ;
(PID.TID 0000.0001) deltaTClock  =   /* Model clock timestep ( s ) */
(PID.TID 0000.0001)                 1.000000000000000E-01
(PID.TID 0000.0001)     ;
(PID.TID 0000.0001) cAdjFreq =   /* Convective adjustment interval ( s ) */
(PID.TID 0000.0001)                 0.000000000000000E+00
(PID.TID 0000.0001)     ;
(PID.TID 0000.0001) momForcingOutAB = /* =1: take Momentum Forcing out of Adams-Bash. stepping */
(PID.TID 0000.0001)                       0
(PID.TID 0000.0001)     ;
(PID.TID 0000.0001) tracForcingOutAB = /* =1: take T,S,pTr Forcing out of Adams-Bash. stepping */
(PID.TID 0000.0001)                       0
(PID.TID 0000.0001)     ;
(PID.TID 0000.0001) momDissip_In_AB = /* put Dissipation Tendency in Adams-Bash. stepping */
(PID.TID 0000.0001)                   T
(PID.TID 0000.0001)     ;
(PID.TID 0000.0001) doAB_onGtGs = /* apply AB on Tendencies (rather than on T,S)*/
(PID.TID 0000.0001)                   T
(PID.TID 0000.0001)     ;
(PID.TID 0000.0001) abEps =   /* Adams-Bashforth-2 stabilizing weight */
(PID.TID 0000.0001)                 1.000000000000000E-01
(PID.TID 0000.0001)     ;
(PID.TID 0000.0001) baseTime =   /* Model base time ( s ). */
(PID.TID 0000.0001)                 0.000000000000000E+00
(PID.TID 0000.0001)     ;
(PID.TID 0000.0001) startTime =   /* Run start time ( s ). */
(PID.TID 0000.0001)                 0.000000000000000E+00
(PID.TID 0000.0001)     ;
(PID.TID 0000.0001) endTime =   /* Integration ending time ( s ). */
(PID.TID 0000.0001)                 2.000000000000000E+00
(PID.TID 0000.0001)     ;
(PID.TID 0000.0001) pChkPtFreq =   /* Permanent restart/checkpoint file interval ( s ). */
(PID.TID 0000.0001)                 2.000000000000000E+00
(PID.TID 0000.0001)     ;
(PID.TID 0000.0001) chkPtFreq =   /* Rolling restart/checkpoint file interval ( s ). */
(PID.TID 0000.0001)                 0.000000000000000E+00
(PID.TID 0000.0001)     ;
(PID.TID 0000.0001) pickup_write_mdsio =   /* Model IO flag. */
(PID.TID 0000.0001)                   T
(PID.TID 0000.0001)     ;
(PID.TID 0000.0001) pickup_read_mdsio =   /* Model IO flag. */
(PID.TID 0000.0001)                   T
(PID.TID 0000.0001)     ;
(PID.TID 0000.0001) pickup_write_mnc =   /* Model IO flag. */
(PID.TID 0000.0001)                   F
(PID.TID 0000.0001)     ;
(PID.TID 0000.0001) pickup_read_mnc =   /* Model IO flag. */
(PID.TID 0000.0001)                   F
(PID.TID 0000.0001)     ;
(PID.TID 0000.0001) pickup_write_immed =   /* Model IO flag. */
(PID.TID 0000.0001)                   F
(PID.TID 0000.0001)     ;
(PID.TID 0000.0001) dumpFreq =   /* Model state write out interval ( s ). */
(PID.TID 0000.0001)                 2.000000000000000E+00
(PID.TID 0000.0001)     ;
(PID.TID 0000.0001) dumpInitAndLast= /* write out Initial & Last iter. model state */
(PID.TID 0000.0001)                   T
(PID.TID 0000.0001)     ;
(PID.TID 0000.0001) snapshot_mdsio =   /* Model IO flag. */
(PID.TID 0000.0001)                   F
(PID.TID 0000.0001)     ;
(PID.TID 0000.0001) snapshot_mnc =   /* Model IO flag. */
(PID.TID 0000.0001)                   T
(PID.TID 0000.0001)     ;
(PID.TID 0000.0001) monitorFreq =   /* Monitor output interval ( s ). */
(PID.TID 0000.0001)                 1.000000000000000E-01
(PID.TID 0000.0001)     ;
(PID.TID 0000.0001) monitor_stdio =   /* Model IO flag. */
(PID.TID 0000.0001)                   T
(PID.TID 0000.0001)     ;
(PID.TID 0000.0001) monitor_mnc =   /* Model IO flag. */
(PID.TID 0000.0001)                   F
(PID.TID 0000.0001)     ;
(PID.TID 0000.0001) externForcingPeriod =   /* forcing period (s) */
(PID.TID 0000.0001)                 0.000000000000000E+00
(PID.TID 0000.0001)     ;
(PID.TID 0000.0001) externForcingCycle =   /* period of the cyle (s). */
(PID.TID 0000.0001)                 0.000000000000000E+00
(PID.TID 0000.0001)     ;
(PID.TID 0000.0001) tauThetaClimRelax =   /* relaxation time scale (s) */
(PID.TID 0000.0001)                 0.000000000000000E+00
(PID.TID 0000.0001)     ;
(PID.TID 0000.0001) tauSaltClimRelax =   /* relaxation time scale (s) */
(PID.TID 0000.0001)                 0.000000000000000E+00
(PID.TID 0000.0001)     ;
(PID.TID 0000.0001) latBandClimRelax =   /* max. Lat. where relaxation */
(PID.TID 0000.0001)                 6.900000000000002E-01
(PID.TID 0000.0001)     ;
(PID.TID 0000.0001) //
(PID.TID 0000.0001) // Gridding paramters ( PARM04 in namelist )
(PID.TID 0000.0001) //
(PID.TID 0000.0001) usingCartesianGrid = /* Cartesian coordinates flag ( True/False ) */
(PID.TID 0000.0001)                   F
(PID.TID 0000.0001)     ;
(PID.TID 0000.0001) usingCylindricalGrid = /* Cylindrical coordinates flag ( True/False ) */
(PID.TID 0000.0001)                   T
(PID.TID 0000.0001)     ;
(PID.TID 0000.0001) usingSphericalPolarGrid = /* Spherical coordinates flag ( True/False ) */
(PID.TID 0000.0001)                   F
(PID.TID 0000.0001)     ;
(PID.TID 0000.0001) usingCurvilinearGrid = /* Curvilinear coordinates flag ( True/False ) */
(PID.TID 0000.0001)                   F
(PID.TID 0000.0001)     ;
(PID.TID 0000.0001) Ro_SeaLevel = /* r(1) ( units of r ) */
(PID.TID 0000.0001)                 0.000000000000000E+00
(PID.TID 0000.0001)     ;
(PID.TID 0000.0001) rkSign =   /* index orientation relative to vertical coordinate */
(PID.TID 0000.0001)                -1.000000000000000E+00
(PID.TID 0000.0001)     ;
(PID.TID 0000.0001) gravitySign = /* gravity orientation relative to vertical coordinate */
(PID.TID 0000.0001)                -1.000000000000000E+00
(PID.TID 0000.0001)     ;
(PID.TID 0000.0001) horiVertRatio =   /* Ratio on units : Horiz - Vertical */
(PID.TID 0000.0001)                 1.000000000000000E+00
(PID.TID 0000.0001)     ;
(PID.TID 0000.0001) drC =   /* C spacing ( units of r ) */
(PID.TID 0000.0001)                 2.500000000000000E-03,      /* K =  1 */
(PID.TID 0000.0001)    28 @  5.000000000000000E-03              /* K =  2: 29 */
(PID.TID 0000.0001)     ;
(PID.TID 0000.0001) drF =   /* W spacing ( units of r ) */
(PID.TID 0000.0001)    29 @  5.000000000000000E-03              /* K =  1: 29 */
(PID.TID 0000.0001)     ;
(PID.TID 0000.0001) delX =   /* U spacing ( m - cartesian, degrees - spherical ) */
(PID.TID 0000.0001)   120 @  3.000000000000000E+00              /* I =  1:120 */
(PID.TID 0000.0001)     ;
(PID.TID 0000.0001) delY =   /* V spacing ( m - cartesian, degrees - spherical ) */
(PID.TID 0000.0001)    23 @  1.000000000000000E-02              /* J =  1: 23 */
(PID.TID 0000.0001)     ;
(PID.TID 0000.0001) phiMin =    /* South edge (ignored - cartesian, degrees - spherical ) */
(PID.TID 0000.0001)                 7.000000000000001E-02
(PID.TID 0000.0001)     ;
(PID.TID 0000.0001) thetaMin =    /* West edge ( ignored - cartesian, degrees - spherical ) */
(PID.TID 0000.0001)                 0.000000000000000E+00
(PID.TID 0000.0001)     ;
(PID.TID 0000.0001) rSphere =  /* Radius ( ignored - cartesian, m - spherical ) */
(PID.TID 0000.0001)                 6.370000000000000E+06
(PID.TID 0000.0001)     ;
(PID.TID 0000.0001) deepAtmosphere = /* Deep/Shallow Atmosphere flag (True/False) */
(PID.TID 0000.0001)                   F
(PID.TID 0000.0001)     ;
(PID.TID 0000.0001) xcoord =   /* P-point X coord ( m - cartesian, degrees - spherical ) */
(PID.TID 0000.0001)                 1.500000000000000E+00,      /* I =  1 */
(PID.TID 0000.0001)                 4.500000000000000E+00,      /* I =  2 */
(PID.TID 0000.0001)                 7.500000000000000E+00,      /* I =  3 */
(PID.TID 0000.0001)                 1.050000000000000E+01,      /* I =  4 */
(PID.TID 0000.0001)                 1.350000000000000E+01,      /* I =  5 */
(PID.TID 0000.0001)                 1.650000000000000E+01,      /* I =  6 */
(PID.TID 0000.0001)                 1.950000000000000E+01,      /* I =  7 */
(PID.TID 0000.0001)                 2.250000000000000E+01,      /* I =  8 */
(PID.TID 0000.0001)                 2.550000000000000E+01,      /* I =  9 */
(PID.TID 0000.0001)                 2.850000000000000E+01,      /* I = 10 */
(PID.TID 0000.0001)                 3.150000000000000E+01,      /* I = 11 */
(PID.TID 0000.0001)                 3.450000000000000E+01,      /* I = 12 */
(PID.TID 0000.0001)                 3.750000000000000E+01,      /* I = 13 */
(PID.TID 0000.0001)                 4.050000000000000E+01,      /* I = 14 */
(PID.TID 0000.0001)                 4.350000000000000E+01,      /* I = 15 */
(PID.TID 0000.0001)                 4.650000000000000E+01,      /* I = 16 */
(PID.TID 0000.0001)                 4.950000000000000E+01,      /* I = 17 */
(PID.TID 0000.0001)                 5.250000000000000E+01,      /* I = 18 */
(PID.TID 0000.0001)                 5.550000000000000E+01,      /* I = 19 */
(PID.TID 0000.0001)                 5.850000000000000E+01,      /* I = 20 */
(PID.TID 0000.0001)                 6.150000000000000E+01,      /* I = 21 */
(PID.TID 0000.0001)                 6.450000000000000E+01,      /* I = 22 */
(PID.TID 0000.0001)                 6.750000000000000E+01,      /* I = 23 */
(PID.TID 0000.0001)                 7.050000000000000E+01,      /* I = 24 */
(PID.TID 0000.0001)                 7.350000000000000E+01,      /* I = 25 */
(PID.TID 0000.0001)                 7.650000000000000E+01,      /* I = 26 */
(PID.TID 0000.0001)                 7.950000000000000E+01,      /* I = 27 */
(PID.TID 0000.0001)                 8.250000000000000E+01,      /* I = 28 */
(PID.TID 0000.0001)                 8.550000000000000E+01,      /* I = 29 */
(PID.TID 0000.0001)                 8.850000000000000E+01,      /* I = 30 */
(PID.TID 0000.0001)                 9.150000000000000E+01,      /* I = 31 */
(PID.TID 0000.0001)                 9.450000000000000E+01,      /* I = 32 */
(PID.TID 0000.0001)                 9.750000000000000E+01,      /* I = 33 */
(PID.TID 0000.0001)                 1.005000000000000E+02,      /* I = 34 */
(PID.TID 0000.0001)                 1.035000000000000E+02,      /* I = 35 */
(PID.TID 0000.0001)                 1.065000000000000E+02,      /* I = 36 */
(PID.TID 0000.0001)                 1.095000000000000E+02,      /* I = 37 */
(PID.TID 0000.0001)                 1.125000000000000E+02,      /* I = 38 */
(PID.TID 0000.0001)                 1.155000000000000E+02,      /* I = 39 */
(PID.TID 0000.0001)                 1.185000000000000E+02,      /* I = 40 */
(PID.TID 0000.0001)                 1.215000000000000E+02,      /* I = 41 */
(PID.TID 0000.0001)                 1.245000000000000E+02,      /* I = 42 */
(PID.TID 0000.0001)                 1.275000000000000E+02,      /* I = 43 */
(PID.TID 0000.0001)                 1.305000000000000E+02,      /* I = 44 */
(PID.TID 0000.0001)                 1.335000000000000E+02,      /* I = 45 */
(PID.TID 0000.0001)                 1.365000000000000E+02,      /* I = 46 */
(PID.TID 0000.0001)                 1.395000000000000E+02,      /* I = 47 */
(PID.TID 0000.0001)                 1.425000000000000E+02,      /* I = 48 */
(PID.TID 0000.0001)                 1.455000000000000E+02,      /* I = 49 */
(PID.TID 0000.0001)                 1.485000000000000E+02,      /* I = 50 */
(PID.TID 0000.0001)                 1.515000000000000E+02,      /* I = 51 */
(PID.TID 0000.0001)                 1.545000000000000E+02,      /* I = 52 */
(PID.TID 0000.0001)                 1.575000000000000E+02,      /* I = 53 */
(PID.TID 0000.0001)                 1.605000000000000E+02,      /* I = 54 */
(PID.TID 0000.0001)                 1.635000000000000E+02,      /* I = 55 */
(PID.TID 0000.0001)                 1.665000000000000E+02,      /* I = 56 */
(PID.TID 0000.0001)                 1.695000000000000E+02,      /* I = 57 */
(PID.TID 0000.0001)                 1.725000000000000E+02,      /* I = 58 */
(PID.TID 0000.0001)                 1.755000000000000E+02,      /* I = 59 */
(PID.TID 0000.0001)                 1.785000000000000E+02,      /* I = 60 */
(PID.TID 0000.0001)                 1.815000000000000E+02,      /* I = 61 */
(PID.TID 0000.0001)                 1.845000000000000E+02,      /* I = 62 */
(PID.TID 0000.0001)                 1.875000000000000E+02,      /* I = 63 */
(PID.TID 0000.0001)                 1.905000000000000E+02,      /* I = 64 */
(PID.TID 0000.0001)                 1.935000000000000E+02,      /* I = 65 */
(PID.TID 0000.0001)                 1.965000000000000E+02,      /* I = 66 */
(PID.TID 0000.0001)                 1.995000000000000E+02,      /* I = 67 */
(PID.TID 0000.0001)                 2.025000000000000E+02,      /* I = 68 */
(PID.TID 0000.0001)                 2.055000000000000E+02,      /* I = 69 */
(PID.TID 0000.0001)                 2.085000000000000E+02,      /* I = 70 */
(PID.TID 0000.0001)                 2.115000000000000E+02,      /* I = 71 */
(PID.TID 0000.0001)                 2.145000000000000E+02,      /* I = 72 */
(PID.TID 0000.0001)                 2.175000000000000E+02,      /* I = 73 */
(PID.TID 0000.0001)                 2.205000000000000E+02,      /* I = 74 */
(PID.TID 0000.0001)                 2.235000000000000E+02,      /* I = 75 */
(PID.TID 0000.0001)                 2.265000000000000E+02,      /* I = 76 */
(PID.TID 0000.0001)                 2.295000000000000E+02,      /* I = 77 */
(PID.TID 0000.0001)                 2.325000000000000E+02,      /* I = 78 */
(PID.TID 0000.0001)                 2.355000000000000E+02,      /* I = 79 */
(PID.TID 0000.0001)                 2.385000000000000E+02,      /* I = 80 */
(PID.TID 0000.0001)                 2.415000000000000E+02,      /* I = 81 */
(PID.TID 0000.0001)                 2.445000000000000E+02,      /* I = 82 */
(PID.TID 0000.0001)                 2.475000000000000E+02,      /* I = 83 */
(PID.TID 0000.0001)                 2.505000000000000E+02,      /* I = 84 */
(PID.TID 0000.0001)                 2.535000000000000E+02,      /* I = 85 */
(PID.TID 0000.0001)                 2.565000000000000E+02,      /* I = 86 */
(PID.TID 0000.0001)                 2.595000000000000E+02,      /* I = 87 */
(PID.TID 0000.0001)                 2.625000000000000E+02,      /* I = 88 */
(PID.TID 0000.0001)                 2.655000000000000E+02,      /* I = 89 */
(PID.TID 0000.0001)                 2.685000000000000E+02,      /* I = 90 */
(PID.TID 0000.0001)                 2.715000000000000E+02,      /* I = 91 */
(PID.TID 0000.0001)                 2.745000000000000E+02,      /* I = 92 */
(PID.TID 0000.0001)                 2.775000000000000E+02,      /* I = 93 */
(PID.TID 0000.0001)                 2.805000000000000E+02,      /* I = 94 */
(PID.TID 0000.0001)                 2.835000000000000E+02,      /* I = 95 */
(PID.TID 0000.0001)                 2.865000000000000E+02,      /* I = 96 */
(PID.TID 0000.0001)                 2.895000000000000E+02,      /* I = 97 */
(PID.TID 0000.0001)                 2.925000000000000E+02,      /* I = 98 */
(PID.TID 0000.0001)                 2.955000000000000E+02,      /* I = 99 */
(PID.TID 0000.0001)                 2.985000000000000E+02,      /* I =100 */
(PID.TID 0000.0001)                 3.015000000000000E+02,      /* I =101 */
(PID.TID 0000.0001)                 3.045000000000000E+02,      /* I =102 */
(PID.TID 0000.0001)                 3.075000000000000E+02,      /* I =103 */
(PID.TID 0000.0001)                 3.105000000000000E+02,      /* I =104 */
(PID.TID 0000.0001)                 3.135000000000000E+02,      /* I =105 */
(PID.TID 0000.0001)                 3.165000000000000E+02,      /* I =106 */
(PID.TID 0000.0001)                 3.195000000000000E+02,      /* I =107 */
(PID.TID 0000.0001)                 3.225000000000000E+02,      /* I =108 */
(PID.TID 0000.0001)                 3.255000000000000E+02,      /* I =109 */
(PID.TID 0000.0001)                 3.285000000000000E+02,      /* I =110 */
(PID.TID 0000.0001)                 3.315000000000000E+02,      /* I =111 */
(PID.TID 0000.0001)                 3.345000000000000E+02,      /* I =112 */
(PID.TID 0000.0001)                 3.375000000000000E+02,      /* I =113 */
(PID.TID 0000.0001)                 3.405000000000000E+02,      /* I =114 */
(PID.TID 0000.0001)                 3.435000000000000E+02,      /* I =115 */
(PID.TID 0000.0001)                 3.465000000000000E+02,      /* I =116 */
(PID.TID 0000.0001)                 3.495000000000000E+02,      /* I =117 */
(PID.TID 0000.0001)                 3.525000000000000E+02,      /* I =118 */
(PID.TID 0000.0001)                 3.555000000000000E+02,      /* I =119 */
(PID.TID 0000.0001)                 3.585000000000000E+02       /* I =120 */
(PID.TID 0000.0001)     ;
(PID.TID 0000.0001) ycoord =   /* P-point Y coord ( m - cartesian, degrees - spherical ) */
(PID.TID 0000.0001)                 7.500000000000001E-02,      /* J =  1 */
(PID.TID 0000.0001)                 8.499999999999999E-02,      /* J =  2 */
(PID.TID 0000.0001)                 9.499999999999999E-02,      /* J =  3 */
(PID.TID 0000.0001)                 1.050000000000000E-01,      /* J =  4 */
(PID.TID 0000.0001)                 1.150000000000000E-01,      /* J =  5 */
(PID.TID 0000.0001)                 1.250000000000000E-01,      /* J =  6 */
(PID.TID 0000.0001)                 1.350000000000000E-01,      /* J =  7 */
(PID.TID 0000.0001)                 1.450000000000000E-01,      /* J =  8 */
(PID.TID 0000.0001)                 1.550000000000000E-01,      /* J =  9 */
(PID.TID 0000.0001)                 1.650000000000000E-01,      /* J = 10 */
(PID.TID 0000.0001)                 1.750000000000000E-01,      /* J = 11 */
(PID.TID 0000.0001)                 1.850000000000000E-01,      /* J = 12 */
(PID.TID 0000.0001)                 1.950000000000000E-01,      /* J = 13 */
(PID.TID 0000.0001)                 2.050000000000000E-01,      /* J = 14 */
(PID.TID 0000.0001)                 2.150000000000001E-01,      /* J = 15 */
(PID.TID 0000.0001)                 2.250000000000001E-01,      /* J = 16 */
(PID.TID 0000.0001)                 2.350000000000001E-01,      /* J = 17 */
(PID.TID 0000.0001)                 2.450000000000001E-01,      /* J = 18 */
(PID.TID 0000.0001)                 2.550000000000001E-01,      /* J = 19 */
(PID.TID 0000.0001)                 2.650000000000001E-01,      /* J = 20 */
(PID.TID 0000.0001)                 2.750000000000001E-01,      /* J = 21 */
(PID.TID 0000.0001)                 2.850000000000001E-01,      /* J = 22 */
(PID.TID 0000.0001)                 2.950000000000001E-01       /* J = 23 */
(PID.TID 0000.0001)     ;
(PID.TID 0000.0001) rcoord =   /* P-point R coordinate (  units of r ) */
(PID.TID 0000.0001)                -2.500000000000000E-03,      /* K =  1 */
(PID.TID 0000.0001)                -7.500000000000000E-03,      /* K =  2 */
(PID.TID 0000.0001)                -1.250000000000000E-02,      /* K =  3 */
(PID.TID 0000.0001)                -1.750000000000000E-02,      /* K =  4 */
(PID.TID 0000.0001)                -2.250000000000000E-02,      /* K =  5 */
(PID.TID 0000.0001)                -2.750000000000000E-02,      /* K =  6 */
(PID.TID 0000.0001)                -3.250000000000000E-02,      /* K =  7 */
(PID.TID 0000.0001)                -3.750000000000000E-02,      /* K =  8 */
(PID.TID 0000.0001)                -4.250000000000000E-02,      /* K =  9 */
(PID.TID 0000.0001)                -4.749999999999999E-02,      /* K = 10 */
(PID.TID 0000.0001)                -5.249999999999999E-02,      /* K = 11 */
(PID.TID 0000.0001)                -5.749999999999999E-02,      /* K = 12 */
(PID.TID 0000.0001)                -6.249999999999999E-02,      /* K = 13 */
(PID.TID 0000.0001)                -6.749999999999999E-02,      /* K = 14 */
(PID.TID 0000.0001)                -7.250000000000000E-02,      /* K = 15 */
(PID.TID 0000.0001)                -7.750000000000000E-02,      /* K = 16 */
(PID.TID 0000.0001)                -8.250000000000000E-02,      /* K = 17 */
(PID.TID 0000.0001)                -8.750000000000001E-02,      /* K = 18 */
(PID.TID 0000.0001)                -9.250000000000001E-02,      /* K = 19 */
(PID.TID 0000.0001)                -9.750000000000002E-02,      /* K = 20 */
(PID.TID 0000.0001)                -1.025000000000000E-01,      /* K = 21 */
(PID.TID 0000.0001)                -1.075000000000000E-01,      /* K = 22 */
(PID.TID 0000.0001)                -1.125000000000000E-01,      /* K = 23 */
(PID.TID 0000.0001)                -1.175000000000000E-01,      /* K = 24 */
(PID.TID 0000.0001)                -1.225000000000000E-01,      /* K = 25 */
(PID.TID 0000.0001)                -1.275000000000000E-01,      /* K = 26 */
(PID.TID 0000.0001)                -1.325000000000000E-01,      /* K = 27 */
(PID.TID 0000.0001)                -1.375000000000000E-01,      /* K = 28 */
(PID.TID 0000.0001)                -1.425000000000000E-01       /* K = 29 */
(PID.TID 0000.0001)     ;
(PID.TID 0000.0001) rF =   /* W-Interf. R coordinate (  units of r ) */
(PID.TID 0000.0001)                 0.000000000000000E+00,      /* K =  1 */
(PID.TID 0000.0001)                -5.000000000000000E-03,      /* K =  2 */
(PID.TID 0000.0001)                -1.000000000000000E-02,      /* K =  3 */
(PID.TID 0000.0001)                -1.500000000000000E-02,      /* K =  4 */
(PID.TID 0000.0001)                -2.000000000000000E-02,      /* K =  5 */
(PID.TID 0000.0001)                -2.500000000000000E-02,      /* K =  6 */
(PID.TID 0000.0001)                -3.000000000000000E-02,      /* K =  7 */
(PID.TID 0000.0001)                -3.500000000000000E-02,      /* K =  8 */
(PID.TID 0000.0001)                -4.000000000000000E-02,      /* K =  9 */
(PID.TID 0000.0001)                -4.500000000000000E-02,      /* K = 10 */
(PID.TID 0000.0001)                -5.000000000000000E-02,      /* K = 11 */
(PID.TID 0000.0001)                -5.499999999999999E-02,      /* K = 12 */
(PID.TID 0000.0001)                -5.999999999999999E-02,      /* K = 13 */
(PID.TID 0000.0001)                -6.499999999999999E-02,      /* K = 14 */
(PID.TID 0000.0001)                -6.999999999999999E-02,      /* K = 15 */
(PID.TID 0000.0001)                -7.500000000000000E-02,      /* K = 16 */
(PID.TID 0000.0001)                -8.000000000000000E-02,      /* K = 17 */
(PID.TID 0000.0001)                -8.500000000000001E-02,      /* K = 18 */
(PID.TID 0000.0001)                -9.000000000000001E-02,      /* K = 19 */
(PID.TID 0000.0001)                -9.500000000000001E-02,      /* K = 20 */
(PID.TID 0000.0001)                -1.000000000000000E-01,      /* K = 21 */
(PID.TID 0000.0001)                -1.050000000000000E-01,      /* K = 22 */
(PID.TID 0000.0001)                -1.100000000000000E-01,      /* K = 23 */
(PID.TID 0000.0001)                -1.150000000000000E-01,      /* K = 24 */
(PID.TID 0000.0001)                -1.200000000000000E-01,      /* K = 25 */
(PID.TID 0000.0001)                -1.250000000000000E-01,      /* K = 26 */
(PID.TID 0000.0001)                -1.300000000000000E-01,      /* K = 27 */
(PID.TID 0000.0001)                -1.350000000000000E-01,      /* K = 28 */
(PID.TID 0000.0001)                -1.400000000000000E-01,      /* K = 29 */
(PID.TID 0000.0001)                -1.450000000000000E-01       /* K = 30 */
(PID.TID 0000.0001)     ;
(PID.TID 0000.0001) deepFacC = /* deep-model grid factor @ cell-Center (-) */
(PID.TID 0000.0001)    29 @  1.000000000000000E+00              /* K =  1: 29 */
(PID.TID 0000.0001)     ;
(PID.TID 0000.0001) deepFacF = /* deep-model grid factor @ W-Interface (-) */
(PID.TID 0000.0001)    30 @  1.000000000000000E+00              /* K =  1: 30 */
(PID.TID 0000.0001)     ;
(PID.TID 0000.0001) dBdrRef = /* Vertical gradient of reference boyancy [(m/s/r)^2)] */
(PID.TID 0000.0001)    29 @  0.000000000000000E+00              /* K =  1: 29 */
(PID.TID 0000.0001)     ;
(PID.TID 0000.0001) dxF =  /* dxF(:,1,:,1) ( units: m ) */
(PID.TID 0000.0001)   120 @  3.926990816987242E-03              /* I =  1:120 */
(PID.TID 0000.0001)     ;
(PID.TID 0000.0001) dxF =  /* dxF(1,:,1,:) ( units: m ) */
(PID.TID 0000.0001)                 3.926990816987242E-03,      /* J =  1 */
(PID.TID 0000.0001)                 4.450589592585540E-03,      /* J =  2 */
(PID.TID 0000.0001)                 4.974188368183838E-03,      /* J =  3 */
(PID.TID 0000.0001)                 5.497787143782137E-03,      /* J =  4 */
(PID.TID 0000.0001)                 6.021385919380436E-03,      /* J =  5 */
(PID.TID 0000.0001)                 6.544984694978734E-03,      /* J =  6 */
(PID.TID 0000.0001)                 7.068583470577033E-03,      /* J =  7 */
(PID.TID 0000.0001)                 7.592182246175332E-03,      /* J =  8 */
(PID.TID 0000.0001)                 8.115781021773632E-03,      /* J =  9 */
(PID.TID 0000.0001)                 8.639379797371931E-03,      /* J = 10 */
(PID.TID 0000.0001)                 9.162978572970231E-03,      /* J = 11 */
(PID.TID 0000.0001)                 9.686577348568530E-03,      /* J = 12 */
(PID.TID 0000.0001)                 1.021017612416683E-02,      /* J = 13 */
(PID.TID 0000.0001)                 1.073377489976513E-02,      /* J = 14 */
(PID.TID 0000.0001)                 1.125737367536343E-02,      /* J = 15 */
(PID.TID 0000.0001)                 1.178097245096173E-02,      /* J = 16 */
(PID.TID 0000.0001)                 1.230457122656003E-02,      /* J = 17 */
(PID.TID 0000.0001)                 1.282817000215832E-02,      /* J = 18 */
(PID.TID 0000.0001)                 1.335176877775662E-02,      /* J = 19 */
(PID.TID 0000.0001)                 1.387536755335492E-02,      /* J = 20 */
(PID.TID 0000.0001)                 1.439896632895322E-02,      /* J = 21 */
(PID.TID 0000.0001)                 1.492256510455152E-02,      /* J = 22 */
(PID.TID 0000.0001)                 1.544616388014982E-02       /* J = 23 */
(PID.TID 0000.0001)     ;
(PID.TID 0000.0001) dyF =  /* dyF(:,1,:,1) ( units: m ) */
(PID.TID 0000.0001)   120 @  1.000000000000000E-02              /* I =  1:120 */
(PID.TID 0000.0001)     ;
(PID.TID 0000.0001) dyF =  /* dyF(1,:,1,:) ( units: m ) */
(PID.TID 0000.0001)    23 @  1.000000000000000E-02              /* J =  1: 23 */
(PID.TID 0000.0001)     ;
(PID.TID 0000.0001) dxG =  /* dxG(:,1,:,1) ( units: m ) */
(PID.TID 0000.0001)   120 @  3.665191429188093E-03              /* I =  1:120 */
(PID.TID 0000.0001)     ;
(PID.TID 0000.0001) dxG =  /* dxG(1,:,1,:) ( units: m ) */
(PID.TID 0000.0001)                 3.665191429188093E-03,      /* J =  1 */
(PID.TID 0000.0001)                 4.188790204786390E-03,      /* J =  2 */
(PID.TID 0000.0001)                 4.712388980384690E-03,      /* J =  3 */
(PID.TID 0000.0001)                 5.235987755982988E-03,      /* J =  4 */
(PID.TID 0000.0001)                 5.759586531581287E-03,      /* J =  5 */
(PID.TID 0000.0001)                 6.283185307179585E-03,      /* J =  6 */
(PID.TID 0000.0001)                 6.806784082777883E-03,      /* J =  7 */
(PID.TID 0000.0001)                 7.330382858376183E-03,      /* J =  8 */
(PID.TID 0000.0001)                 7.853981633974482E-03,      /* J =  9 */
(PID.TID 0000.0001)                 8.377580409572781E-03,      /* J = 10 */
(PID.TID 0000.0001)                 8.901179185171080E-03,      /* J = 11 */
(PID.TID 0000.0001)                 9.424777960769379E-03,      /* J = 12 */
(PID.TID 0000.0001)                 9.948376736367679E-03,      /* J = 13 */
(PID.TID 0000.0001)                 1.047197551196598E-02,      /* J = 14 */
(PID.TID 0000.0001)                 1.099557428756428E-02,      /* J = 15 */
(PID.TID 0000.0001)                 1.151917306316258E-02,      /* J = 16 */
(PID.TID 0000.0001)                 1.204277183876088E-02,      /* J = 17 */
(PID.TID 0000.0001)                 1.256637061435918E-02,      /* J = 18 */
(PID.TID 0000.0001)                 1.308996938995748E-02,      /* J = 19 */
(PID.TID 0000.0001)                 1.361356816555578E-02,      /* J = 20 */
(PID.TID 0000.0001)                 1.413716694115407E-02,      /* J = 21 */
(PID.TID 0000.0001)                 1.466076571675237E-02,      /* J = 22 */
(PID.TID 0000.0001)                 1.518436449235067E-02       /* J = 23 */
(PID.TID 0000.0001)     ;
(PID.TID 0000.0001) dyG =  /* dyG(:,1,:,1) ( units: m ) */
(PID.TID 0000.0001)   120 @  1.000000000000000E-02              /* I =  1:120 */
(PID.TID 0000.0001)     ;
(PID.TID 0000.0001) dyG =  /* dyG(1,:,1,:) ( units: m ) */
(PID.TID 0000.0001)    23 @  1.000000000000000E-02              /* J =  1: 23 */
(PID.TID 0000.0001)     ;
(PID.TID 0000.0001) dxC =  /* dxC(:,1,:,1) ( units: m ) */
(PID.TID 0000.0001)   120 @  3.926990816987242E-03              /* I =  1:120 */
(PID.TID 0000.0001)     ;
(PID.TID 0000.0001) dxC =  /* dxC(1,:,1,:) ( units: m ) */
(PID.TID 0000.0001)                 3.926990816987242E-03,      /* J =  1 */
(PID.TID 0000.0001)                 4.450589592585540E-03,      /* J =  2 */
(PID.TID 0000.0001)                 4.974188368183838E-03,      /* J =  3 */
(PID.TID 0000.0001)                 5.497787143782137E-03,      /* J =  4 */
(PID.TID 0000.0001)                 6.021385919380436E-03,      /* J =  5 */
(PID.TID 0000.0001)                 6.544984694978734E-03,      /* J =  6 */
(PID.TID 0000.0001)                 7.068583470577033E-03,      /* J =  7 */
(PID.TID 0000.0001)                 7.592182246175332E-03,      /* J =  8 */
(PID.TID 0000.0001)                 8.115781021773632E-03,      /* J =  9 */
(PID.TID 0000.0001)                 8.639379797371931E-03,      /* J = 10 */
(PID.TID 0000.0001)                 9.162978572970231E-03,      /* J = 11 */
(PID.TID 0000.0001)                 9.686577348568530E-03,      /* J = 12 */
(PID.TID 0000.0001)                 1.021017612416683E-02,      /* J = 13 */
(PID.TID 0000.0001)                 1.073377489976513E-02,      /* J = 14 */
(PID.TID 0000.0001)                 1.125737367536343E-02,      /* J = 15 */
(PID.TID 0000.0001)                 1.178097245096173E-02,      /* J = 16 */
(PID.TID 0000.0001)                 1.230457122656003E-02,      /* J = 17 */
(PID.TID 0000.0001)                 1.282817000215832E-02,      /* J = 18 */
(PID.TID 0000.0001)                 1.335176877775662E-02,      /* J = 19 */
(PID.TID 0000.0001)                 1.387536755335492E-02,      /* J = 20 */
(PID.TID 0000.0001)                 1.439896632895322E-02,      /* J = 21 */
(PID.TID 0000.0001)                 1.492256510455152E-02,      /* J = 22 */
(PID.TID 0000.0001)                 1.544616388014982E-02       /* J = 23 */
(PID.TID 0000.0001)     ;
(PID.TID 0000.0001) dyC =  /* dyC(:,1,:,1) ( units: m ) */
(PID.TID 0000.0001)   120 @  1.000000000000000E-02              /* I =  1:120 */
(PID.TID 0000.0001)     ;
(PID.TID 0000.0001) dyC =  /* dyC(1,:,1,:) ( units: m ) */
(PID.TID 0000.0001)    23 @  1.000000000000000E-02              /* J =  1: 23 */
(PID.TID 0000.0001)     ;
(PID.TID 0000.0001) dxV =  /* dxV(:,1,:,1) ( units: m ) */
(PID.TID 0000.0001)   120 @  3.665191429188093E-03              /* I =  1:120 */
(PID.TID 0000.0001)     ;
(PID.TID 0000.0001) dxV =  /* dxV(1,:,1,:) ( units: m ) */
(PID.TID 0000.0001)                 3.665191429188093E-03,      /* J =  1 */
(PID.TID 0000.0001)                 4.188790204786390E-03,      /* J =  2 */
(PID.TID 0000.0001)                 4.712388980384690E-03,      /* J =  3 */
(PID.TID 0000.0001)                 5.235987755982988E-03,      /* J =  4 */
(PID.TID 0000.0001)                 5.759586531581287E-03,      /* J =  5 */
(PID.TID 0000.0001)                 6.283185307179585E-03,      /* J =  6 */
(PID.TID 0000.0001)                 6.806784082777883E-03,      /* J =  7 */
(PID.TID 0000.0001)                 7.330382858376183E-03,      /* J =  8 */
(PID.TID 0000.0001)                 7.853981633974482E-03,      /* J =  9 */
(PID.TID 0000.0001)                 8.377580409572781E-03,      /* J = 10 */
(PID.TID 0000.0001)                 8.901179185171080E-03,      /* J = 11 */
(PID.TID 0000.0001)                 9.424777960769379E-03,      /* J = 12 */
(PID.TID 0000.0001)                 9.948376736367679E-03,      /* J = 13 */
(PID.TID 0000.0001)                 1.047197551196598E-02,      /* J = 14 */
(PID.TID 0000.0001)                 1.099557428756428E-02,      /* J = 15 */
(PID.TID 0000.0001)                 1.151917306316258E-02,      /* J = 16 */
(PID.TID 0000.0001)                 1.204277183876088E-02,      /* J = 17 */
(PID.TID 0000.0001)                 1.256637061435918E-02,      /* J = 18 */
(PID.TID 0000.0001)                 1.308996938995748E-02,      /* J = 19 */
(PID.TID 0000.0001)                 1.361356816555578E-02,      /* J = 20 */
(PID.TID 0000.0001)                 1.413716694115407E-02,      /* J = 21 */
(PID.TID 0000.0001)                 1.466076571675237E-02,      /* J = 22 */
(PID.TID 0000.0001)                 1.518436449235067E-02       /* J = 23 */
(PID.TID 0000.0001)     ;
(PID.TID 0000.0001) dyU =  /* dyU(:,1,:,1) ( units: m ) */
(PID.TID 0000.0001)   120 @  1.000000000000000E-02              /* I =  1:120 */
(PID.TID 0000.0001)     ;
(PID.TID 0000.0001) dyU =  /* dyU(1,:,1,:) ( units: m ) */
(PID.TID 0000.0001)    23 @  1.000000000000000E-02              /* J =  1: 23 */
(PID.TID 0000.0001)     ;
(PID.TID 0000.0001) rA  =  /* rA (:,1,:,1) ( units: m^2 ) */
(PID.TID 0000.0001)   120 @  3.926990816987242E-05              /* I =  1:120 */
(PID.TID 0000.0001)     ;
(PID.TID 0000.0001) rA  =  /* rA (1,:,1,:) ( units: m^2 ) */
(PID.TID 0000.0001)                 3.926990816987242E-05,      /* J =  1 */
(PID.TID 0000.0001)                 4.450589592585540E-05,      /* J =  2 */
(PID.TID 0000.0001)                 4.974188368183839E-05,      /* J =  3 */
(PID.TID 0000.0001)                 5.497787143782137E-05,      /* J =  4 */
(PID.TID 0000.0001)                 6.021385919380436E-05,      /* J =  5 */
(PID.TID 0000.0001)                 6.544984694978734E-05,      /* J =  6 */
(PID.TID 0000.0001)                 7.068583470577033E-05,      /* J =  7 */
(PID.TID 0000.0001)                 7.592182246175332E-05,      /* J =  8 */
(PID.TID 0000.0001)                 8.115781021773632E-05,      /* J =  9 */
(PID.TID 0000.0001)                 8.639379797371931E-05,      /* J = 10 */
(PID.TID 0000.0001)                 9.162978572970230E-05,      /* J = 11 */
(PID.TID 0000.0001)                 9.686577348568531E-05,      /* J = 12 */
(PID.TID 0000.0001)                 1.021017612416683E-04,      /* J = 13 */
(PID.TID 0000.0001)                 1.073377489976513E-04,      /* J = 14 */
(PID.TID 0000.0001)                 1.125737367536343E-04,      /* J = 15 */
(PID.TID 0000.0001)                 1.178097245096173E-04,      /* J = 16 */
(PID.TID 0000.0001)                 1.230457122656003E-04,      /* J = 17 */
(PID.TID 0000.0001)                 1.282817000215832E-04,      /* J = 18 */
(PID.TID 0000.0001)                 1.335176877775662E-04,      /* J = 19 */
(PID.TID 0000.0001)                 1.387536755335492E-04,      /* J = 20 */
(PID.TID 0000.0001)                 1.439896632895322E-04,      /* J = 21 */
(PID.TID 0000.0001)                 1.492256510455152E-04,      /* J = 22 */
(PID.TID 0000.0001)                 1.544616388014982E-04       /* J = 23 */
(PID.TID 0000.0001)     ;
(PID.TID 0000.0001) rAw =  /* rAw(:,1,:,1) ( units: m^2 ) */
(PID.TID 0000.0001)   120 @  3.926990816987242E-05              /* I =  1:120 */
(PID.TID 0000.0001)     ;
(PID.TID 0000.0001) rAw =  /* rAw(1,:,1,:) ( units: m^2 ) */
(PID.TID 0000.0001)                 3.926990816987242E-05,      /* J =  1 */
(PID.TID 0000.0001)                 4.450589592585540E-05,      /* J =  2 */
(PID.TID 0000.0001)                 4.974188368183839E-05,      /* J =  3 */
(PID.TID 0000.0001)                 5.497787143782137E-05,      /* J =  4 */
(PID.TID 0000.0001)                 6.021385919380436E-05,      /* J =  5 */
(PID.TID 0000.0001)                 6.544984694978734E-05,      /* J =  6 */
(PID.TID 0000.0001)                 7.068583470577033E-05,      /* J =  7 */
(PID.TID 0000.0001)                 7.592182246175332E-05,      /* J =  8 */
(PID.TID 0000.0001)                 8.115781021773632E-05,      /* J =  9 */
(PID.TID 0000.0001)                 8.639379797371931E-05,      /* J = 10 */
(PID.TID 0000.0001)                 9.162978572970230E-05,      /* J = 11 */
(PID.TID 0000.0001)                 9.686577348568531E-05,      /* J = 12 */
(PID.TID 0000.0001)                 1.021017612416683E-04,      /* J = 13 */
(PID.TID 0000.0001)                 1.073377489976513E-04,      /* J = 14 */
(PID.TID 0000.0001)                 1.125737367536343E-04,      /* J = 15 */
(PID.TID 0000.0001)                 1.178097245096173E-04,      /* J = 16 */
(PID.TID 0000.0001)                 1.230457122656003E-04,      /* J = 17 */
(PID.TID 0000.0001)                 1.282817000215832E-04,      /* J = 18 */
(PID.TID 0000.0001)                 1.335176877775662E-04,      /* J = 19 */
(PID.TID 0000.0001)                 1.387536755335492E-04,      /* J = 20 */
(PID.TID 0000.0001)                 1.439896632895322E-04,      /* J = 21 */
(PID.TID 0000.0001)                 1.492256510455152E-04,      /* J = 22 */
(PID.TID 0000.0001)                 1.544616388014982E-04       /* J = 23 */
(PID.TID 0000.0001)     ;
(PID.TID 0000.0001) rAs =  /* rAs(:,1,:,1) ( units: m^2 ) */
(PID.TID 0000.0001)   120 @  3.665191429188093E-05              /* I =  1:120 */
(PID.TID 0000.0001)     ;
(PID.TID 0000.0001) rAs =  /* rAs(1,:,1,:) ( units: m^2 ) */
(PID.TID 0000.0001)                 3.665191429188093E-05,      /* J =  1 */
(PID.TID 0000.0001)                 4.188790204786391E-05,      /* J =  2 */
(PID.TID 0000.0001)                 4.712388980384690E-05,      /* J =  3 */
(PID.TID 0000.0001)                 5.235987755982988E-05,      /* J =  4 */
(PID.TID 0000.0001)                 5.759586531581287E-05,      /* J =  5 */
(PID.TID 0000.0001)                 6.283185307179586E-05,      /* J =  6 */
(PID.TID 0000.0001)                 6.806784082777883E-05,      /* J =  7 */
(PID.TID 0000.0001)                 7.330382858376182E-05,      /* J =  8 */
(PID.TID 0000.0001)                 7.853981633974481E-05,      /* J =  9 */
(PID.TID 0000.0001)                 8.377580409572782E-05,      /* J = 10 */
(PID.TID 0000.0001)                 8.901179185171081E-05,      /* J = 11 */
(PID.TID 0000.0001)                 9.424777960769380E-05,      /* J = 12 */
(PID.TID 0000.0001)                 9.948376736367679E-05,      /* J = 13 */
(PID.TID 0000.0001)                 1.047197551196598E-04,      /* J = 14 */
(PID.TID 0000.0001)                 1.099557428756428E-04,      /* J = 15 */
(PID.TID 0000.0001)                 1.151917306316258E-04,      /* J = 16 */
(PID.TID 0000.0001)                 1.204277183876088E-04,      /* J = 17 */
(PID.TID 0000.0001)                 1.256637061435918E-04,      /* J = 18 */
(PID.TID 0000.0001)                 1.308996938995748E-04,      /* J = 19 */
(PID.TID 0000.0001)                 1.361356816555577E-04,      /* J = 20 */
(PID.TID 0000.0001)                 1.413716694115407E-04,      /* J = 21 */
(PID.TID 0000.0001)                 1.466076571675237E-04,      /* J = 22 */
(PID.TID 0000.0001)                 1.518436449235067E-04       /* J = 23 */
(PID.TID 0000.0001)     ;
(PID.TID 0000.0001) globalArea = /* Integrated horizontal Area (m^2) */
(PID.TID 0000.0001)                 2.626371458401061E-01
(PID.TID 0000.0001)     ;
(PID.TID 0000.0001) // =======================================================
(PID.TID 0000.0001) // End of Model config. summary
(PID.TID 0000.0001) // =======================================================
(PID.TID 0000.0001) 
(PID.TID 0000.0001)  MDSREADFIELD: opening global file: thetaPolR.bin
(PID.TID 0000.0001) // =======================================================
(PID.TID 0000.0001) // Field Initial Temperature at iteration          1
(PID.TID 0000.0001) // CMIN =          2.000000000000000E+01
(PID.TID 0000.0001) // CMAX =          2.000099945068359E+01
(PID.TID 0000.0001) // CINT =          3.701669198495371E-05
(PID.TID 0000.0001) // SYMBOLS (CMIN->CMAX): -abcdefghijklmnopqrstuvwxyz+
(PID.TID 0000.0001) //                  0.0: .
(PID.TID 0000.0001) // RANGE I (Lo:Hi:Step):(   1: 120:   1)
(PID.TID 0000.0001) // RANGE J (Lo:Hi:Step):(  23:   1:  -1)
(PID.TID 0000.0001) // RANGE K (Lo:Hi:Step):(   1:   1:   1)
(PID.TID 0000.0001) // =======================================================
(PID.TID 0000.0001) K =   1
(PID.TID 0000.0001)                I=10      I=20      I=30      I=40      I=50      I=60      I=70      I=80      I=90      I=100     I=110     I=120
(PID.TID 0000.0001) |--J--|123456789|123456789|123456789|123456789|123456789|123456789|123456789|123456789|123456789|123456789|123456789|123456789|
(PID.TID 0000.0001)     23 jqkmeosabgtxgpnovswlxtomhwbjrvvfwtjzbmdwyosmgblmlswfrzuvmwqfgneqryhcrcdjxgpewppnqtnldbvcsglmkhjqmizdfsjypmxvpbrlknorerac
(PID.TID 0000.0001)     22 epwfxnxnicpxjlsfb-ghoxrykpkvcritpwusuyxzrggtrh+zleqiheyzgditnwepcrwduavvzutnwjmfzctwftosbmdphegggmevcp-ucuzmpuokoxyqqwap
(PID.TID 0000.0001)     21 cghwkxhmovssawbyvmoxyhyzmlajzodsfkbgcugskly++-joetmwqvhhjhxiodlbyrhujpxne-azfmeqgrveiexbzduozr+zpcxvokxpfesufaqjteifgqim
(PID.TID 0000.0001)     20 ypypntlzbrwqwgcnon+gfhittzwumigkpx+qqexykfps-igejsdiyzgcxzovutqomkw-raywgoztezucrtfwcesezfefursyfajdtuukdr-pkihs+cdqjptn
(PID.TID 0000.0001)     19 okayagtjfkuudyasuxerekiundtfztfrituaqwliqilodlnxgufsddaxmzmjqgth+vdcyiiujurczkqarvnqnofdcztvnlymnpbytqtmihicpdqubwfpqdma
(PID.TID 0000.0001)     18 +shwlqggfcwvjpfdonktamdluhutdjgdsnhjrvnxnpnvzjnc-rbusnboqdowjqbmchauhalglwugkbeixbarjgtwjokqtg-sutyalixtyllsi+zrfsefuhas
(PID.TID 0000.0001)     17 ktbnftiwqpaicqqsccfeaypiikitbcwtdszeghxkmq+lcnij-huhqi-tyw+wbod+kyeekiuhjnmbcvipolmftahdgniwrgzynksaucekpwcfzjfeqiqjkydo
(PID.TID 0000.0001)     16 mtsytwtmosljuikvmbr-gojcpvpefzmsybyrvdtaeljnqbcwcxkcsluvxgdovfwirrgzhbxnhumy-mxawonanxgr-hsbtumraplyuwhssxsdnlczcnxh+dtq
(PID.TID 0000.0001)     15 bnopfhxuatjexkkzosskxzetsvoiktakutliphwurlty+dlrckqmhno+bfjzbhwyqwvznekthfypvvwmhlbb-jday+jdmudjcpgichezogzzjdruodvtsnbz
(PID.TID 0000.0001)     14 aiuruchvglazywkelmfvnjgwnxsbvkbg+xqvebfelpjmypdkyhvalhcaujvivlzxqmuqchpjfolsem+xntylspdpcgerdtrvdozygjzykmtepasbz+ojevtx
(PID.TID 0000.0001)     13 qduptxvqho-+kydbdqbdfxrjbydhgbjbdndk-dfugcak+w-harq+jtcikmz+fb-corbukbwki-kyzenfmqpzyfnpxnvualivagouiopralnsl-csvkoduyfw
(PID.TID 0000.0001)     12 unhnwhoajydodykwyeonaudfe+gmcwe-qyusstzsrqerbccdjuupjsrbugccfeibpjjgqaukexrc+yfginw+fvnhbomihnvfxxffuqiphmdxzjdawbctxjmd
(PID.TID 0000.0001)     11 mnlokihg+tt+ybouziufnlxjwqujeuyjvbwpnmedfwizfuyqtiymjn-fjonbfrkaohgyabyamgp-rqy-btzcxtwpkldb+ixkeavj+lxzlpb-bplz+crxqjtr
(PID.TID 0000.0001)     10 ypcvcqgxamuonerteaslib-py-pervlennhegnpdivdk-igtykvqexpakqcwhq+iovacuhkjmvwereingydpgkusxltdkzuplapygwnhpfynkpc+vhtsfxgu
(PID.TID 0000.0001)      9 pcnhwxhsqmcvwltgaecot+qcntmxncji+jgoupkysesfnhelv+fyqsgapiznqvwkspbidoyrtzgxlqrsdcwtuboaofynn-hnzg-ooklqrtgzutziunyrcsqo
(PID.TID 0000.0001)      8 djefm+fkqztxj-ts+wp-mneycedptcn-phullwjpfks-lokdegjdpwssqimory-ayytnbbzt-akg-dcclnlagpiwcu-mpi+pz-o-qsqktdzbrvmlvvzpwcya
(PID.TID 0000.0001)      7 tpofinkljg-dtfzntrrvyxtkrxkihq+vyksjuaumcifjvyobwmumibazyaafpxhivjxi+fgzppqowbhqvikfdpjaetdqaoe+yiuuypmvfarbuvyai-pivk-c
(PID.TID 0000.0001)      6 qnuhzrlqfu-wwwu-svjflrscynlwdlhvslyvrpk+dsugmhkzqkmbsslneyzneczot+xxuzhaccmddnrnbwhtatmefanuttgygneeakztkigtujxuswtvrwqp
(PID.TID 0000.0001)      5 dn+wglekflrazoltz+zuvrdjipvvkzjenplkzwdsulzk-qzwvnutqhsaysdakmilgpotcnjgrzldzxu-nta+ahrbwxoksbphqacseonvrulavreacwaxraui
(PID.TID 0000.0001)      4 uklggyoppbg-pawxfoxxlgwihjvrpcvednlwispvywtniendlgmfoymvpgfgvttezputjq-vlwbcuuu+ukfmjawmdtpdcrbv-qgcdslgdbgdxxhfrrnvcsrw
(PID.TID 0000.0001)      3 zzxqtkkjtfpnkzdpjllvntoqlqc-zt-iuebatj+acod-jjuxtxnncsbo-sflrxez-nl-q-vfqxpc-xhzlfytocshtqqvrjlczlcnxfap-tvrkdbgmgtrqrja
(PID.TID 0000.0001)      2 nftks+ifmvfqlbqjzuxdjh+vrqmpishznwddvucrcfvqrwwexmrenptfjczpkxfsjjhnsqnwhcqovyyvhjtlwmzmzzdvvlcvnnlrhqczdtvxmi+cztyzgutp
(PID.TID 0000.0001)      1 ........................................................................................................................
(PID.TID 0000.0001) // =======================================================
(PID.TID 0000.0001) // END OF FIELD                                          =
(PID.TID 0000.0001) // =======================================================
(PID.TID 0000.0001) 
(PID.TID 0000.0001) // =======================================================
(PID.TID 0000.0001) // Field Initial Salinity at iteration          1
(PID.TID 0000.0001) // CMIN =          3.500000000000000E+01
(PID.TID 0000.0001) // CMAX =          3.500000000000000E+01
(PID.TID 0000.0001) // CINT =          0.000000000000000E+00
(PID.TID 0000.0001) // SYMBOLS (CMIN->CMAX): -abcdefghijklmnopqrstuvwxyz+
(PID.TID 0000.0001) //                  0.0: .
(PID.TID 0000.0001) // RANGE I (Lo:Hi:Step):(   1: 120:   1)
(PID.TID 0000.0001) // RANGE J (Lo:Hi:Step):(  23:   1:  -1)
(PID.TID 0000.0001) // RANGE K (Lo:Hi:Step):(   1:   1:   1)
(PID.TID 0000.0001) // =======================================================
(PID.TID 0000.0001) // =======================================================
(PID.TID 0000.0001) // END OF FIELD                                          =
(PID.TID 0000.0001) // =======================================================
(PID.TID 0000.0001) 
(PID.TID 0000.0001) Start initial hydrostatic pressure computation
(PID.TID 0000.0001) Pressure is predetermined for buoyancyRelation OCEANIC
(PID.TID 0000.0001) 
(PID.TID 0000.0001) // =======================================================
(PID.TID 0000.0001) // Model current state
(PID.TID 0000.0001) // =======================================================
(PID.TID 0000.0001) 
(PID.TID 0000.0001) // =======================================================
(PID.TID 0000.0001) // Begin MONITOR dynamic field statistics
(PID.TID 0000.0001) // =======================================================
(PID.TID 0000.0001) %MON time_tsnumber                =                     0
(PID.TID 0000.0001) %MON time_secondsf                =   0.0000000000000E+00
(PID.TID 0000.0001) %MON dynstat_eta_max              =   0.0000000000000E+00
(PID.TID 0000.0001) %MON dynstat_eta_min              =   0.0000000000000E+00
(PID.TID 0000.0001) %MON dynstat_eta_mean             =   0.0000000000000E+00
(PID.TID 0000.0001) %MON dynstat_eta_sd               =   0.0000000000000E+00
(PID.TID 0000.0001) %MON dynstat_eta_del2             =   0.0000000000000E+00
(PID.TID 0000.0001) %MON dynstat_uvel_max             =   0.0000000000000E+00
(PID.TID 0000.0001) %MON dynstat_uvel_min             =   0.0000000000000E+00
(PID.TID 0000.0001) %MON dynstat_uvel_mean            =   0.0000000000000E+00
(PID.TID 0000.0001) %MON dynstat_uvel_sd              =   0.0000000000000E+00
(PID.TID 0000.0001) %MON dynstat_uvel_del2            =   0.0000000000000E+00
(PID.TID 0000.0001) %MON dynstat_vvel_max             =   0.0000000000000E+00
(PID.TID 0000.0001) %MON dynstat_vvel_min             =   0.0000000000000E+00
(PID.TID 0000.0001) %MON dynstat_vvel_mean            =   0.0000000000000E+00
(PID.TID 0000.0001) %MON dynstat_vvel_sd              =   0.0000000000000E+00
(PID.TID 0000.0001) %MON dynstat_vvel_del2            =   0.0000000000000E+00
(PID.TID 0000.0001) %MON dynstat_wvel_max             =   0.0000000000000E+00
(PID.TID 0000.0001) %MON dynstat_wvel_min             =   0.0000000000000E+00
(PID.TID 0000.0001) %MON dynstat_wvel_mean            =   0.0000000000000E+00
(PID.TID 0000.0001) %MON dynstat_wvel_sd              =   0.0000000000000E+00
(PID.TID 0000.0001) %MON dynstat_wvel_del2            =   0.0000000000000E+00
(PID.TID 0000.0001) %MON dynstat_theta_max            =   2.0000999450684E+01
(PID.TID 0000.0001) %MON dynstat_theta_min            =   2.0000000000000E+01
(PID.TID 0000.0001) %MON dynstat_theta_mean           =   2.0000506097545E+01
(PID.TID 0000.0001) %MON dynstat_theta_sd             =   2.8863770164396E-04
(PID.TID 0000.0001) %MON dynstat_theta_del2           =   2.7062929037845E-04
(PID.TID 0000.0001) %MON dynstat_salt_max             =   3.5000000000000E+01
(PID.TID 0000.0001) %MON dynstat_salt_min             =   3.5000000000000E+01
(PID.TID 0000.0001) %MON dynstat_salt_mean            =   3.5000000000001E+01
(PID.TID 0000.0001) %MON dynstat_salt_sd              =   7.5317529990572E-13
(PID.TID 0000.0001) %MON dynstat_salt_del2            =   0.0000000000000E+00
(PID.TID 0000.0001) %MON extforcing_qnet_max          =   0.0000000000000E+00
(PID.TID 0000.0001) %MON extforcing_qnet_min          =   0.0000000000000E+00
(PID.TID 0000.0001) %MON extforcing_qnet_mean         =   0.0000000000000E+00
(PID.TID 0000.0001) %MON extforcing_qnet_sd           =   0.0000000000000E+00
(PID.TID 0000.0001) %MON extforcing_qnet_del2         =   0.0000000000000E+00
(PID.TID 0000.0001) %MON extforcing_qsw_max           =   0.0000000000000E+00
(PID.TID 0000.0001) %MON extforcing_qsw_min           =   0.0000000000000E+00
(PID.TID 0000.0001) %MON extforcing_qsw_mean          =   0.0000000000000E+00
(PID.TID 0000.0001) %MON extforcing_qsw_sd            =   0.0000000000000E+00
(PID.TID 0000.0001) %MON extforcing_qsw_del2          =   0.0000000000000E+00
(PID.TID 0000.0001) %MON extforcing_empmr_max         =   0.0000000000000E+00
(PID.TID 0000.0001) %MON extforcing_empmr_min         =   0.0000000000000E+00
(PID.TID 0000.0001) %MON extforcing_empmr_mean        =   0.0000000000000E+00
(PID.TID 0000.0001) %MON extforcing_empmr_sd          =   0.0000000000000E+00
(PID.TID 0000.0001) %MON extforcing_empmr_del2        =   0.0000000000000E+00
(PID.TID 0000.0001) %MON extforcing_fu_max            =   0.0000000000000E+00
(PID.TID 0000.0001) %MON extforcing_fu_min            =   0.0000000000000E+00
(PID.TID 0000.0001) %MON extforcing_fu_mean           =   0.0000000000000E+00
(PID.TID 0000.0001) %MON extforcing_fu_sd             =   0.0000000000000E+00
(PID.TID 0000.0001) %MON extforcing_fu_del2           =   0.0000000000000E+00
(PID.TID 0000.0001) %MON extforcing_fv_max            =   0.0000000000000E+00
(PID.TID 0000.0001) %MON extforcing_fv_min            =   0.0000000000000E+00
(PID.TID 0000.0001) %MON extforcing_fv_mean           =   0.0000000000000E+00
(PID.TID 0000.0001) %MON extforcing_fv_sd             =   0.0000000000000E+00
(PID.TID 0000.0001) %MON extforcing_fv_del2           =   0.0000000000000E+00
(PID.TID 0000.0001) %MON advcfl_uvel_max              =   0.0000000000000E+00
(PID.TID 0000.0001) %MON advcfl_vvel_max              =   0.0000000000000E+00
(PID.TID 0000.0001) %MON advcfl_wvel_max              =   0.0000000000000E+00
(PID.TID 0000.0001) %MON advcfl_W_hf_max              =   0.0000000000000E+00
(PID.TID 0000.0001) %MON pe_b_mean                    =   0.0000000000000E+00
(PID.TID 0000.0001) %MON ke_max                       =   0.0000000000000E+00
(PID.TID 0000.0001) %MON ke_mean                      =   0.0000000000000E+00
(PID.TID 0000.0001) %MON ke_vol                       =   3.8082386146814E-02
(PID.TID 0000.0001) %MON vort_r_min                   =   0.0000000000000E+00
(PID.TID 0000.0001) %MON vort_r_max                   =   0.0000000000000E+00
(PID.TID 0000.0001) %MON vort_a_mean                  =   5.0000000000204E-01
(PID.TID 0000.0001) %MON vort_a_sd                    =   1.5104662576849E-07
(PID.TID 0000.0001) %MON vort_p_mean                  =   5.1396648044902E-01
(PID.TID 0000.0001) %MON vort_p_sd                    =   1.4406477048314E-01
(PID.TID 0000.0001) %MON surfExpan_theta_mean         =   0.0000000000000E+00
(PID.TID 0000.0001) %MON surfExpan_salt_mean          =   0.0000000000000E+00
(PID.TID 0000.0001) // =======================================================
(PID.TID 0000.0001) // End MONITOR dynamic field statistics
(PID.TID 0000.0001) // =======================================================
 cg2d: Sum(rhs),rhsMax =  -2.44249065417534E-15  2.54626495526243E-07
(PID.TID 0000.0001)                    cg2d_init_res =    1.79605131991234E+01
(PID.TID 0000.0001)                       cg2d_iters =   100
(PID.TID 0000.0001)                         cg2d_res =    9.10810452068376E-08
 cg3d: Sum(rhs),rhsMax =   1.07511222147139E-13  8.94057495890099E-08
(PID.TID 0000.0001)                    cg3d_init_res =    5.78014489203574E+01
(PID.TID 0000.0001)                       cg3d_iters =    10
(PID.TID 0000.0001)                         cg3d_res =    2.29125546074556E-01
(PID.TID 0000.0001) // =======================================================
(PID.TID 0000.0001) // Begin MONITOR dynamic field statistics
(PID.TID 0000.0001) // =======================================================
(PID.TID 0000.0001) %MON time_tsnumber                =                     1
(PID.TID 0000.0001) %MON time_secondsf                =   1.0000000000000E-01
(PID.TID 0000.0001) %MON dynstat_eta_max              =   7.1336480475351E-09
(PID.TID 0000.0001) %MON dynstat_eta_min              =  -7.3583871238599E-09
(PID.TID 0000.0001) %MON dynstat_eta_mean             =  -1.9972474168213E-11
(PID.TID 0000.0001) %MON dynstat_eta_sd               =   4.1852466764881E-09
(PID.TID 0000.0001) %MON dynstat_eta_del2             =   3.9241247104211E-09
(PID.TID 0000.0001) %MON dynstat_uvel_max             =   8.4185990504402E-08
(PID.TID 0000.0001) %MON dynstat_uvel_min             =  -8.4185991550517E-08
(PID.TID 0000.0001) %MON dynstat_uvel_mean            =   7.5432168963569E-25
(PID.TID 0000.0001) %MON dynstat_uvel_sd              =   8.9282950016612E-09
(PID.TID 0000.0001) %MON dynstat_uvel_del2            =   3.0679360556713E-09
(PID.TID 0000.0001) %MON dynstat_vvel_max             =   8.8720044112140E-08
(PID.TID 0000.0001) %MON dynstat_vvel_min             =  -8.8720049774966E-08
(PID.TID 0000.0001) %MON dynstat_vvel_mean            =  -6.5467573920456E-16
(PID.TID 0000.0001) %MON dynstat_vvel_sd              =   9.1021344232698E-09
(PID.TID 0000.0001) %MON dynstat_vvel_del2            =   2.8578172581189E-09
(PID.TID 0000.0001) %MON dynstat_wvel_max             =   3.3825388664830E-07
(PID.TID 0000.0001) %MON dynstat_wvel_min             =  -2.7219015811266E-07
(PID.TID 0000.0001) %MON dynstat_wvel_mean            =   6.4751618825155E-26
(PID.TID 0000.0001) %MON dynstat_wvel_sd              =   5.8295526636034E-08
(PID.TID 0000.0001) %MON dynstat_wvel_del2            =   5.4489383527924E-08
(PID.TID 0000.0001) %MON dynstat_theta_max            =   2.0000994014334E+01
(PID.TID 0000.0001) %MON dynstat_theta_min            =   1.9994446794576E+01
(PID.TID 0000.0001) %MON dynstat_theta_mean           =   2.0000391250747E+01
(PID.TID 0000.0001) %MON dynstat_theta_sd             =   8.3826057293069E-04
(PID.TID 0000.0001) %MON dynstat_theta_del2           =   3.6945169391937E-04
(PID.TID 0000.0001) %MON dynstat_salt_max             =   3.5000000000000E+01
(PID.TID 0000.0001) %MON dynstat_salt_min             =   3.5000000000000E+01
(PID.TID 0000.0001) %MON dynstat_salt_mean            =   3.5000000000001E+01
(PID.TID 0000.0001) %MON dynstat_salt_sd              =   7.5317529990572E-13
(PID.TID 0000.0001) %MON dynstat_salt_del2            =   0.0000000000000E+00
(PID.TID 0000.0001) %MON extforcing_qnet_max          =   0.0000000000000E+00
(PID.TID 0000.0001) %MON extforcing_qnet_min          =   0.0000000000000E+00
(PID.TID 0000.0001) %MON extforcing_qnet_mean         =   0.0000000000000E+00
(PID.TID 0000.0001) %MON extforcing_qnet_sd           =   0.0000000000000E+00
(PID.TID 0000.0001) %MON extforcing_qnet_del2         =   0.0000000000000E+00
(PID.TID 0000.0001) %MON extforcing_qsw_max           =   0.0000000000000E+00
(PID.TID 0000.0001) %MON extforcing_qsw_min           =   0.0000000000000E+00
(PID.TID 0000.0001) %MON extforcing_qsw_mean          =   0.0000000000000E+00
(PID.TID 0000.0001) %MON extforcing_qsw_sd            =   0.0000000000000E+00
(PID.TID 0000.0001) %MON extforcing_qsw_del2          =   0.0000000000000E+00
(PID.TID 0000.0001) %MON extforcing_empmr_max         =   0.0000000000000E+00
(PID.TID 0000.0001) %MON extforcing_empmr_min         =   0.0000000000000E+00
(PID.TID 0000.0001) %MON extforcing_empmr_mean        =   0.0000000000000E+00
(PID.TID 0000.0001) %MON extforcing_empmr_sd          =   0.0000000000000E+00
(PID.TID 0000.0001) %MON extforcing_empmr_del2        =   0.0000000000000E+00
(PID.TID 0000.0001) %MON extforcing_fu_max            =   0.0000000000000E+00
(PID.TID 0000.0001) %MON extforcing_fu_min            =   0.0000000000000E+00
(PID.TID 0000.0001) %MON extforcing_fu_mean           =   0.0000000000000E+00
(PID.TID 0000.0001) %MON extforcing_fu_sd             =   0.0000000000000E+00
(PID.TID 0000.0001) %MON extforcing_fu_del2           =   0.0000000000000E+00
(PID.TID 0000.0001) %MON extforcing_fv_max            =   0.0000000000000E+00
(PID.TID 0000.0001) %MON extforcing_fv_min            =   0.0000000000000E+00
(PID.TID 0000.0001) %MON extforcing_fv_mean           =   0.0000000000000E+00
(PID.TID 0000.0001) %MON extforcing_fv_sd             =   0.0000000000000E+00
(PID.TID 0000.0001) %MON extforcing_fv_del2           =   0.0000000000000E+00
(PID.TID 0000.0001) %MON advcfl_uvel_max              =   1.8915694156740E-06
(PID.TID 0000.0001) %MON advcfl_vvel_max              =   8.8720049774966E-07
(PID.TID 0000.0001) %MON advcfl_wvel_max              =   6.7650777329661E-06
(PID.TID 0000.0001) %MON advcfl_W_hf_max              =   6.7650777329661E-06
(PID.TID 0000.0001) %MON pe_b_mean                    =   5.9254729512299E-16
(PID.TID 0000.0001) %MON ke_max                       =   3.1694490752185E-15
(PID.TID 0000.0001) %MON ke_mean                      =   7.9398722914818E-17
(PID.TID 0000.0001) %MON ke_vol                       =   3.8082386146814E-02
(PID.TID 0000.0001) %MON vort_r_min                   =  -8.9447614910927E-06
(PID.TID 0000.0001) %MON vort_r_max                   =   8.9447616022425E-06
(PID.TID 0000.0001) %MON vort_a_mean                  =   5.0000000000203E-01
(PID.TID 0000.0001) %MON vort_a_sd                    =   2.9455717505173E-07
(PID.TID 0000.0001) %MON vort_p_mean                  =   5.1396648044902E-01
(PID.TID 0000.0001) %MON vort_p_sd                    =   1.4406477048399E-01
(PID.TID 0000.0001) %MON surfExpan_theta_mean         =   0.0000000000000E+00
(PID.TID 0000.0001) %MON surfExpan_salt_mean          =   0.0000000000000E+00
(PID.TID 0000.0001) // =======================================================
(PID.TID 0000.0001) // End MONITOR dynamic field statistics
(PID.TID 0000.0001) // =======================================================
 cg2d: Sum(rhs),rhsMax =   2.55351295663786E-15  5.04382260485890E-07
(PID.TID 0000.0001)                    cg2d_init_res =    8.28764588431133E+00
(PID.TID 0000.0001)                       cg2d_iters =    58
(PID.TID 0000.0001)                         cg2d_res =    9.91534989928138E-08
 cg3d: Sum(rhs),rhsMax =   1.11022302462516E-15  1.77075067441391E-07
(PID.TID 0000.0001)                    cg3d_init_res =    2.66814230368609E+01
(PID.TID 0000.0001)                       cg3d_iters =    10
(PID.TID 0000.0001)                         cg3d_res =    1.59192885199758E+00
(PID.TID 0000.0001) // =======================================================
(PID.TID 0000.0001) // Begin MONITOR dynamic field statistics
(PID.TID 0000.0001) // =======================================================
(PID.TID 0000.0001) %MON time_tsnumber                =                     2
(PID.TID 0000.0001) %MON time_secondsf                =   2.0000000000000E-01
(PID.TID 0000.0001) %MON dynstat_eta_max              =   1.4070631003846E-08
(PID.TID 0000.0001) %MON dynstat_eta_min              =  -1.2984319170393E-07
(PID.TID 0000.0001) %MON dynstat_eta_mean             =   4.3620907496554E-09
(PID.TID 0000.0001) %MON dynstat_eta_sd               =   1.8817998136129E-08
(PID.TID 0000.0001) %MON dynstat_eta_del2             =   6.4420345238844E-09
(PID.TID 0000.0001) %MON dynstat_uvel_max             =   2.5131247740516E-07
(PID.TID 0000.0001) %MON dynstat_uvel_min             =  -2.5030013828787E-07
(PID.TID 0000.0001) %MON dynstat_uvel_mean            =  -4.4554657936471E-17
(PID.TID 0000.0001) %MON dynstat_uvel_sd              =   2.3551773739499E-08
(PID.TID 0000.0001) %MON dynstat_uvel_del2            =   1.7169741103403E-08
(PID.TID 0000.0001) %MON dynstat_vvel_max             =   1.2952636927957E-06
(PID.TID 0000.0001) %MON dynstat_vvel_min             =  -1.2963408280905E-06
(PID.TID 0000.0001) %MON dynstat_vvel_mean            =   1.7067001091496E-16
(PID.TID 0000.0001) %MON dynstat_vvel_sd              =   1.2879640110508E-07
(PID.TID 0000.0001) %MON dynstat_vvel_del2            =   1.6634110474941E-08
(PID.TID 0000.0001) %MON dynstat_wvel_max             =   2.6328714058375E-06
(PID.TID 0000.0001) %MON dynstat_wvel_min             =  -4.4226958932626E-06
(PID.TID 0000.0001) %MON dynstat_wvel_mean            =   9.4969040943561E-25
(PID.TID 0000.0001) %MON dynstat_wvel_sd              =   4.1694314076743E-07
(PID.TID 0000.0001) %MON dynstat_wvel_del2            =   3.1280114544619E-07
(PID.TID 0000.0001) %MON dynstat_theta_max            =   2.0000990530340E+01
(PID.TID 0000.0001) %MON dynstat_theta_min            =   1.9988838963205E+01
(PID.TID 0000.0001) %MON dynstat_theta_mean           =   2.0000276455833E+01
(PID.TID 0000.0001) %MON dynstat_theta_sd             =   1.6064968957938E-03
(PID.TID 0000.0001) %MON dynstat_theta_del2           =   4.9294820475397E-04
(PID.TID 0000.0001) %MON dynstat_salt_max             =   3.5000000000000E+01
(PID.TID 0000.0001) %MON dynstat_salt_min             =   3.5000000000000E+01
(PID.TID 0000.0001) %MON dynstat_salt_mean            =   3.5000000000001E+01
(PID.TID 0000.0001) %MON dynstat_salt_sd              =   7.5317529990572E-13
(PID.TID 0000.0001) %MON dynstat_salt_del2            =   0.0000000000000E+00
(PID.TID 0000.0001) %MON extforcing_qnet_max          =   0.0000000000000E+00
(PID.TID 0000.0001) %MON extforcing_qnet_min          =   0.0000000000000E+00
(PID.TID 0000.0001) %MON extforcing_qnet_mean         =   0.0000000000000E+00
(PID.TID 0000.0001) %MON extforcing_qnet_sd           =   0.0000000000000E+00
(PID.TID 0000.0001) %MON extforcing_qnet_del2         =   0.0000000000000E+00
(PID.TID 0000.0001) %MON extforcing_qsw_max           =   0.0000000000000E+00
(PID.TID 0000.0001) %MON extforcing_qsw_min           =   0.0000000000000E+00
(PID.TID 0000.0001) %MON extforcing_qsw_mean          =   0.0000000000000E+00
(PID.TID 0000.0001) %MON extforcing_qsw_sd            =   0.0000000000000E+00
(PID.TID 0000.0001) %MON extforcing_qsw_del2          =   0.0000000000000E+00
(PID.TID 0000.0001) %MON extforcing_empmr_max         =   0.0000000000000E+00
(PID.TID 0000.0001) %MON extforcing_empmr_min         =   0.0000000000000E+00
(PID.TID 0000.0001) %MON extforcing_empmr_mean        =   0.0000000000000E+00
(PID.TID 0000.0001) %MON extforcing_empmr_sd          =   0.0000000000000E+00
(PID.TID 0000.0001) %MON extforcing_empmr_del2        =   0.0000000000000E+00
(PID.TID 0000.0001) %MON extforcing_fu_max            =   0.0000000000000E+00
(PID.TID 0000.0001) %MON extforcing_fu_min            =   0.0000000000000E+00
(PID.TID 0000.0001) %MON extforcing_fu_mean           =   0.0000000000000E+00
(PID.TID 0000.0001) %MON extforcing_fu_sd             =   0.0000000000000E+00
(PID.TID 0000.0001) %MON extforcing_fu_del2           =   0.0000000000000E+00
(PID.TID 0000.0001) %MON extforcing_fv_max            =   0.0000000000000E+00
(PID.TID 0000.0001) %MON extforcing_fv_min            =   0.0000000000000E+00
(PID.TID 0000.0001) %MON extforcing_fv_mean           =   0.0000000000000E+00
(PID.TID 0000.0001) %MON extforcing_fv_sd             =   0.0000000000000E+00
(PID.TID 0000.0001) %MON extforcing_fv_del2           =   0.0000000000000E+00
(PID.TID 0000.0001) %MON advcfl_uvel_max              =   5.0523313313307E-06
(PID.TID 0000.0001) %MON advcfl_vvel_max              =   1.2963408280905E-05
(PID.TID 0000.0001) %MON advcfl_wvel_max              =   8.8453917865253E-05
(PID.TID 0000.0001) %MON advcfl_W_hf_max              =   8.8453917865253E-05
(PID.TID 0000.0001) %MON pe_b_mean                    =   1.2622590919240E-14
(PID.TID 0000.0001) %MON ke_max                       =   5.1573939707170E-13
(PID.TID 0000.0001) %MON ke_mean                      =   8.1945878342760E-15
(PID.TID 0000.0001) %MON ke_vol                       =   3.8082386146814E-02
(PID.TID 0000.0001) %MON vort_r_min                   =  -2.2812977080228E-05
(PID.TID 0000.0001) %MON vort_r_max                   =   2.3003218273978E-05
(PID.TID 0000.0001) %MON vort_a_mean                  =   5.0000000000203E-01
(PID.TID 0000.0001) %MON vort_a_sd                    =   7.6523665250597E-07
(PID.TID 0000.0001) %MON vort_p_mean                  =   5.1396648044902E-01
(PID.TID 0000.0001) %MON vort_p_sd                    =   1.4406477049128E-01
(PID.TID 0000.0001) %MON surfExpan_theta_mean         =   0.0000000000000E+00
(PID.TID 0000.0001) %MON surfExpan_salt_mean          =   0.0000000000000E+00
(PID.TID 0000.0001) // =======================================================
(PID.TID 0000.0001) // End MONITOR dynamic field statistics
(PID.TID 0000.0001) // =======================================================
 cg2d: Sum(rhs),rhsMax =  -1.04916075827077E-14  6.59737231793840E-07
(PID.TID 0000.0001)                    cg2d_init_res =    3.89254515990522E+00
(PID.TID 0000.0001)                       cg2d_iters =    46
(PID.TID 0000.0001)                         cg2d_res =    9.65738919806958E-08
 cg3d: Sum(rhs),rhsMax =  -6.27276008913213E-14  2.31652153825282E-07
(PID.TID 0000.0001)                    cg3d_init_res =    1.25857564049324E+01
(PID.TID 0000.0001)                       cg3d_iters =    10
(PID.TID 0000.0001)                         cg3d_res =    1.23370046921278E+00
(PID.TID 0000.0001) // =======================================================
(PID.TID 0000.0001) // Begin MONITOR dynamic field statistics
(PID.TID 0000.0001) // =======================================================
(PID.TID 0000.0001) %MON time_tsnumber                =                     3
(PID.TID 0000.0001) %MON time_secondsf                =   3.0000000000000E-01
(PID.TID 0000.0001) %MON dynstat_eta_max              =   1.8418512099303E-08
(PID.TID 0000.0001) %MON dynstat_eta_min              =  -2.0653697332031E-07
(PID.TID 0000.0001) %MON dynstat_eta_mean             =   7.0960333960144E-09
(PID.TID 0000.0001) %MON dynstat_eta_sd               =   3.0109362880232E-08
(PID.TID 0000.0001) %MON dynstat_eta_del2             =   8.2222928593417E-09
(PID.TID 0000.0001) %MON dynstat_uvel_max             =   2.9178289115802E-07
(PID.TID 0000.0001) %MON dynstat_uvel_min             =  -2.9459321300052E-07
(PID.TID 0000.0001) %MON dynstat_uvel_mean            =  -1.5735152674276E-17
(PID.TID 0000.0001) %MON dynstat_uvel_sd              =   2.9994517565339E-08
(PID.TID 0000.0001) %MON dynstat_uvel_del2            =   2.1019163089555E-08
(PID.TID 0000.0001) %MON dynstat_vvel_max             =   3.0889099987734E-06
(PID.TID 0000.0001) %MON dynstat_vvel_min             =  -3.0994933430663E-06
(PID.TID 0000.0001) %MON dynstat_vvel_mean            =   1.2231609862777E-17
(PID.TID 0000.0001) %MON dynstat_vvel_sd              =   2.9554378592391E-07
(PID.TID 0000.0001) %MON dynstat_vvel_del2            =   2.4127092575048E-08
(PID.TID 0000.0001) %MON dynstat_wvel_max             =   2.8953868100942E-06
(PID.TID 0000.0001) %MON dynstat_wvel_min             =  -7.8294991505271E-06
(PID.TID 0000.0001) %MON dynstat_wvel_mean            =  -1.2950323765031E-24
(PID.TID 0000.0001) %MON dynstat_wvel_sd              =   7.2360956165267E-07
(PID.TID 0000.0001) %MON dynstat_wvel_del2            =   3.9562560287443E-07
(PID.TID 0000.0001) %MON dynstat_theta_max            =   2.0000987074119E+01
(PID.TID 0000.0001) %MON dynstat_theta_min            =   1.9983246801799E+01
(PID.TID 0000.0001) %MON dynstat_theta_mean           =   2.0000161693103E+01
(PID.TID 0000.0001) %MON dynstat_theta_sd             =   2.3888437601246E-03
(PID.TID 0000.0001) %MON dynstat_theta_del2           =   6.1571469830526E-04
(PID.TID 0000.0001) %MON dynstat_salt_max             =   3.5000000000000E+01
(PID.TID 0000.0001) %MON dynstat_salt_min             =   3.5000000000000E+01
(PID.TID 0000.0001) %MON dynstat_salt_mean            =   3.5000000000001E+01
(PID.TID 0000.0001) %MON dynstat_salt_sd              =   7.5317529990572E-13
(PID.TID 0000.0001) %MON dynstat_salt_del2            =   0.0000000000000E+00
(PID.TID 0000.0001) %MON extforcing_qnet_max          =   0.0000000000000E+00
(PID.TID 0000.0001) %MON extforcing_qnet_min          =   0.0000000000000E+00
(PID.TID 0000.0001) %MON extforcing_qnet_mean         =   0.0000000000000E+00
(PID.TID 0000.0001) %MON extforcing_qnet_sd           =   0.0000000000000E+00
(PID.TID 0000.0001) %MON extforcing_qnet_del2         =   0.0000000000000E+00
(PID.TID 0000.0001) %MON extforcing_qsw_max           =   0.0000000000000E+00
(PID.TID 0000.0001) %MON extforcing_qsw_min           =   0.0000000000000E+00
(PID.TID 0000.0001) %MON extforcing_qsw_mean          =   0.0000000000000E+00
(PID.TID 0000.0001) %MON extforcing_qsw_sd            =   0.0000000000000E+00
(PID.TID 0000.0001) %MON extforcing_qsw_del2          =   0.0000000000000E+00
(PID.TID 0000.0001) %MON extforcing_empmr_max         =   0.0000000000000E+00
(PID.TID 0000.0001) %MON extforcing_empmr_min         =   0.0000000000000E+00
(PID.TID 0000.0001) %MON extforcing_empmr_mean        =   0.0000000000000E+00
(PID.TID 0000.0001) %MON extforcing_empmr_sd          =   0.0000000000000E+00
(PID.TID 0000.0001) %MON extforcing_empmr_del2        =   0.0000000000000E+00
(PID.TID 0000.0001) %MON extforcing_fu_max            =   0.0000000000000E+00
(PID.TID 0000.0001) %MON extforcing_fu_min            =   0.0000000000000E+00
(PID.TID 0000.0001) %MON extforcing_fu_mean           =   0.0000000000000E+00
(PID.TID 0000.0001) %MON extforcing_fu_sd             =   0.0000000000000E+00
(PID.TID 0000.0001) %MON extforcing_fu_del2           =   0.0000000000000E+00
(PID.TID 0000.0001) %MON extforcing_fv_max            =   0.0000000000000E+00
(PID.TID 0000.0001) %MON extforcing_fv_min            =   0.0000000000000E+00
(PID.TID 0000.0001) %MON extforcing_fv_mean           =   0.0000000000000E+00
(PID.TID 0000.0001) %MON extforcing_fv_sd             =   0.0000000000000E+00
(PID.TID 0000.0001) %MON extforcing_fv_del2           =   0.0000000000000E+00
(PID.TID 0000.0001) %MON advcfl_uvel_max              =   6.0630503347558E-06
(PID.TID 0000.0001) %MON advcfl_vvel_max              =   3.0994933430663E-05
(PID.TID 0000.0001) %MON advcfl_wvel_max              =   1.5658998301054E-04
(PID.TID 0000.0001) %MON advcfl_W_hf_max              =   1.5658998301054E-04
(PID.TID 0000.0001) %MON pe_b_mean                    =   3.2370544895644E-14
(PID.TID 0000.0001) %MON ke_max                       =   2.9090523231281E-12
(PID.TID 0000.0001) %MON ke_mean                      =   4.2137760936604E-14
(PID.TID 0000.0001) %MON ke_vol                       =   3.8082386146814E-02
(PID.TID 0000.0001) %MON vort_r_min                   =  -2.8670658014136E-05
(PID.TID 0000.0001) %MON vort_r_max                   =   2.8559833106980E-05
(PID.TID 0000.0001) %MON vort_a_mean                  =   5.0000000000203E-01
(PID.TID 0000.0001) %MON vort_a_sd                    =   9.7747528612871E-07
(PID.TID 0000.0001) %MON vort_p_mean                  =   5.1396648044902E-01
(PID.TID 0000.0001) %MON vort_p_sd                    =   1.4406477049479E-01
(PID.TID 0000.0001) %MON surfExpan_theta_mean         =   0.0000000000000E+00
(PID.TID 0000.0001) %MON surfExpan_salt_mean          =   0.0000000000000E+00
(PID.TID 0000.0001) // =======================================================
(PID.TID 0000.0001) // End MONITOR dynamic field statistics
(PID.TID 0000.0001) // =======================================================
 cg2d: Sum(rhs),rhsMax =  -1.00475183728577E-14  8.14807314416523E-07
(PID.TID 0000.0001)                    cg2d_init_res =    3.13874880861364E+00
(PID.TID 0000.0001)                       cg2d_iters =    57
(PID.TID 0000.0001)                         cg2d_res =    8.93263774815868E-08
 cg3d: Sum(rhs),rhsMax =   2.28116137090950E-14  2.86010795668016E-07
(PID.TID 0000.0001)                    cg3d_init_res =    1.01398517114494E+01
(PID.TID 0000.0001)                       cg3d_iters =    10
(PID.TID 0000.0001)                         cg3d_res =    9.73642522131361E-01
(PID.TID 0000.0001) // =======================================================
(PID.TID 0000.0001) // Begin MONITOR dynamic field statistics
(PID.TID 0000.0001) // =======================================================
(PID.TID 0000.0001) %MON time_tsnumber                =                     4
(PID.TID 0000.0001) %MON time_secondsf                =   4.0000000000000E-01
(PID.TID 0000.0001) %MON dynstat_eta_max              =   2.2765106537174E-08
(PID.TID 0000.0001) %MON dynstat_eta_min              =  -2.8309676018742E-07
(PID.TID 0000.0001) %MON dynstat_eta_mean             =   9.8287581645037E-09
(PID.TID 0000.0001) %MON dynstat_eta_sd               =   4.1477607712259E-08
(PID.TID 0000.0001) %MON dynstat_eta_del2             =   9.9959527463424E-09
(PID.TID 0000.0001) %MON dynstat_uvel_max             =   5.4051433146752E-07
(PID.TID 0000.0001) %MON dynstat_uvel_min             =  -5.4562683414943E-07
(PID.TID 0000.0001) %MON dynstat_uvel_mean            =   3.5947565724387E-15
(PID.TID 0000.0001) %MON dynstat_uvel_sd              =   4.9409407368216E-08
(PID.TID 0000.0001) %MON dynstat_uvel_del2            =   3.1863328969750E-08
(PID.TID 0000.0001) %MON dynstat_vvel_max             =   5.6308106262211E-06
(PID.TID 0000.0001) %MON dynstat_vvel_min             =  -5.6541253255182E-06
(PID.TID 0000.0001) %MON dynstat_vvel_mean            =  -8.7502807910316E-18
(PID.TID 0000.0001) %MON dynstat_vvel_sd              =   5.1417833734722E-07
(PID.TID 0000.0001) %MON dynstat_vvel_del2            =   3.8023692163381E-08
(PID.TID 0000.0001) %MON dynstat_wvel_max             =   4.5407472878878E-06
(PID.TID 0000.0001) %MON dynstat_wvel_min             =  -1.3088731710281E-05
(PID.TID 0000.0001) %MON dynstat_wvel_mean            =   4.8347875389449E-24
(PID.TID 0000.0001) %MON dynstat_wvel_sd              =   1.2369736101168E-06
(PID.TID 0000.0001) %MON dynstat_wvel_del2            =   6.3151996604714E-07
(PID.TID 0000.0001) %MON dynstat_theta_max            =   2.0000983645169E+01
(PID.TID 0000.0001) %MON dynstat_theta_min            =   1.9977668033535E+01
(PID.TID 0000.0001) %MON dynstat_theta_mean           =   2.0000046962499E+01
(PID.TID 0000.0001) %MON dynstat_theta_sd             =   3.1731480641085E-03
(PID.TID 0000.0001) %MON dynstat_theta_del2           =   7.3774032943813E-04
(PID.TID 0000.0001) %MON dynstat_salt_max             =   3.5000000000000E+01
(PID.TID 0000.0001) %MON dynstat_salt_min             =   3.5000000000000E+01
(PID.TID 0000.0001) %MON dynstat_salt_mean            =   3.5000000000001E+01
(PID.TID 0000.0001) %MON dynstat_salt_sd              =   7.5317529990572E-13
(PID.TID 0000.0001) %MON dynstat_salt_del2            =   0.0000000000000E+00
(PID.TID 0000.0001) %MON extforcing_qnet_max          =   0.0000000000000E+00
(PID.TID 0000.0001) %MON extforcing_qnet_min          =   0.0000000000000E+00
(PID.TID 0000.0001) %MON extforcing_qnet_mean         =   0.0000000000000E+00
(PID.TID 0000.0001) %MON extforcing_qnet_sd           =   0.0000000000000E+00
(PID.TID 0000.0001) %MON extforcing_qnet_del2         =   0.0000000000000E+00
(PID.TID 0000.0001) %MON extforcing_qsw_max           =   0.0000000000000E+00
(PID.TID 0000.0001) %MON extforcing_qsw_min           =   0.0000000000000E+00
(PID.TID 0000.0001) %MON extforcing_qsw_mean          =   0.0000000000000E+00
(PID.TID 0000.0001) %MON extforcing_qsw_sd            =   0.0000000000000E+00
(PID.TID 0000.0001) %MON extforcing_qsw_del2          =   0.0000000000000E+00
(PID.TID 0000.0001) %MON extforcing_empmr_max         =   0.0000000000000E+00
(PID.TID 0000.0001) %MON extforcing_empmr_min         =   0.0000000000000E+00
(PID.TID 0000.0001) %MON extforcing_empmr_mean        =   0.0000000000000E+00
(PID.TID 0000.0001) %MON extforcing_empmr_sd          =   0.0000000000000E+00
(PID.TID 0000.0001) %MON extforcing_empmr_del2        =   0.0000000000000E+00
(PID.TID 0000.0001) %MON extforcing_fu_max            =   0.0000000000000E+00
(PID.TID 0000.0001) %MON extforcing_fu_min            =   0.0000000000000E+00
(PID.TID 0000.0001) %MON extforcing_fu_mean           =   0.0000000000000E+00
(PID.TID 0000.0001) %MON extforcing_fu_sd             =   0.0000000000000E+00
(PID.TID 0000.0001) %MON extforcing_fu_del2           =   0.0000000000000E+00
(PID.TID 0000.0001) %MON extforcing_fv_max            =   0.0000000000000E+00
(PID.TID 0000.0001) %MON extforcing_fv_min            =   0.0000000000000E+00
(PID.TID 0000.0001) %MON extforcing_fv_mean           =   0.0000000000000E+00
(PID.TID 0000.0001) %MON extforcing_fv_sd             =   0.0000000000000E+00
(PID.TID 0000.0001) %MON extforcing_fv_del2           =   0.0000000000000E+00
(PID.TID 0000.0001) %MON advcfl_uvel_max              =   1.0969163082753E-05
(PID.TID 0000.0001) %MON advcfl_vvel_max              =   5.6541253255182E-05
(PID.TID 0000.0001) %MON advcfl_wvel_max              =   2.6177463420563E-04
(PID.TID 0000.0001) %MON advcfl_W_hf_max              =   2.6177463420563E-04
(PID.TID 0000.0001) %MON pe_b_mean                    =   6.1464603325697E-14
(PID.TID 0000.0001) %MON ke_max                       =   9.6125745305865E-12
(PID.TID 0000.0001) %MON ke_mean                      =   1.2740170418962E-13
(PID.TID 0000.0001) %MON ke_vol                       =   3.8082386146814E-02
(PID.TID 0000.0001) %MON vort_r_min                   =  -4.9404686545110E-05
(PID.TID 0000.0001) %MON vort_r_max                   =   4.9858793417831E-05
(PID.TID 0000.0001) %MON vort_a_mean                  =   5.0000000000203E-01
(PID.TID 0000.0001) %MON vort_a_sd                    =   1.7957290371946E-06
(PID.TID 0000.0001) %MON vort_p_mean                  =   5.1396648044902E-01
(PID.TID 0000.0001) %MON vort_p_sd                    =   1.4406477052530E-01
(PID.TID 0000.0001) %MON surfExpan_theta_mean         =   0.0000000000000E+00
(PID.TID 0000.0001) %MON surfExpan_salt_mean          =   0.0000000000000E+00
(PID.TID 0000.0001) // =======================================================
(PID.TID 0000.0001) // End MONITOR dynamic field statistics
(PID.TID 0000.0001) // =======================================================
 cg2d: Sum(rhs),rhsMax =   5.55111512312578E-15  9.69511582401493E-07
(PID.TID 0000.0001)                    cg2d_init_res =    2.62047915188433E+00
(PID.TID 0000.0001)                       cg2d_iters =    41
(PID.TID 0000.0001)                         cg2d_res =    8.36919209153177E-08
 cg3d: Sum(rhs),rhsMax =   1.48527024013134E-14  3.40283399170327E-07
(PID.TID 0000.0001)                    cg3d_init_res =    8.44960303637357E+00
(PID.TID 0000.0001)                       cg3d_iters =    10
(PID.TID 0000.0001)                         cg3d_res =    9.26048371607087E-01
(PID.TID 0000.0001) // =======================================================
(PID.TID 0000.0001) // Begin MONITOR dynamic field statistics
(PID.TID 0000.0001) // =======================================================
(PID.TID 0000.0001) %MON time_tsnumber                =                     5
(PID.TID 0000.0001) %MON time_secondsf                =   5.0000000000000E-01
(PID.TID 0000.0001) %MON dynstat_eta_max              =   2.7110436009665E-08
(PID.TID 0000.0001) %MON dynstat_eta_min              =  -3.5947612064314E-07
(PID.TID 0000.0001) %MON dynstat_eta_mean             =   1.2559561190529E-08
(PID.TID 0000.0001) %MON dynstat_eta_sd               =   5.2846892318443E-08
(PID.TID 0000.0001) %MON dynstat_eta_del2             =   1.1758979122561E-08
(PID.TID 0000.0001) %MON dynstat_uvel_max             =   8.5098702476620E-07
(PID.TID 0000.0001) %MON dynstat_uvel_min             =  -8.4978215174979E-07
(PID.TID 0000.0001) %MON dynstat_uvel_mean            =   2.0872623251954E-14
(PID.TID 0000.0001) %MON dynstat_uvel_sd              =   7.6157584065003E-08
(PID.TID 0000.0001) %MON dynstat_uvel_del2            =   4.1074550038262E-08
(PID.TID 0000.0001) %MON dynstat_vvel_max             =   8.7147642642072E-06
(PID.TID 0000.0001) %MON dynstat_vvel_min             =  -8.7686025805475E-06
(PID.TID 0000.0001) %MON dynstat_vvel_mean            =   8.8193892379669E-17
(PID.TID 0000.0001) %MON dynstat_vvel_sd              =   7.7812540595461E-07
(PID.TID 0000.0001) %MON dynstat_vvel_del2            =   5.2852384081230E-08
(PID.TID 0000.0001) %MON dynstat_wvel_max             =   5.7291034885422E-06
(PID.TID 0000.0001) %MON dynstat_wvel_min             =  -1.9478285823427E-05
(PID.TID 0000.0001) %MON dynstat_wvel_mean            =   2.8145370316001E-23
(PID.TID 0000.0001) %MON dynstat_wvel_sd              =   1.8312503097346E-06
(PID.TID 0000.0001) %MON dynstat_wvel_del2            =   8.5696496192370E-07
(PID.TID 0000.0001) %MON dynstat_theta_max            =   2.0000981080157E+01
(PID.TID 0000.0001) %MON dynstat_theta_min            =   1.9972102817690E+01
(PID.TID 0000.0001) %MON dynstat_theta_mean           =   1.9999932263927E+01
(PID.TID 0000.0001) %MON dynstat_theta_sd             =   3.9568689476176E-03
(PID.TID 0000.0001) %MON dynstat_theta_del2           =   8.5905029554141E-04
(PID.TID 0000.0001) %MON dynstat_salt_max             =   3.5000000000000E+01
(PID.TID 0000.0001) %MON dynstat_salt_min             =   3.5000000000000E+01
(PID.TID 0000.0001) %MON dynstat_salt_mean            =   3.5000000000001E+01
(PID.TID 0000.0001) %MON dynstat_salt_sd              =   7.5317529990572E-13
(PID.TID 0000.0001) %MON dynstat_salt_del2            =   0.0000000000000E+00
(PID.TID 0000.0001) %MON extforcing_qnet_max          =   0.0000000000000E+00
(PID.TID 0000.0001) %MON extforcing_qnet_min          =   0.0000000000000E+00
(PID.TID 0000.0001) %MON extforcing_qnet_mean         =   0.0000000000000E+00
(PID.TID 0000.0001) %MON extforcing_qnet_sd           =   0.0000000000000E+00
(PID.TID 0000.0001) %MON extforcing_qnet_del2         =   0.0000000000000E+00
(PID.TID 0000.0001) %MON extforcing_qsw_max           =   0.0000000000000E+00
(PID.TID 0000.0001) %MON extforcing_qsw_min           =   0.0000000000000E+00
(PID.TID 0000.0001) %MON extforcing_qsw_mean          =   0.0000000000000E+00
(PID.TID 0000.0001) %MON extforcing_qsw_sd            =   0.0000000000000E+00
(PID.TID 0000.0001) %MON extforcing_qsw_del2          =   0.0000000000000E+00
(PID.TID 0000.0001) %MON extforcing_empmr_max         =   0.0000000000000E+00
(PID.TID 0000.0001) %MON extforcing_empmr_min         =   0.0000000000000E+00
(PID.TID 0000.0001) %MON extforcing_empmr_mean        =   0.0000000000000E+00
(PID.TID 0000.0001) %MON extforcing_empmr_sd          =   0.0000000000000E+00
(PID.TID 0000.0001) %MON extforcing_empmr_del2        =   0.0000000000000E+00
(PID.TID 0000.0001) %MON extforcing_fu_max            =   0.0000000000000E+00
(PID.TID 0000.0001) %MON extforcing_fu_min            =   0.0000000000000E+00
(PID.TID 0000.0001) %MON extforcing_fu_mean           =   0.0000000000000E+00
(PID.TID 0000.0001) %MON extforcing_fu_sd             =   0.0000000000000E+00
(PID.TID 0000.0001) %MON extforcing_fu_del2           =   0.0000000000000E+00
(PID.TID 0000.0001) %MON extforcing_fv_max            =   0.0000000000000E+00
(PID.TID 0000.0001) %MON extforcing_fv_min            =   0.0000000000000E+00
(PID.TID 0000.0001) %MON extforcing_fv_mean           =   0.0000000000000E+00
(PID.TID 0000.0001) %MON extforcing_fv_sd             =   0.0000000000000E+00
(PID.TID 0000.0001) %MON extforcing_fv_del2           =   0.0000000000000E+00
(PID.TID 0000.0001) %MON advcfl_uvel_max              =   1.7108057873508E-05
(PID.TID 0000.0001) %MON advcfl_vvel_max              =   8.7686025805475E-05
(PID.TID 0000.0001) %MON advcfl_wvel_max              =   3.8956571646854E-04
(PID.TID 0000.0001) %MON advcfl_W_hf_max              =   3.8956571646854E-04
(PID.TID 0000.0001) %MON pe_b_mean                    =   9.9809531362779E-14
(PID.TID 0000.0001) %MON ke_max                       =   2.3211275500745E-11
(PID.TID 0000.0001) %MON ke_mean                      =   2.9187867278789E-13
(PID.TID 0000.0001) %MON ke_vol                       =   3.8082386146814E-02
(PID.TID 0000.0001) %MON vort_r_min                   =  -7.3555078154924E-05
(PID.TID 0000.0001) %MON vort_r_max                   =   7.3336908943803E-05
(PID.TID 0000.0001) %MON vort_a_mean                  =   5.0000000000203E-01
(PID.TID 0000.0001) %MON vort_a_sd                    =   2.9975047853659E-06
(PID.TID 0000.0001) %MON vort_p_mean                  =   5.1396648044902E-01
(PID.TID 0000.0001) %MON vort_p_sd                    =   1.4406477061432E-01
(PID.TID 0000.0001) %MON surfExpan_theta_mean         =   0.0000000000000E+00
(PID.TID 0000.0001) %MON surfExpan_salt_mean          =   0.0000000000000E+00
(PID.TID 0000.0001) // =======================================================
(PID.TID 0000.0001) // End MONITOR dynamic field statistics
(PID.TID 0000.0001) // =======================================================
 cg2d: Sum(rhs),rhsMax =  -3.80251385934116E-15  1.12382115314379E-06
(PID.TID 0000.0001)                    cg2d_init_res =    2.24579213746130E+00
(PID.TID 0000.0001)                       cg2d_iters =    41
(PID.TID 0000.0001)                         cg2d_res =    8.17773512981732E-08
 cg3d: Sum(rhs),rhsMax =   4.02455846426619E-15  3.94318625346953E-07
(PID.TID 0000.0001)                    cg3d_init_res =    7.25456662926599E+00
(PID.TID 0000.0001)                       cg3d_iters =    10
(PID.TID 0000.0001)                         cg3d_res =    7.18275660011558E-01
(PID.TID 0000.0001) // =======================================================
(PID.TID 0000.0001) // Begin MONITOR dynamic field statistics
(PID.TID 0000.0001) // =======================================================
(PID.TID 0000.0001) %MON time_tsnumber                =                     6
(PID.TID 0000.0001) %MON time_secondsf                =   6.0000000000000E-01
(PID.TID 0000.0001) %MON dynstat_eta_max              =   3.1481885373797E-08
(PID.TID 0000.0001) %MON dynstat_eta_min              =  -4.3562658162705E-07
(PID.TID 0000.0001) %MON dynstat_eta_mean             =   1.5288412924829E-08
(PID.TID 0000.0001) %MON dynstat_eta_sd               =   6.4198813796805E-08
(PID.TID 0000.0001) %MON dynstat_eta_del2             =   1.3511819348003E-08
(PID.TID 0000.0001) %MON dynstat_uvel_max             =   1.2623335281003E-06
(PID.TID 0000.0001) %MON dynstat_uvel_min             =  -1.2736367939653E-06
(PID.TID 0000.0001) %MON dynstat_uvel_mean            =   7.2744101101369E-14
(PID.TID 0000.0001) %MON dynstat_uvel_sd              =   1.1736389386514E-07
(PID.TID 0000.0001) %MON dynstat_uvel_del2            =   4.9517643253247E-08
(PID.TID 0000.0001) %MON dynstat_vvel_max             =   1.2507151292258E-05
(PID.TID 0000.0001) %MON dynstat_vvel_min             =  -1.2592820719953E-05
(PID.TID 0000.0001) %MON dynstat_vvel_mean            =  -1.0138318434408E-17
(PID.TID 0000.0001) %MON dynstat_vvel_sd              =   1.0916363638565E-06
(PID.TID 0000.0001) %MON dynstat_vvel_del2            =   6.8393020232814E-08
(PID.TID 0000.0001) %MON dynstat_wvel_max             =   6.8739234422235E-06
(PID.TID 0000.0001) %MON dynstat_wvel_min             =  -2.5354666584764E-05
(PID.TID 0000.0001) %MON dynstat_wvel_mean            =   2.9699409167805E-23
(PID.TID 0000.0001) %MON dynstat_wvel_sd              =   2.5559287326440E-06
(PID.TID 0000.0001) %MON dynstat_wvel_del2            =   1.0948497192315E-06
(PID.TID 0000.0001) %MON dynstat_theta_max            =   2.0000979689030E+01
(PID.TID 0000.0001) %MON dynstat_theta_min            =   1.9966552677157E+01
(PID.TID 0000.0001) %MON dynstat_theta_mean           =   1.9999817597294E+01
(PID.TID 0000.0001) %MON dynstat_theta_sd             =   4.7391590932060E-03
(PID.TID 0000.0001) %MON dynstat_theta_del2           =   9.7966705488253E-04
(PID.TID 0000.0001) %MON dynstat_salt_max             =   3.5000000000000E+01
(PID.TID 0000.0001) %MON dynstat_salt_min             =   3.5000000000000E+01
(PID.TID 0000.0001) %MON dynstat_salt_mean            =   3.5000000000001E+01
(PID.TID 0000.0001) %MON dynstat_salt_sd              =   7.5317529990572E-13
(PID.TID 0000.0001) %MON dynstat_salt_del2            =   0.0000000000000E+00
(PID.TID 0000.0001) %MON extforcing_qnet_max          =   0.0000000000000E+00
(PID.TID 0000.0001) %MON extforcing_qnet_min          =   0.0000000000000E+00
(PID.TID 0000.0001) %MON extforcing_qnet_mean         =   0.0000000000000E+00
(PID.TID 0000.0001) %MON extforcing_qnet_sd           =   0.0000000000000E+00
(PID.TID 0000.0001) %MON extforcing_qnet_del2         =   0.0000000000000E+00
(PID.TID 0000.0001) %MON extforcing_qsw_max           =   0.0000000000000E+00
(PID.TID 0000.0001) %MON extforcing_qsw_min           =   0.0000000000000E+00
(PID.TID 0000.0001) %MON extforcing_qsw_mean          =   0.0000000000000E+00
(PID.TID 0000.0001) %MON extforcing_qsw_sd            =   0.0000000000000E+00
(PID.TID 0000.0001) %MON extforcing_qsw_del2          =   0.0000000000000E+00
(PID.TID 0000.0001) %MON extforcing_empmr_max         =   0.0000000000000E+00
(PID.TID 0000.0001) %MON extforcing_empmr_min         =   0.0000000000000E+00
(PID.TID 0000.0001) %MON extforcing_empmr_mean        =   0.0000000000000E+00
(PID.TID 0000.0001) %MON extforcing_empmr_sd          =   0.0000000000000E+00
(PID.TID 0000.0001) %MON extforcing_empmr_del2        =   0.0000000000000E+00
(PID.TID 0000.0001) %MON extforcing_fu_max            =   0.0000000000000E+00
(PID.TID 0000.0001) %MON extforcing_fu_min            =   0.0000000000000E+00
(PID.TID 0000.0001) %MON extforcing_fu_mean           =   0.0000000000000E+00
(PID.TID 0000.0001) %MON extforcing_fu_sd             =   0.0000000000000E+00
(PID.TID 0000.0001) %MON extforcing_fu_del2           =   0.0000000000000E+00
(PID.TID 0000.0001) %MON extforcing_fv_max            =   0.0000000000000E+00
(PID.TID 0000.0001) %MON extforcing_fv_min            =   0.0000000000000E+00
(PID.TID 0000.0001) %MON extforcing_fv_mean           =   0.0000000000000E+00
(PID.TID 0000.0001) %MON extforcing_fv_sd             =   0.0000000000000E+00
(PID.TID 0000.0001) %MON extforcing_fv_del2           =   0.0000000000000E+00
(PID.TID 0000.0001) %MON advcfl_uvel_max              =   2.5604916816416E-05
(PID.TID 0000.0001) %MON advcfl_vvel_max              =   1.2592820719953E-04
(PID.TID 0000.0001) %MON advcfl_wvel_max              =   5.0709333169527E-04
(PID.TID 0000.0001) %MON advcfl_W_hf_max              =   5.0709333169527E-04
(PID.TID 0000.0001) %MON pe_b_mean                    =   1.4732669036849E-13
(PID.TID 0000.0001) %MON ke_max                       =   4.7984415331695E-11
(PID.TID 0000.0001) %MON ke_mean                      =   5.7563870926369E-13
(PID.TID 0000.0001) %MON ke_vol                       =   3.8082386146814E-02
(PID.TID 0000.0001) %MON vort_r_min                   =  -1.0933034855416E-04
(PID.TID 0000.0001) %MON vort_r_max                   =   1.1103273029551E-04
(PID.TID 0000.0001) %MON vort_a_mean                  =   5.0000000000203E-01
(PID.TID 0000.0001) %MON vort_a_sd                    =   4.8609314527663E-06
(PID.TID 0000.0001) %MON vort_p_mean                  =   5.1396648044902E-01
(PID.TID 0000.0001) %MON vort_p_sd                    =   1.4406477086644E-01
(PID.TID 0000.0001) %MON surfExpan_theta_mean         =   0.0000000000000E+00
(PID.TID 0000.0001) %MON surfExpan_salt_mean          =   0.0000000000000E+00
(PID.TID 0000.0001) // =======================================================
(PID.TID 0000.0001) // End MONITOR dynamic field statistics
(PID.TID 0000.0001) // =======================================================
 cg2d: Sum(rhs),rhsMax =  -1.83741910575463E-14  1.27772290193708E-06
(PID.TID 0000.0001)                    cg2d_init_res =    1.96231577638983E+00
(PID.TID 0000.0001)                       cg2d_iters =    40
(PID.TID 0000.0001)                         cg2d_res =    9.84330124627173E-08
 cg3d: Sum(rhs),rhsMax =   1.82735770959397E-14  4.48215800393938E-07
(PID.TID 0000.0001)                    cg3d_init_res =    6.32844904147684E+00
(PID.TID 0000.0001)                       cg3d_iters =    10
(PID.TID 0000.0001)                         cg3d_res =    7.19338231926960E-01
(PID.TID 0000.0001) // =======================================================
(PID.TID 0000.0001) // Begin MONITOR dynamic field statistics
(PID.TID 0000.0001) // =======================================================
(PID.TID 0000.0001) %MON time_tsnumber                =                     7
(PID.TID 0000.0001) %MON time_secondsf                =   7.0000000000000E-01
(PID.TID 0000.0001) %MON dynstat_eta_max              =   3.5850801665326E-08
(PID.TID 0000.0001) %MON dynstat_eta_min              =  -5.1154836557511E-07
(PID.TID 0000.0001) %MON dynstat_eta_mean             =   1.8015281859137E-08
(PID.TID 0000.0001) %MON dynstat_eta_sd               =   7.5526127207993E-08
(PID.TID 0000.0001) %MON dynstat_eta_del2             =   1.5255021487308E-08
(PID.TID 0000.0001) %MON dynstat_uvel_max             =   1.9280935565253E-06
(PID.TID 0000.0001) %MON dynstat_uvel_min             =  -1.9294067494995E-06
(PID.TID 0000.0001) %MON dynstat_uvel_mean            =   1.9589188745790E-13
(PID.TID 0000.0001) %MON dynstat_uvel_sd              =   1.7454365893732E-07
(PID.TID 0000.0001) %MON dynstat_uvel_del2            =   6.0915455722146E-08
(PID.TID 0000.0001) %MON dynstat_vvel_max             =   1.6832256580034E-05
(PID.TID 0000.0001) %MON dynstat_vvel_min             =  -1.6974335785364E-05
(PID.TID 0000.0001) %MON dynstat_vvel_mean            =   4.3793816084260E-17
(PID.TID 0000.0001) %MON dynstat_vvel_sd              =   1.4490362534815E-06
(PID.TID 0000.0001) %MON dynstat_vvel_del2            =   8.6523799572294E-08
(PID.TID 0000.0001) %MON dynstat_wvel_max             =   8.9824059767096E-06
(PID.TID 0000.0001) %MON dynstat_wvel_min             =  -3.4423627130325E-05
(PID.TID 0000.0001) %MON dynstat_wvel_mean            =   3.6260906542087E-24
(PID.TID 0000.0001) %MON dynstat_wvel_sd              =   3.3892997435636E-06
(PID.TID 0000.0001) %MON dynstat_wvel_del2            =   1.3932057329284E-06
(PID.TID 0000.0001) %MON dynstat_theta_max            =   2.0000978296376E+01
(PID.TID 0000.0001) %MON dynstat_theta_min            =   1.9961017241705E+01
(PID.TID 0000.0001) %MON dynstat_theta_mean           =   1.9999702962509E+01
(PID.TID 0000.0001) %MON dynstat_theta_sd             =   5.5196621547137E-03
(PID.TID 0000.0001) %MON dynstat_theta_del2           =   1.0996353551141E-03
(PID.TID 0000.0001) %MON dynstat_salt_max             =   3.5000000000000E+01
(PID.TID 0000.0001) %MON dynstat_salt_min             =   3.5000000000000E+01
(PID.TID 0000.0001) %MON dynstat_salt_mean            =   3.5000000000001E+01
(PID.TID 0000.0001) %MON dynstat_salt_sd              =   7.5317529990572E-13
(PID.TID 0000.0001) %MON dynstat_salt_del2            =   0.0000000000000E+00
(PID.TID 0000.0001) %MON extforcing_qnet_max          =   0.0000000000000E+00
(PID.TID 0000.0001) %MON extforcing_qnet_min          =   0.0000000000000E+00
(PID.TID 0000.0001) %MON extforcing_qnet_mean         =   0.0000000000000E+00
(PID.TID 0000.0001) %MON extforcing_qnet_sd           =   0.0000000000000E+00
(PID.TID 0000.0001) %MON extforcing_qnet_del2         =   0.0000000000000E+00
(PID.TID 0000.0001) %MON extforcing_qsw_max           =   0.0000000000000E+00
(PID.TID 0000.0001) %MON extforcing_qsw_min           =   0.0000000000000E+00
(PID.TID 0000.0001) %MON extforcing_qsw_mean          =   0.0000000000000E+00
(PID.TID 0000.0001) %MON extforcing_qsw_sd            =   0.0000000000000E+00
(PID.TID 0000.0001) %MON extforcing_qsw_del2          =   0.0000000000000E+00
(PID.TID 0000.0001) %MON extforcing_empmr_max         =   0.0000000000000E+00
(PID.TID 0000.0001) %MON extforcing_empmr_min         =   0.0000000000000E+00
(PID.TID 0000.0001) %MON extforcing_empmr_mean        =   0.0000000000000E+00
(PID.TID 0000.0001) %MON extforcing_empmr_sd          =   0.0000000000000E+00
(PID.TID 0000.0001) %MON extforcing_empmr_del2        =   0.0000000000000E+00
(PID.TID 0000.0001) %MON extforcing_fu_max            =   0.0000000000000E+00
(PID.TID 0000.0001) %MON extforcing_fu_min            =   0.0000000000000E+00
(PID.TID 0000.0001) %MON extforcing_fu_mean           =   0.0000000000000E+00
(PID.TID 0000.0001) %MON extforcing_fu_sd             =   0.0000000000000E+00
(PID.TID 0000.0001) %MON extforcing_fu_del2           =   0.0000000000000E+00
(PID.TID 0000.0001) %MON extforcing_fv_max            =   0.0000000000000E+00
(PID.TID 0000.0001) %MON extforcing_fv_min            =   0.0000000000000E+00
(PID.TID 0000.0001) %MON extforcing_fv_mean           =   0.0000000000000E+00
(PID.TID 0000.0001) %MON extforcing_fv_sd             =   0.0000000000000E+00
(PID.TID 0000.0001) %MON extforcing_fv_del2           =   0.0000000000000E+00
(PID.TID 0000.0001) %MON advcfl_uvel_max              =   3.8788373231710E-05
(PID.TID 0000.0001) %MON advcfl_vvel_max              =   1.6974335785364E-04
(PID.TID 0000.0001) %MON advcfl_wvel_max              =   6.8847254260650E-04
(PID.TID 0000.0001) %MON advcfl_W_hf_max              =   6.8847254260650E-04
(PID.TID 0000.0001) %MON pe_b_mean                    =   2.0393793421875E-13
(PID.TID 0000.0001) %MON ke_max                       =   8.7739699460028E-11
(PID.TID 0000.0001) %MON ke_mean                      =   1.0173651840281E-12
(PID.TID 0000.0001) %MON ke_vol                       =   3.8082386146814E-02
(PID.TID 0000.0001) %MON vort_r_min                   =  -1.5491624946676E-04
(PID.TID 0000.0001) %MON vort_r_max                   =   1.5504610331633E-04
(PID.TID 0000.0001) %MON vort_a_mean                  =   5.0000000000203E-01
(PID.TID 0000.0001) %MON vort_a_sd                    =   7.4655895751222E-06
(PID.TID 0000.0001) %MON vort_p_mean                  =   5.1396648044902E-01
(PID.TID 0000.0001) %MON vort_p_sd                    =   1.4406477145605E-01
(PID.TID 0000.0001) %MON surfExpan_theta_mean         =   0.0000000000000E+00
(PID.TID 0000.0001) %MON surfExpan_salt_mean          =   0.0000000000000E+00
(PID.TID 0000.0001) // =======================================================
(PID.TID 0000.0001) // End MONITOR dynamic field statistics
(PID.TID 0000.0001) // =======================================================
 cg2d: Sum(rhs),rhsMax =   3.60822483003176E-16  1.43119530563416E-06
(PID.TID 0000.0001)                    cg2d_init_res =    1.74040957043350E+00
(PID.TID 0000.0001)                       cg2d_iters =    40
(PID.TID 0000.0001)                         cg2d_res =    9.52067844226592E-08
 cg3d: Sum(rhs),rhsMax =   5.20191528741165E-14  5.01860134315338E-07
(PID.TID 0000.0001)                    cg3d_init_res =    5.62107177907824E+00
(PID.TID 0000.0001)                       cg3d_iters =    10
(PID.TID 0000.0001)                         cg3d_res =    5.69266359999535E-01
(PID.TID 0000.0001) // =======================================================
(PID.TID 0000.0001) // Begin MONITOR dynamic field statistics
(PID.TID 0000.0001) // =======================================================
(PID.TID 0000.0001) %MON time_tsnumber                =                     8
(PID.TID 0000.0001) %MON time_secondsf                =   8.0000000000000E-01
(PID.TID 0000.0001) %MON dynstat_eta_max              =   4.0217114927851E-08
(PID.TID 0000.0001) %MON dynstat_eta_min              =  -5.8724192116245E-07
(PID.TID 0000.0001) %MON dynstat_eta_mean             =   2.0740124239940E-08
(PID.TID 0000.0001) %MON dynstat_eta_sd               =   8.6825431707812E-08
(PID.TID 0000.0001) %MON dynstat_eta_del2             =   1.6988994361317E-08
(PID.TID 0000.0001) %MON dynstat_uvel_max             =   2.6042455043098E-06
(PID.TID 0000.0001) %MON dynstat_uvel_min             =  -2.6232326525080E-06
(PID.TID 0000.0001) %MON dynstat_uvel_mean            =   4.4819774978478E-13
(PID.TID 0000.0001) %MON dynstat_uvel_sd              =   2.4901219469813E-07
(PID.TID 0000.0001) %MON dynstat_uvel_del2            =   6.8168536115809E-08
(PID.TID 0000.0001) %MON dynstat_vvel_max             =   2.1824470301858E-05
(PID.TID 0000.0001) %MON dynstat_vvel_min             =  -2.2023605459294E-05
(PID.TID 0000.0001) %MON dynstat_vvel_mean            =   2.4249662847625E-17
(PID.TID 0000.0001) %MON dynstat_vvel_sd              =   1.8545939814513E-06
(PID.TID 0000.0001) %MON dynstat_vvel_del2            =   1.0318955998276E-07
(PID.TID 0000.0001) %MON dynstat_wvel_max             =   1.0121424255345E-05
(PID.TID 0000.0001) %MON dynstat_wvel_min             =  -4.2053326939377E-05
(PID.TID 0000.0001) %MON dynstat_wvel_mean            =   3.2807486871412E-23
(PID.TID 0000.0001) %MON dynstat_wvel_sd              =   4.3354223850045E-06
(PID.TID 0000.0001) %MON dynstat_wvel_del2            =   1.6470776732372E-06
(PID.TID 0000.0001) %MON dynstat_theta_max            =   2.0000976902293E+01
(PID.TID 0000.0001) %MON dynstat_theta_min            =   1.9955496060374E+01
(PID.TID 0000.0001) %MON dynstat_theta_mean           =   1.9999588359480E+01
(PID.TID 0000.0001) %MON dynstat_theta_sd             =   6.2982069459336E-03
(PID.TID 0000.0001) %MON dynstat_theta_del2           =   1.2189916619036E-03
(PID.TID 0000.0001) %MON dynstat_salt_max             =   3.5000000000000E+01
(PID.TID 0000.0001) %MON dynstat_salt_min             =   3.5000000000000E+01
(PID.TID 0000.0001) %MON dynstat_salt_mean            =   3.5000000000001E+01
(PID.TID 0000.0001) %MON dynstat_salt_sd              =   7.5317529990572E-13
(PID.TID 0000.0001) %MON dynstat_salt_del2            =   0.0000000000000E+00
(PID.TID 0000.0001) %MON extforcing_qnet_max          =   0.0000000000000E+00
(PID.TID 0000.0001) %MON extforcing_qnet_min          =   0.0000000000000E+00
(PID.TID 0000.0001) %MON extforcing_qnet_mean         =   0.0000000000000E+00
(PID.TID 0000.0001) %MON extforcing_qnet_sd           =   0.0000000000000E+00
(PID.TID 0000.0001) %MON extforcing_qnet_del2         =   0.0000000000000E+00
(PID.TID 0000.0001) %MON extforcing_qsw_max           =   0.0000000000000E+00
(PID.TID 0000.0001) %MON extforcing_qsw_min           =   0.0000000000000E+00
(PID.TID 0000.0001) %MON extforcing_qsw_mean          =   0.0000000000000E+00
(PID.TID 0000.0001) %MON extforcing_qsw_sd            =   0.0000000000000E+00
(PID.TID 0000.0001) %MON extforcing_qsw_del2          =   0.0000000000000E+00
(PID.TID 0000.0001) %MON extforcing_empmr_max         =   0.0000000000000E+00
(PID.TID 0000.0001) %MON extforcing_empmr_min         =   0.0000000000000E+00
(PID.TID 0000.0001) %MON extforcing_empmr_mean        =   0.0000000000000E+00
(PID.TID 0000.0001) %MON extforcing_empmr_sd          =   0.0000000000000E+00
(PID.TID 0000.0001) %MON extforcing_empmr_del2        =   0.0000000000000E+00
(PID.TID 0000.0001) %MON extforcing_fu_max            =   0.0000000000000E+00
(PID.TID 0000.0001) %MON extforcing_fu_min            =   0.0000000000000E+00
(PID.TID 0000.0001) %MON extforcing_fu_mean           =   0.0000000000000E+00
(PID.TID 0000.0001) %MON extforcing_fu_sd             =   0.0000000000000E+00
(PID.TID 0000.0001) %MON extforcing_fu_del2           =   0.0000000000000E+00
(PID.TID 0000.0001) %MON extforcing_fv_max            =   0.0000000000000E+00
(PID.TID 0000.0001) %MON extforcing_fv_min            =   0.0000000000000E+00
(PID.TID 0000.0001) %MON extforcing_fv_mean           =   0.0000000000000E+00
(PID.TID 0000.0001) %MON extforcing_fv_sd             =   0.0000000000000E+00
(PID.TID 0000.0001) %MON extforcing_fv_del2           =   0.0000000000000E+00
(PID.TID 0000.0001) %MON advcfl_uvel_max              =   5.2736898129690E-05
(PID.TID 0000.0001) %MON advcfl_vvel_max              =   2.2023605459294E-04
(PID.TID 0000.0001) %MON advcfl_wvel_max              =   8.4106653878753E-04
(PID.TID 0000.0001) %MON advcfl_W_hf_max              =   8.4106653878753E-04
(PID.TID 0000.0001) %MON pe_b_mean                    =   2.6956555124781E-13
(PID.TID 0000.0001) %MON ke_max                       =   1.4832281598209E-10
(PID.TID 0000.0001) %MON ke_mean                      =   1.6725920719349E-12
(PID.TID 0000.0001) %MON ke_vol                       =   3.8082386146814E-02
(PID.TID 0000.0001) %MON vort_r_min                   =  -2.1044022981443E-04
(PID.TID 0000.0001) %MON vort_r_max                   =   2.1384915891124E-04
(PID.TID 0000.0001) %MON vort_a_mean                  =   5.0000000000203E-01
(PID.TID 0000.0001) %MON vort_a_sd                    =   1.0882572150766E-05
(PID.TID 0000.0001) %MON vort_p_mean                  =   5.1396648044902E-01
(PID.TID 0000.0001) %MON vort_p_sd                    =   1.4406477266394E-01
(PID.TID 0000.0001) %MON surfExpan_theta_mean         =   0.0000000000000E+00
(PID.TID 0000.0001) %MON surfExpan_salt_mean          =   0.0000000000000E+00
(PID.TID 0000.0001) // =======================================================
(PID.TID 0000.0001) // End MONITOR dynamic field statistics
(PID.TID 0000.0001) // =======================================================
 cg2d: Sum(rhs),rhsMax =  -2.32314167902814E-14  1.58422884093563E-06
(PID.TID 0000.0001)                    cg2d_init_res =    1.56200787121102E+00
(PID.TID 0000.0001)                       cg2d_iters =    40
(PID.TID 0000.0001)                         cg2d_res =    8.87791513816576E-08
 cg3d: Sum(rhs),rhsMax =  -7.68829444552921E-14  5.55325213509908E-07
(PID.TID 0000.0001)                    cg3d_init_res =    5.03896858048225E+00
(PID.TID 0000.0001)                       cg3d_iters =    10
(PID.TID 0000.0001)                         cg3d_res =    5.71934381860265E-01
(PID.TID 0000.0001) // =======================================================
(PID.TID 0000.0001) // Begin MONITOR dynamic field statistics
(PID.TID 0000.0001) // =======================================================
(PID.TID 0000.0001) %MON time_tsnumber                =                     9
(PID.TID 0000.0001) %MON time_secondsf                =   9.0000000000000E-01
(PID.TID 0000.0001) %MON dynstat_eta_max              =   4.4580751693504E-08
(PID.TID 0000.0001) %MON dynstat_eta_min              =  -6.6270713669635E-07
(PID.TID 0000.0001) %MON dynstat_eta_mean             =   2.3462895574748E-08
(PID.TID 0000.0001) %MON dynstat_eta_sd               =   9.8094938875589E-08
(PID.TID 0000.0001) %MON dynstat_eta_del2             =   1.8714393828783E-08
(PID.TID 0000.0001) %MON dynstat_uvel_max             =   3.6758310113717E-06
(PID.TID 0000.0001) %MON dynstat_uvel_min             =  -3.6841775933865E-06
(PID.TID 0000.0001) %MON dynstat_uvel_mean            =   9.1593125549087E-13
(PID.TID 0000.0001) %MON dynstat_uvel_sd              =   3.4402619115812E-07
(PID.TID 0000.0001) %MON dynstat_uvel_del2            =   8.0025487232379E-08
(PID.TID 0000.0001) %MON dynstat_vvel_max             =   2.7331351131317E-05
(PID.TID 0000.0001) %MON dynstat_vvel_min             =  -2.7616958479546E-05
(PID.TID 0000.0001) %MON dynstat_vvel_mean            =  -4.6463916343675E-18
(PID.TID 0000.0001) %MON dynstat_vvel_sd              =   2.3035150034003E-06
(PID.TID 0000.0001) %MON dynstat_vvel_del2            =   1.2337333737138E-07
(PID.TID 0000.0001) %MON dynstat_wvel_max             =   1.2218539058967E-05
(PID.TID 0000.0001) %MON dynstat_wvel_min             =  -5.2355691439545E-05
(PID.TID 0000.0001) %MON dynstat_wvel_mean            =   5.6118069648468E-23
(PID.TID 0000.0001) %MON dynstat_wvel_sd              =   5.3970543924918E-06
(PID.TID 0000.0001) %MON dynstat_wvel_del2            =   1.9832044791893E-06
(PID.TID 0000.0001) %MON dynstat_theta_max            =   2.0000975506948E+01
(PID.TID 0000.0001) %MON dynstat_theta_min            =   1.9949988679038E+01
(PID.TID 0000.0001) %MON dynstat_theta_mean           =   1.9999473788114E+01
(PID.TID 0000.0001) %MON dynstat_theta_sd             =   7.0747047563027E-03
(PID.TID 0000.0001) %MON dynstat_theta_del2           =   1.3377318942062E-03
(PID.TID 0000.0001) %MON dynstat_salt_max             =   3.5000000000000E+01
(PID.TID 0000.0001) %MON dynstat_salt_min             =   3.5000000000000E+01
(PID.TID 0000.0001) %MON dynstat_salt_mean            =   3.5000000000001E+01
(PID.TID 0000.0001) %MON dynstat_salt_sd              =   7.5317529990572E-13
(PID.TID 0000.0001) %MON dynstat_salt_del2            =   0.0000000000000E+00
(PID.TID 0000.0001) %MON extforcing_qnet_max          =   0.0000000000000E+00
(PID.TID 0000.0001) %MON extforcing_qnet_min          =   0.0000000000000E+00
(PID.TID 0000.0001) %MON extforcing_qnet_mean         =   0.0000000000000E+00
(PID.TID 0000.0001) %MON extforcing_qnet_sd           =   0.0000000000000E+00
(PID.TID 0000.0001) %MON extforcing_qnet_del2         =   0.0000000000000E+00
(PID.TID 0000.0001) %MON extforcing_qsw_max           =   0.0000000000000E+00
(PID.TID 0000.0001) %MON extforcing_qsw_min           =   0.0000000000000E+00
(PID.TID 0000.0001) %MON extforcing_qsw_mean          =   0.0000000000000E+00
(PID.TID 0000.0001) %MON extforcing_qsw_sd            =   0.0000000000000E+00
(PID.TID 0000.0001) %MON extforcing_qsw_del2          =   0.0000000000000E+00
(PID.TID 0000.0001) %MON extforcing_empmr_max         =   0.0000000000000E+00
(PID.TID 0000.0001) %MON extforcing_empmr_min         =   0.0000000000000E+00
(PID.TID 0000.0001) %MON extforcing_empmr_mean        =   0.0000000000000E+00
(PID.TID 0000.0001) %MON extforcing_empmr_sd          =   0.0000000000000E+00
(PID.TID 0000.0001) %MON extforcing_empmr_del2        =   0.0000000000000E+00
(PID.TID 0000.0001) %MON extforcing_fu_max            =   0.0000000000000E+00
(PID.TID 0000.0001) %MON extforcing_fu_min            =   0.0000000000000E+00
(PID.TID 0000.0001) %MON extforcing_fu_mean           =   0.0000000000000E+00
(PID.TID 0000.0001) %MON extforcing_fu_sd             =   0.0000000000000E+00
(PID.TID 0000.0001) %MON extforcing_fu_del2           =   0.0000000000000E+00
(PID.TID 0000.0001) %MON extforcing_fv_max            =   0.0000000000000E+00
(PID.TID 0000.0001) %MON extforcing_fv_min            =   0.0000000000000E+00
(PID.TID 0000.0001) %MON extforcing_fv_mean           =   0.0000000000000E+00
(PID.TID 0000.0001) %MON extforcing_fv_sd             =   0.0000000000000E+00
(PID.TID 0000.0001) %MON extforcing_fv_del2           =   0.0000000000000E+00
(PID.TID 0000.0001) %MON advcfl_uvel_max              =   7.4065904237794E-05
(PID.TID 0000.0001) %MON advcfl_vvel_max              =   2.7616958479546E-04
(PID.TID 0000.0001) %MON advcfl_wvel_max              =   1.0471138287909E-03
(PID.TID 0000.0001) %MON advcfl_W_hf_max              =   1.0471138287909E-03
(PID.TID 0000.0001) %MON pe_b_mean                    =   3.4413224607669E-13
(PID.TID 0000.0001) %MON ke_max                       =   2.3492679007091E-10
(PID.TID 0000.0001) %MON ke_mean                      =   2.5916726643905E-12
(PID.TID 0000.0001) %MON ke_vol                       =   3.8082386146814E-02
(PID.TID 0000.0001) %MON vort_r_min                   =  -2.8302315441888E-04
(PID.TID 0000.0001) %MON vort_r_max                   =   2.8423384344198E-04
(PID.TID 0000.0001) %MON vort_a_mean                  =   5.0000000000203E-01
(PID.TID 0000.0001) %MON vort_a_sd                    =   1.5258214251022E-05
(PID.TID 0000.0001) %MON vort_p_mean                  =   5.1396648044901E-01
(PID.TID 0000.0001) %MON vort_p_sd                    =   1.4406477493306E-01
(PID.TID 0000.0001) %MON surfExpan_theta_mean         =   0.0000000000000E+00
(PID.TID 0000.0001) %MON surfExpan_salt_mean          =   0.0000000000000E+00
(PID.TID 0000.0001) // =======================================================
(PID.TID 0000.0001) // End MONITOR dynamic field statistics
(PID.TID 0000.0001) // =======================================================
 cg2d: Sum(rhs),rhsMax =  -1.24622534514174E-14  1.73680202186777E-06
(PID.TID 0000.0001)                    cg2d_init_res =    1.41549307324988E+00
(PID.TID 0000.0001)                       cg2d_iters =    40
(PID.TID 0000.0001)                         cg2d_res =    7.99262581095474E-08
 cg3d: Sum(rhs),rhsMax =  -2.44405190530372E-14  6.08531377447660E-07
(PID.TID 0000.0001)                    cg3d_init_res =    4.57158236641481E+00
(PID.TID 0000.0001)                       cg3d_iters =    10
(PID.TID 0000.0001)                         cg3d_res =    4.71529058623281E-01
(PID.TID 0000.0001) // =======================================================
(PID.TID 0000.0001) // Begin MONITOR dynamic field statistics
(PID.TID 0000.0001) // =======================================================
(PID.TID 0000.0001) %MON time_tsnumber                =                    10
(PID.TID 0000.0001) %MON time_secondsf                =   1.0000000000000E+00
(PID.TID 0000.0001) %MON dynstat_eta_max              =   4.8941614303081E-08
(PID.TID 0000.0001) %MON dynstat_eta_min              =  -7.3794437001702E-07
(PID.TID 0000.0001) %MON dynstat_eta_mean             =   2.6183537844599E-08
(PID.TID 0000.0001) %MON dynstat_eta_sd               =   1.0933361711791E-07
(PID.TID 0000.0001) %MON dynstat_eta_del2             =   2.0430706088671E-08
(PID.TID 0000.0001) %MON dynstat_uvel_max             =   4.7568018052082E-06
(PID.TID 0000.0001) %MON dynstat_uvel_min             =  -4.7901278554453E-06
(PID.TID 0000.0001) %MON dynstat_uvel_mean            =   1.7196707585765E-12
(PID.TID 0000.0001) %MON dynstat_uvel_sd              =   4.6027322216431E-07
(PID.TID 0000.0001) %MON dynstat_uvel_del2            =   8.7119056602626E-08
(PID.TID 0000.0001) %MON dynstat_vvel_max             =   3.3475889792031E-05
(PID.TID 0000.0001) %MON dynstat_vvel_min             =  -3.3847942583757E-05
(PID.TID 0000.0001) %MON dynstat_vvel_mean            =  -5.4597539812067E-19
(PID.TID 0000.0001) %MON dynstat_vvel_sd              =   2.7989556404590E-06
(PID.TID 0000.0001) %MON dynstat_vvel_del2            =   1.4110199397685E-07
(PID.TID 0000.0001) %MON dynstat_wvel_max             =   1.3315883898871E-05
(PID.TID 0000.0001) %MON dynstat_wvel_min             =  -6.1621604587716E-05
(PID.TID 0000.0001) %MON dynstat_wvel_mean            =   2.5727976546528E-23
(PID.TID 0000.0001) %MON dynstat_wvel_sd              =   6.5677760940346E-06
(PID.TID 0000.0001) %MON dynstat_wvel_del2            =   2.2583547561593E-06
(PID.TID 0000.0001) %MON dynstat_theta_max            =   2.0000974110405E+01
(PID.TID 0000.0001) %MON dynstat_theta_min            =   1.9944494552315E+01
(PID.TID 0000.0001) %MON dynstat_theta_mean           =   1.9999359248322E+01
(PID.TID 0000.0001) %MON dynstat_theta_sd             =   7.8491081215000E-03
(PID.TID 0000.0001) %MON dynstat_theta_del2           =   1.4558840142111E-03
(PID.TID 0000.0001) %MON dynstat_salt_max             =   3.5000000000000E+01
(PID.TID 0000.0001) %MON dynstat_salt_min             =   3.5000000000000E+01
(PID.TID 0000.0001) %MON dynstat_salt_mean            =   3.5000000000001E+01
(PID.TID 0000.0001) %MON dynstat_salt_sd              =   7.5317529990572E-13
(PID.TID 0000.0001) %MON dynstat_salt_del2            =   0.0000000000000E+00
(PID.TID 0000.0001) %MON extforcing_qnet_max          =   0.0000000000000E+00
(PID.TID 0000.0001) %MON extforcing_qnet_min          =   0.0000000000000E+00
(PID.TID 0000.0001) %MON extforcing_qnet_mean         =   0.0000000000000E+00
(PID.TID 0000.0001) %MON extforcing_qnet_sd           =   0.0000000000000E+00
(PID.TID 0000.0001) %MON extforcing_qnet_del2         =   0.0000000000000E+00
(PID.TID 0000.0001) %MON extforcing_qsw_max           =   0.0000000000000E+00
(PID.TID 0000.0001) %MON extforcing_qsw_min           =   0.0000000000000E+00
(PID.TID 0000.0001) %MON extforcing_qsw_mean          =   0.0000000000000E+00
(PID.TID 0000.0001) %MON extforcing_qsw_sd            =   0.0000000000000E+00
(PID.TID 0000.0001) %MON extforcing_qsw_del2          =   0.0000000000000E+00
(PID.TID 0000.0001) %MON extforcing_empmr_max         =   0.0000000000000E+00
(PID.TID 0000.0001) %MON extforcing_empmr_min         =   0.0000000000000E+00
(PID.TID 0000.0001) %MON extforcing_empmr_mean        =   0.0000000000000E+00
(PID.TID 0000.0001) %MON extforcing_empmr_sd          =   0.0000000000000E+00
(PID.TID 0000.0001) %MON extforcing_empmr_del2        =   0.0000000000000E+00
(PID.TID 0000.0001) %MON extforcing_fu_max            =   0.0000000000000E+00
(PID.TID 0000.0001) %MON extforcing_fu_min            =   0.0000000000000E+00
(PID.TID 0000.0001) %MON extforcing_fu_mean           =   0.0000000000000E+00
(PID.TID 0000.0001) %MON extforcing_fu_sd             =   0.0000000000000E+00
(PID.TID 0000.0001) %MON extforcing_fu_del2           =   0.0000000000000E+00
(PID.TID 0000.0001) %MON extforcing_fv_max            =   0.0000000000000E+00
(PID.TID 0000.0001) %MON extforcing_fv_min            =   0.0000000000000E+00
(PID.TID 0000.0001) %MON extforcing_fv_mean           =   0.0000000000000E+00
(PID.TID 0000.0001) %MON extforcing_fv_sd             =   0.0000000000000E+00
(PID.TID 0000.0001) %MON extforcing_fv_del2           =   0.0000000000000E+00
(PID.TID 0000.0001) %MON advcfl_uvel_max              =   9.6299687524584E-05
(PID.TID 0000.0001) %MON advcfl_vvel_max              =   3.3847942583757E-04
(PID.TID 0000.0001) %MON advcfl_wvel_max              =   1.2324320917543E-03
(PID.TID 0000.0001) %MON advcfl_W_hf_max              =   1.2324320917543E-03
(PID.TID 0000.0001) %MON pe_b_mean                    =   4.2756098461759E-13
(PID.TID 0000.0001) %MON ke_max                       =   3.5461317875352E-10
(PID.TID 0000.0001) %MON ke_mean                      =   3.8449531336681E-12
(PID.TID 0000.0001) %MON ke_vol                       =   3.8082386146814E-02
(PID.TID 0000.0001) %MON vort_r_min                   =  -3.6616793687570E-04
(PID.TID 0000.0001) %MON vort_r_max                   =   3.7206914901397E-04
(PID.TID 0000.0001) %MON vort_a_mean                  =   5.0000000000203E-01
(PID.TID 0000.0001) %MON vort_a_sd                    =   2.0648142579999E-05
(PID.TID 0000.0001) %MON vort_p_mean                  =   5.1396648044901E-01
(PID.TID 0000.0001) %MON vort_p_sd                    =   1.4406477886760E-01
(PID.TID 0000.0001) %MON surfExpan_theta_mean         =   0.0000000000000E+00
(PID.TID 0000.0001) %MON surfExpan_salt_mean          =   0.0000000000000E+00
(PID.TID 0000.0001) // =======================================================
(PID.TID 0000.0001) // End MONITOR dynamic field statistics
(PID.TID 0000.0001) // =======================================================
 cg2d: Sum(rhs),rhsMax =   1.94566585065559E-14  1.88890964616301E-06
(PID.TID 0000.0001)                    cg2d_init_res =    1.29303407005993E+00
(PID.TID 0000.0001)                       cg2d_iters =    39
(PID.TID 0000.0001)                         cg2d_res =    9.14185228411611E-08
 cg3d: Sum(rhs),rhsMax =   2.66037192275803E-14  6.61514174977664E-07
(PID.TID 0000.0001)                    cg3d_init_res =    4.17303275369179E+00
(PID.TID 0000.0001)                       cg3d_iters =    10
(PID.TID 0000.0001)                         cg3d_res =    4.68318913443199E-01
(PID.TID 0000.0001) // =======================================================
(PID.TID 0000.0001) // Begin MONITOR dynamic field statistics
(PID.TID 0000.0001) // =======================================================
(PID.TID 0000.0001) %MON time_tsnumber                =                    11
(PID.TID 0000.0001) %MON time_secondsf                =   1.1000000000000E+00
(PID.TID 0000.0001) %MON dynstat_eta_max              =   5.3299610147038E-08
(PID.TID 0000.0001) %MON dynstat_eta_min              =  -8.1295322212385E-07
(PID.TID 0000.0001) %MON dynstat_eta_mean             =   2.8901993923798E-08
(PID.TID 0000.0001) %MON dynstat_eta_sd               =   1.2054083610349E-07
(PID.TID 0000.0001) %MON dynstat_eta_del2             =   2.2139102213304E-08
(PID.TID 0000.0001) %MON dynstat_uvel_max             =   6.2578084175948E-06
(PID.TID 0000.0001) %MON dynstat_uvel_min             =  -6.2793395644598E-06
(PID.TID 0000.0001) %MON dynstat_uvel_mean            =   3.0240348890966E-12
(PID.TID 0000.0001) %MON dynstat_uvel_sd              =   6.0093094132340E-07
(PID.TID 0000.0001) %MON dynstat_uvel_del2            =   9.9529090897342E-08
(PID.TID 0000.0001) %MON dynstat_vvel_max             =   4.0109113227793E-05
(PID.TID 0000.0001) %MON dynstat_vvel_min             =  -4.0600377437577E-05
(PID.TID 0000.0001) %MON dynstat_vvel_mean            =   1.2274061936859E-17
(PID.TID 0000.0001) %MON dynstat_vvel_sd              =   3.3369528760362E-06
(PID.TID 0000.0001) %MON dynstat_vvel_del2            =   1.6284999059692E-07
(PID.TID 0000.0001) %MON dynstat_wvel_max             =   1.5449792927685E-05
(PID.TID 0000.0001) %MON dynstat_wvel_min             =  -7.3227912935095E-05
(PID.TID 0000.0001) %MON dynstat_wvel_mean            =   6.2679567022750E-23
(PID.TID 0000.0001) %MON dynstat_wvel_sd              =   7.8543965734259E-06
(PID.TID 0000.0001) %MON dynstat_wvel_del2            =   2.6225908234256E-06
(PID.TID 0000.0001) %MON dynstat_theta_max            =   2.0000972712851E+01
(PID.TID 0000.0001) %MON dynstat_theta_min            =   1.9939013147895E+01
(PID.TID 0000.0001) %MON dynstat_theta_mean           =   1.9999244740012E+01
(PID.TID 0000.0001) %MON dynstat_theta_sd             =   8.6213920422842E-03
(PID.TID 0000.0001) %MON dynstat_theta_del2           =   1.5734960516781E-03
(PID.TID 0000.0001) %MON dynstat_salt_max             =   3.5000000000000E+01
(PID.TID 0000.0001) %MON dynstat_salt_min             =   3.5000000000000E+01
(PID.TID 0000.0001) %MON dynstat_salt_mean            =   3.5000000000001E+01
(PID.TID 0000.0001) %MON dynstat_salt_sd              =   7.5317529990572E-13
(PID.TID 0000.0001) %MON dynstat_salt_del2            =   0.0000000000000E+00
(PID.TID 0000.0001) %MON extforcing_qnet_max          =   0.0000000000000E+00
(PID.TID 0000.0001) %MON extforcing_qnet_min          =   0.0000000000000E+00
(PID.TID 0000.0001) %MON extforcing_qnet_mean         =   0.0000000000000E+00
(PID.TID 0000.0001) %MON extforcing_qnet_sd           =   0.0000000000000E+00
(PID.TID 0000.0001) %MON extforcing_qnet_del2         =   0.0000000000000E+00
(PID.TID 0000.0001) %MON extforcing_qsw_max           =   0.0000000000000E+00
(PID.TID 0000.0001) %MON extforcing_qsw_min           =   0.0000000000000E+00
(PID.TID 0000.0001) %MON extforcing_qsw_mean          =   0.0000000000000E+00
(PID.TID 0000.0001) %MON extforcing_qsw_sd            =   0.0000000000000E+00
(PID.TID 0000.0001) %MON extforcing_qsw_del2          =   0.0000000000000E+00
(PID.TID 0000.0001) %MON extforcing_empmr_max         =   0.0000000000000E+00
(PID.TID 0000.0001) %MON extforcing_empmr_min         =   0.0000000000000E+00
(PID.TID 0000.0001) %MON extforcing_empmr_mean        =   0.0000000000000E+00
(PID.TID 0000.0001) %MON extforcing_empmr_sd          =   0.0000000000000E+00
(PID.TID 0000.0001) %MON extforcing_empmr_del2        =   0.0000000000000E+00
(PID.TID 0000.0001) %MON extforcing_fu_max            =   0.0000000000000E+00
(PID.TID 0000.0001) %MON extforcing_fu_min            =   0.0000000000000E+00
(PID.TID 0000.0001) %MON extforcing_fu_mean           =   0.0000000000000E+00
(PID.TID 0000.0001) %MON extforcing_fu_sd             =   0.0000000000000E+00
(PID.TID 0000.0001) %MON extforcing_fu_del2           =   0.0000000000000E+00
(PID.TID 0000.0001) %MON extforcing_fv_max            =   0.0000000000000E+00
(PID.TID 0000.0001) %MON extforcing_fv_min            =   0.0000000000000E+00
(PID.TID 0000.0001) %MON extforcing_fv_mean           =   0.0000000000000E+00
(PID.TID 0000.0001) %MON extforcing_fv_sd             =   0.0000000000000E+00
(PID.TID 0000.0001) %MON extforcing_fv_del2           =   0.0000000000000E+00
(PID.TID 0000.0001) %MON advcfl_uvel_max              =   1.2623847549932E-04
(PID.TID 0000.0001) %MON advcfl_vvel_max              =   4.0600377437577E-04
(PID.TID 0000.0001) %MON advcfl_wvel_max              =   1.4645582587019E-03
(PID.TID 0000.0001) %MON advcfl_W_hf_max              =   1.4645582587019E-03
(PID.TID 0000.0001) %MON pe_b_mean                    =   5.1977501625161E-13
(PID.TID 0000.0001) %MON ke_max                       =   5.1461819976532E-10
(PID.TID 0000.0001) %MON ke_mean                      =   5.4951122807296E-12
(PID.TID 0000.0001) %MON ke_vol                       =   3.8082386146814E-02
(PID.TID 0000.0001) %MON vort_r_min                   =  -4.6921213851092E-04
(PID.TID 0000.0001) %MON vort_r_max                   =   4.7256923022270E-04
(PID.TID 0000.0001) %MON vort_a_mean                  =   5.0000000000202E-01
(PID.TID 0000.0001) %MON vort_a_sd                    =   2.7190532279249E-05
(PID.TID 0000.0001) %MON vort_p_mean                  =   5.1396648044901E-01
(PID.TID 0000.0001) %MON vort_p_sd                    =   1.4406478533409E-01
(PID.TID 0000.0001) %MON surfExpan_theta_mean         =   0.0000000000000E+00
(PID.TID 0000.0001) %MON surfExpan_salt_mean          =   0.0000000000000E+00
(PID.TID 0000.0001) // =======================================================
(PID.TID 0000.0001) // End MONITOR dynamic field statistics
(PID.TID 0000.0001) // =======================================================
 cg2d: Sum(rhs),rhsMax =  -6.53643805748061E-15  2.04139867153220E-06
(PID.TID 0000.0001)                    cg2d_init_res =    1.18867400061591E+00
(PID.TID 0000.0001)                       cg2d_iters =    39
(PID.TID 0000.0001)                         cg2d_res =    8.35830641038108E-08
 cg3d: Sum(rhs),rhsMax =   8.81066053448620E-15  7.14692498149663E-07
(PID.TID 0000.0001)                    cg3d_init_res =    3.83861396618818E+00
(PID.TID 0000.0001)                       cg3d_iters =    10
(PID.TID 0000.0001)                         cg3d_res =    4.01420532673343E-01
(PID.TID 0000.0001) // =======================================================
(PID.TID 0000.0001) // Begin MONITOR dynamic field statistics
(PID.TID 0000.0001) // =======================================================
(PID.TID 0000.0001) %MON time_tsnumber                =                    12
(PID.TID 0000.0001) %MON time_secondsf                =   1.2000000000000E+00
(PID.TID 0000.0001) %MON dynstat_eta_max              =   5.7654623866940E-08
(PID.TID 0000.0001) %MON dynstat_eta_min              =  -8.8773390777723E-07
(PID.TID 0000.0001) %MON dynstat_eta_mean             =   3.1618192119573E-08
(PID.TID 0000.0001) %MON dynstat_eta_sd               =   1.3171617659166E-07
(PID.TID 0000.0001) %MON dynstat_eta_del2             =   2.3839494218071E-08
(PID.TID 0000.0001) %MON dynstat_uvel_max             =   7.8195769296857E-06
(PID.TID 0000.0001) %MON dynstat_uvel_min             =  -7.8735239194130E-06
(PID.TID 0000.0001) %MON dynstat_uvel_mean            =   5.0434077164320E-12
(PID.TID 0000.0001) %MON dynstat_uvel_sd              =   7.6681466471796E-07
(PID.TID 0000.0001) %MON dynstat_uvel_del2            =   1.0755042269438E-07
(PID.TID 0000.0001) %MON dynstat_vvel_max             =   4.7354348216672E-05
(PID.TID 0000.0001) %MON dynstat_vvel_min             =  -4.7963581861874E-05
(PID.TID 0000.0001) %MON dynstat_vvel_mean            =  -6.2270590762966E-17
(PID.TID 0000.0001) %MON dynstat_vvel_sd              =   3.9198443074506E-06
(PID.TID 0000.0001) %MON dynstat_vvel_del2            =   1.8178595345777E-07
(PID.TID 0000.0001) %MON dynstat_wvel_max             =   1.6565827220956E-05
(PID.TID 0000.0001) %MON dynstat_wvel_min             =  -8.4021082270922E-05
(PID.TID 0000.0001) %MON dynstat_wvel_mean            =   5.0419927191854E-23
(PID.TID 0000.0001) %MON dynstat_wvel_sd              =   9.2487300386587E-06
(PID.TID 0000.0001) %MON dynstat_wvel_del2            =   2.9238232256966E-06
(PID.TID 0000.0001) %MON dynstat_theta_max            =   2.0000971314327E+01
(PID.TID 0000.0001) %MON dynstat_theta_min            =   1.9933543835926E+01
(PID.TID 0000.0001) %MON dynstat_theta_mean           =   1.9999130263096E+01
(PID.TID 0000.0001) %MON dynstat_theta_sd             =   9.3915445812919E-03
(PID.TID 0000.0001) %MON dynstat_theta_del2           =   1.6905864855475E-03
(PID.TID 0000.0001) %MON dynstat_salt_max             =   3.5000000000000E+01
(PID.TID 0000.0001) %MON dynstat_salt_min             =   3.5000000000000E+01
(PID.TID 0000.0001) %MON dynstat_salt_mean            =   3.5000000000001E+01
(PID.TID 0000.0001) %MON dynstat_salt_sd              =   7.5317529990572E-13
(PID.TID 0000.0001) %MON dynstat_salt_del2            =   0.0000000000000E+00
(PID.TID 0000.0001) %MON extforcing_qnet_max          =   0.0000000000000E+00
(PID.TID 0000.0001) %MON extforcing_qnet_min          =   0.0000000000000E+00
(PID.TID 0000.0001) %MON extforcing_qnet_mean         =   0.0000000000000E+00
(PID.TID 0000.0001) %MON extforcing_qnet_sd           =   0.0000000000000E+00
(PID.TID 0000.0001) %MON extforcing_qnet_del2         =   0.0000000000000E+00
(PID.TID 0000.0001) %MON extforcing_qsw_max           =   0.0000000000000E+00
(PID.TID 0000.0001) %MON extforcing_qsw_min           =   0.0000000000000E+00
(PID.TID 0000.0001) %MON extforcing_qsw_mean          =   0.0000000000000E+00
(PID.TID 0000.0001) %MON extforcing_qsw_sd            =   0.0000000000000E+00
(PID.TID 0000.0001) %MON extforcing_qsw_del2          =   0.0000000000000E+00
(PID.TID 0000.0001) %MON extforcing_empmr_max         =   0.0000000000000E+00
(PID.TID 0000.0001) %MON extforcing_empmr_min         =   0.0000000000000E+00
(PID.TID 0000.0001) %MON extforcing_empmr_mean        =   0.0000000000000E+00
(PID.TID 0000.0001) %MON extforcing_empmr_sd          =   0.0000000000000E+00
(PID.TID 0000.0001) %MON extforcing_empmr_del2        =   0.0000000000000E+00
(PID.TID 0000.0001) %MON extforcing_fu_max            =   0.0000000000000E+00
(PID.TID 0000.0001) %MON extforcing_fu_min            =   0.0000000000000E+00
(PID.TID 0000.0001) %MON extforcing_fu_mean           =   0.0000000000000E+00
(PID.TID 0000.0001) %MON extforcing_fu_sd             =   0.0000000000000E+00
(PID.TID 0000.0001) %MON extforcing_fu_del2           =   0.0000000000000E+00
(PID.TID 0000.0001) %MON extforcing_fv_max            =   0.0000000000000E+00
(PID.TID 0000.0001) %MON extforcing_fv_min            =   0.0000000000000E+00
(PID.TID 0000.0001) %MON extforcing_fv_mean           =   0.0000000000000E+00
(PID.TID 0000.0001) %MON extforcing_fv_sd             =   0.0000000000000E+00
(PID.TID 0000.0001) %MON extforcing_fv_del2           =   0.0000000000000E+00
(PID.TID 0000.0001) %MON advcfl_uvel_max              =   1.5828761069392E-04
(PID.TID 0000.0001) %MON advcfl_vvel_max              =   4.7963581861874E-04
(PID.TID 0000.0001) %MON advcfl_wvel_max              =   1.6804216454184E-03
(PID.TID 0000.0001) %MON advcfl_W_hf_max              =   1.6804216454184E-03
(PID.TID 0000.0001) %MON pe_b_mean                    =   6.2069768569339E-13
(PID.TID 0000.0001) %MON ke_max                       =   7.2263129942188E-10
(PID.TID 0000.0001) %MON ke_mean                      =   7.6273834397473E-12
(PID.TID 0000.0001) %MON ke_vol                       =   3.8082386146814E-02
(PID.TID 0000.0001) %MON vort_r_min                   =  -5.8647595244840E-04
(PID.TID 0000.0001) %MON vort_r_max                   =   5.9584573729987E-04
(PID.TID 0000.0001) %MON vort_a_mean                  =   5.0000000000202E-01
(PID.TID 0000.0001) %MON vort_a_sd                    =   3.4949843698571E-05
(PID.TID 0000.0001) %MON vort_p_mean                  =   5.1396648044901E-01
(PID.TID 0000.0001) %MON vort_p_sd                    =   1.4406479543776E-01
(PID.TID 0000.0001) %MON surfExpan_theta_mean         =   0.0000000000000E+00
(PID.TID 0000.0001) %MON surfExpan_salt_mean          =   0.0000000000000E+00
(PID.TID 0000.0001) // =======================================================
(PID.TID 0000.0001) // End MONITOR dynamic field statistics
(PID.TID 0000.0001) // =======================================================
 cg2d: Sum(rhs),rhsMax =  -8.54871728961371E-15  2.19372466698216E-06
(PID.TID 0000.0001)                    cg2d_init_res =    1.09896598367303E+00
(PID.TID 0000.0001)                       cg2d_iters =    39
(PID.TID 0000.0001)                         cg2d_res =    7.83399730491397E-08
 cg3d: Sum(rhs),rhsMax =  -3.80771802976909E-14  7.67553389106257E-07
(PID.TID 0000.0001)                    cg3d_init_res =    3.54768127023008E+00
(PID.TID 0000.0001)                       cg3d_iters =    10
(PID.TID 0000.0001)                         cg3d_res =    3.93795391392445E-01
(PID.TID 0000.0001) // =======================================================
(PID.TID 0000.0001) // Begin MONITOR dynamic field statistics
(PID.TID 0000.0001) // =======================================================
(PID.TID 0000.0001) %MON time_tsnumber                =                    13
(PID.TID 0000.0001) %MON time_secondsf                =   1.3000000000000E+00
(PID.TID 0000.0001) %MON dynstat_eta_max              =   6.2006540059142E-08
(PID.TID 0000.0001) %MON dynstat_eta_min              =  -9.6228578184434E-07
(PID.TID 0000.0001) %MON dynstat_eta_mean             =   3.4332062735861E-08
(PID.TID 0000.0001) %MON dynstat_eta_sd               =   1.4285935021145E-07
(PID.TID 0000.0001) %MON dynstat_eta_del2             =   2.5533700163980E-08
(PID.TID 0000.0001) %MON dynstat_uvel_max             =   9.8294798531626E-06
(PID.TID 0000.0001) %MON dynstat_uvel_min             =  -9.8716005735338E-06
(PID.TID 0000.0001) %MON dynstat_uvel_mean            =   8.0544244567181E-12
(PID.TID 0000.0001) %MON dynstat_uvel_sd              =   9.6079102949799E-07
(PID.TID 0000.0001) %MON dynstat_uvel_del2            =   1.2082954233592E-07
(PID.TID 0000.0001) %MON dynstat_vvel_max             =   5.5058832822669E-05
(PID.TID 0000.0001) %MON dynstat_vvel_min             =  -5.5821021690972E-05
(PID.TID 0000.0001) %MON dynstat_vvel_mean            =   6.9695268976996E-17
(PID.TID 0000.0001) %MON dynstat_vvel_sd              =   4.5442081540121E-06
(PID.TID 0000.0001) %MON dynstat_vvel_del2            =   2.0474640130996E-07
(PID.TID 0000.0001) %MON dynstat_wvel_max             =   1.8884697323932E-05
(PID.TID 0000.0001) %MON dynstat_wvel_min             =  -9.7077076539200E-05
(PID.TID 0000.0001) %MON dynstat_wvel_mean            =   3.1080777036075E-23
(PID.TID 0000.0001) %MON dynstat_wvel_sd              =   1.0756506487614E-05
(PID.TID 0000.0001) %MON dynstat_wvel_del2            =   3.3076397805172E-06
(PID.TID 0000.0001) %MON dynstat_theta_max            =   2.0000969915030E+01
(PID.TID 0000.0001) %MON dynstat_theta_min            =   1.9928086013467E+01
(PID.TID 0000.0001) %MON dynstat_theta_mean           =   1.9999015817483E+01
(PID.TID 0000.0001) %MON dynstat_theta_sd             =   1.0159561795834E-02
(PID.TID 0000.0001) %MON dynstat_theta_del2           =   1.8073212292866E-03
(PID.TID 0000.0001) %MON dynstat_salt_max             =   3.5000000000000E+01
(PID.TID 0000.0001) %MON dynstat_salt_min             =   3.5000000000000E+01
(PID.TID 0000.0001) %MON dynstat_salt_mean            =   3.5000000000001E+01
(PID.TID 0000.0001) %MON dynstat_salt_sd              =   7.5317529990572E-13
(PID.TID 0000.0001) %MON dynstat_salt_del2            =   0.0000000000000E+00
(PID.TID 0000.0001) %MON extforcing_qnet_max          =   0.0000000000000E+00
(PID.TID 0000.0001) %MON extforcing_qnet_min          =   0.0000000000000E+00
(PID.TID 0000.0001) %MON extforcing_qnet_mean         =   0.0000000000000E+00
(PID.TID 0000.0001) %MON extforcing_qnet_sd           =   0.0000000000000E+00
(PID.TID 0000.0001) %MON extforcing_qnet_del2         =   0.0000000000000E+00
(PID.TID 0000.0001) %MON extforcing_qsw_max           =   0.0000000000000E+00
(PID.TID 0000.0001) %MON extforcing_qsw_min           =   0.0000000000000E+00
(PID.TID 0000.0001) %MON extforcing_qsw_mean          =   0.0000000000000E+00
(PID.TID 0000.0001) %MON extforcing_qsw_sd            =   0.0000000000000E+00
(PID.TID 0000.0001) %MON extforcing_qsw_del2          =   0.0000000000000E+00
(PID.TID 0000.0001) %MON extforcing_empmr_max         =   0.0000000000000E+00
(PID.TID 0000.0001) %MON extforcing_empmr_min         =   0.0000000000000E+00
(PID.TID 0000.0001) %MON extforcing_empmr_mean        =   0.0000000000000E+00
(PID.TID 0000.0001) %MON extforcing_empmr_sd          =   0.0000000000000E+00
(PID.TID 0000.0001) %MON extforcing_empmr_del2        =   0.0000000000000E+00
(PID.TID 0000.0001) %MON extforcing_fu_max            =   0.0000000000000E+00
(PID.TID 0000.0001) %MON extforcing_fu_min            =   0.0000000000000E+00
(PID.TID 0000.0001) %MON extforcing_fu_mean           =   0.0000000000000E+00
(PID.TID 0000.0001) %MON extforcing_fu_sd             =   0.0000000000000E+00
(PID.TID 0000.0001) %MON extforcing_fu_del2           =   0.0000000000000E+00
(PID.TID 0000.0001) %MON extforcing_fv_max            =   0.0000000000000E+00
(PID.TID 0000.0001) %MON extforcing_fv_min            =   0.0000000000000E+00
(PID.TID 0000.0001) %MON extforcing_fv_mean           =   0.0000000000000E+00
(PID.TID 0000.0001) %MON extforcing_fv_sd             =   0.0000000000000E+00
(PID.TID 0000.0001) %MON extforcing_fv_del2           =   0.0000000000000E+00
(PID.TID 0000.0001) %MON advcfl_uvel_max              =   1.9845650873769E-04
(PID.TID 0000.0001) %MON advcfl_vvel_max              =   5.5821021690972E-04
(PID.TID 0000.0001) %MON advcfl_wvel_max              =   1.9415415307840E-03
(PID.TID 0000.0001) %MON advcfl_W_hf_max              =   1.9415415307840E-03
(PID.TID 0000.0001) %MON pe_b_mean                    =   7.3025249205244E-13
(PID.TID 0000.0001) %MON ke_max                       =   9.8760383853734E-10
(PID.TID 0000.0001) %MON ke_mean                      =   1.0317159307733E-11
(PID.TID 0000.0001) %MON ke_vol                       =   3.8082386146814E-02
(PID.TID 0000.0001) %MON vort_r_min                   =  -7.2457538136913E-04
(PID.TID 0000.0001) %MON vort_r_max                   =   7.3143951950804E-04
(PID.TID 0000.0001) %MON vort_a_mean                  =   5.0000000000202E-01
(PID.TID 0000.0001) %MON vort_a_sd                    =   4.4050113477126E-05
(PID.TID 0000.0001) %MON vort_p_mean                  =   5.1396648044900E-01
(PID.TID 0000.0001) %MON vort_p_sd                    =   1.4406481065438E-01
(PID.TID 0000.0001) %MON surfExpan_theta_mean         =   0.0000000000000E+00
(PID.TID 0000.0001) %MON surfExpan_salt_mean          =   0.0000000000000E+00
(PID.TID 0000.0001) // =======================================================
(PID.TID 0000.0001) // End MONITOR dynamic field statistics
(PID.TID 0000.0001) // =======================================================
 cg2d: Sum(rhs),rhsMax =   1.47104550762833E-15  2.34545752468087E-06
(PID.TID 0000.0001)                    cg2d_init_res =    1.02122422155282E+00
(PID.TID 0000.0001)                       cg2d_iters =    39
(PID.TID 0000.0001)                         cg2d_res =    7.49284871428774E-08
 cg3d: Sum(rhs),rhsMax =  -1.12583553590895E-15  8.20125965404823E-07
(PID.TID 0000.0001)                    cg3d_init_res =    3.29901015443495E+00
(PID.TID 0000.0001)                       cg3d_iters =    10
(PID.TID 0000.0001)                         cg3d_res =    3.48035281427284E-01
(PID.TID 0000.0001) // =======================================================
(PID.TID 0000.0001) // Begin MONITOR dynamic field statistics
(PID.TID 0000.0001) // =======================================================
(PID.TID 0000.0001) %MON time_tsnumber                =                    14
(PID.TID 0000.0001) %MON time_secondsf                =   1.4000000000000E+00
(PID.TID 0000.0001) %MON dynstat_eta_max              =   6.6355218572039E-08
(PID.TID 0000.0001) %MON dynstat_eta_min              =  -1.0366089080526E-06
(PID.TID 0000.0001) %MON dynstat_eta_mean             =   3.7043520769716E-08
(PID.TID 0000.0001) %MON dynstat_eta_sd               =   1.5397013474190E-07
(PID.TID 0000.0001) %MON dynstat_eta_del2             =   2.7222697910784E-08
(PID.TID 0000.0001) %MON dynstat_uvel_max             =   1.1947341632432E-05
(PID.TID 0000.0001) %MON dynstat_uvel_min             =  -1.2028945216873E-05
(PID.TID 0000.0001) %MON dynstat_uvel_mean            =   1.2400967695733E-11
(PID.TID 0000.0001) %MON dynstat_uvel_sd              =   1.1838801425466E-06
(PID.TID 0000.0001) %MON dynstat_uvel_del2            =   1.3051378997381E-07
(PID.TID 0000.0001) %MON dynstat_vvel_max             =   6.3352987287846E-05
(PID.TID 0000.0001) %MON dynstat_vvel_min             =  -6.4264717937986E-05
(PID.TID 0000.0001) %MON dynstat_vvel_mean            =  -1.9208206835173E-17
(PID.TID 0000.0001) %MON dynstat_vvel_sd              =   5.2118260763867E-06
(PID.TID 0000.0001) %MON dynstat_vvel_del2            =   2.2501335029500E-07
(PID.TID 0000.0001) %MON dynstat_wvel_max             =   2.0972661087039E-05
(PID.TID 0000.0001) %MON dynstat_wvel_min             =  -1.0939417325776E-04
(PID.TID 0000.0001) %MON dynstat_wvel_mean            =  -6.2161554072149E-24
(PID.TID 0000.0001) %MON dynstat_wvel_sd              =   1.2371033336027E-05
(PID.TID 0000.0001) %MON dynstat_wvel_del2            =   3.6364733152456E-06
(PID.TID 0000.0001) %MON dynstat_theta_max            =   2.0000968514990E+01
(PID.TID 0000.0001) %MON dynstat_theta_min            =   1.9922638976864E+01
(PID.TID 0000.0001) %MON dynstat_theta_mean           =   1.9998901403084E+01
(PID.TID 0000.0001) %MON dynstat_theta_sd             =   1.0925444840482E-02
(PID.TID 0000.0001) %MON dynstat_theta_del2           =   1.9236640368624E-03
(PID.TID 0000.0001) %MON dynstat_salt_max             =   3.5000000000000E+01
(PID.TID 0000.0001) %MON dynstat_salt_min             =   3.5000000000000E+01
(PID.TID 0000.0001) %MON dynstat_salt_mean            =   3.5000000000001E+01
(PID.TID 0000.0001) %MON dynstat_salt_sd              =   7.5317529990572E-13
(PID.TID 0000.0001) %MON dynstat_salt_del2            =   0.0000000000000E+00
(PID.TID 0000.0001) %MON extforcing_qnet_max          =   0.0000000000000E+00
(PID.TID 0000.0001) %MON extforcing_qnet_min          =   0.0000000000000E+00
(PID.TID 0000.0001) %MON extforcing_qnet_mean         =   0.0000000000000E+00
(PID.TID 0000.0001) %MON extforcing_qnet_sd           =   0.0000000000000E+00
(PID.TID 0000.0001) %MON extforcing_qnet_del2         =   0.0000000000000E+00
(PID.TID 0000.0001) %MON extforcing_qsw_max           =   0.0000000000000E+00
(PID.TID 0000.0001) %MON extforcing_qsw_min           =   0.0000000000000E+00
(PID.TID 0000.0001) %MON extforcing_qsw_mean          =   0.0000000000000E+00
(PID.TID 0000.0001) %MON extforcing_qsw_sd            =   0.0000000000000E+00
(PID.TID 0000.0001) %MON extforcing_qsw_del2          =   0.0000000000000E+00
(PID.TID 0000.0001) %MON extforcing_empmr_max         =   0.0000000000000E+00
(PID.TID 0000.0001) %MON extforcing_empmr_min         =   0.0000000000000E+00
(PID.TID 0000.0001) %MON extforcing_empmr_mean        =   0.0000000000000E+00
(PID.TID 0000.0001) %MON extforcing_empmr_sd          =   0.0000000000000E+00
(PID.TID 0000.0001) %MON extforcing_empmr_del2        =   0.0000000000000E+00
(PID.TID 0000.0001) %MON extforcing_fu_max            =   0.0000000000000E+00
(PID.TID 0000.0001) %MON extforcing_fu_min            =   0.0000000000000E+00
(PID.TID 0000.0001) %MON extforcing_fu_mean           =   0.0000000000000E+00
(PID.TID 0000.0001) %MON extforcing_fu_sd             =   0.0000000000000E+00
(PID.TID 0000.0001) %MON extforcing_fu_del2           =   0.0000000000000E+00
(PID.TID 0000.0001) %MON extforcing_fv_max            =   0.0000000000000E+00
(PID.TID 0000.0001) %MON extforcing_fv_min            =   0.0000000000000E+00
(PID.TID 0000.0001) %MON extforcing_fv_mean           =   0.0000000000000E+00
(PID.TID 0000.0001) %MON extforcing_fv_sd             =   0.0000000000000E+00
(PID.TID 0000.0001) %MON extforcing_fv_del2           =   0.0000000000000E+00
(PID.TID 0000.0001) %MON advcfl_uvel_max              =   2.4182729576172E-04
(PID.TID 0000.0001) %MON advcfl_vvel_max              =   6.4264717937986E-04
(PID.TID 0000.0001) %MON advcfl_wvel_max              =   2.1878834651551E-03
(PID.TID 0000.0001) %MON advcfl_W_hf_max              =   2.1878834651551E-03
(PID.TID 0000.0001) %MON pe_b_mean                    =   8.4836287420041E-13
(PID.TID 0000.0001) %MON ke_max                       =   1.3185254985427E-09
(PID.TID 0000.0001) %MON ke_mean                      =   1.3665007733777E-11
(PID.TID 0000.0001) %MON ke_vol                       =   3.8082386146814E-02
(PID.TID 0000.0001) %MON vort_r_min                   =  -8.8217500822868E-04
(PID.TID 0000.0001) %MON vort_r_max                   =   8.9641169698876E-04
(PID.TID 0000.0001) %MON vort_a_mean                  =   5.0000000000200E-01
(PID.TID 0000.0001) %MON vort_a_sd                    =   5.4561853634562E-05
(PID.TID 0000.0001) %MON vort_p_mean                  =   5.1396648044899E-01
(PID.TID 0000.0001) %MON vort_p_sd                    =   1.4406483279154E-01
(PID.TID 0000.0001) %MON surfExpan_theta_mean         =   0.0000000000000E+00
(PID.TID 0000.0001) %MON surfExpan_salt_mean          =   0.0000000000000E+00
(PID.TID 0000.0001) // =======================================================
(PID.TID 0000.0001) // End MONITOR dynamic field statistics
(PID.TID 0000.0001) // =======================================================
 cg2d: Sum(rhs),rhsMax =   1.46549439250521E-14  2.49657962702554E-06
(PID.TID 0000.0001)                    cg2d_init_res =    9.53217662132732E-01
(PID.TID 0000.0001)                       cg2d_iters =    39
(PID.TID 0000.0001)                         cg2d_res =    7.27575765790657E-08
 cg3d: Sum(rhs),rhsMax =  -8.04235150697608E-14  8.72346602030390E-07
(PID.TID 0000.0001)                    cg3d_init_res =    3.07886954358561E+00
(PID.TID 0000.0001)                       cg3d_iters =    10
(PID.TID 0000.0001)                         cg3d_res =    3.38467727268011E-01
(PID.TID 0000.0001) // =======================================================
(PID.TID 0000.0001) // Begin MONITOR dynamic field statistics
(PID.TID 0000.0001) // =======================================================
(PID.TID 0000.0001) %MON time_tsnumber                =                    15
(PID.TID 0000.0001) %MON time_secondsf                =   1.5000000000000E+00
(PID.TID 0000.0001) %MON dynstat_eta_max              =   7.0700513345255E-08
(PID.TID 0000.0001) %MON dynstat_eta_min              =  -1.1107024367922E-06
(PID.TID 0000.0001) %MON dynstat_eta_mean             =   3.9752484207112E-08
(PID.TID 0000.0001) %MON dynstat_eta_sd               =   1.6504835636583E-07
(PID.TID 0000.0001) %MON dynstat_eta_del2             =   2.8905988344383E-08
(PID.TID 0000.0001) %MON dynstat_uvel_max             =   1.4538759109209E-05
(PID.TID 0000.0001) %MON dynstat_uvel_min             =  -1.4609428724744E-05
(PID.TID 0000.0001) %MON dynstat_uvel_mean            =   1.8509504879296E-11
(PID.TID 0000.0001) %MON dynstat_uvel_sd              =   1.4386501893391E-06
(PID.TID 0000.0001) %MON dynstat_uvel_del2            =   1.4519240884850E-07
(PID.TID 0000.0001) %MON dynstat_vvel_max             =   7.2076153953635E-05
(PID.TID 0000.0001) %MON dynstat_vvel_min             =  -7.3173208990274E-05
(PID.TID 0000.0001) %MON dynstat_vvel_mean            =   4.3876555336548E-17
(PID.TID 0000.0001) %MON dynstat_vvel_sd              =   5.9196115775543E-06
(PID.TID 0000.0001) %MON dynstat_vvel_del2            =   2.4906339878622E-07
(PID.TID 0000.0001) %MON dynstat_wvel_max             =   2.3774967438364E-05
(PID.TID 0000.0001) %MON dynstat_wvel_min             =  -1.2397605187333E-04
(PID.TID 0000.0001) %MON dynstat_wvel_mean            =   1.2259639830896E-22
(PID.TID 0000.0001) %MON dynstat_wvel_sd              =   1.4095813147192E-05
(PID.TID 0000.0001) %MON dynstat_wvel_del2            =   4.0390685460094E-06
(PID.TID 0000.0001) %MON dynstat_theta_max            =   2.0000967114400E+01
(PID.TID 0000.0001) %MON dynstat_theta_min            =   1.9917202059152E+01
(PID.TID 0000.0001) %MON dynstat_theta_mean           =   1.9998787019811E+01
(PID.TID 0000.0001) %MON dynstat_theta_sd             =   1.1689198228438E-02
(PID.TID 0000.0001) %MON dynstat_theta_del2           =   2.0396153896350E-03
(PID.TID 0000.0001) %MON dynstat_salt_max             =   3.5000000000000E+01
(PID.TID 0000.0001) %MON dynstat_salt_min             =   3.5000000000000E+01
(PID.TID 0000.0001) %MON dynstat_salt_mean            =   3.5000000000001E+01
(PID.TID 0000.0001) %MON dynstat_salt_sd              =   7.5317529990572E-13
(PID.TID 0000.0001) %MON dynstat_salt_del2            =   0.0000000000000E+00
(PID.TID 0000.0001) %MON extforcing_qnet_max          =   0.0000000000000E+00
(PID.TID 0000.0001) %MON extforcing_qnet_min          =   0.0000000000000E+00
(PID.TID 0000.0001) %MON extforcing_qnet_mean         =   0.0000000000000E+00
(PID.TID 0000.0001) %MON extforcing_qnet_sd           =   0.0000000000000E+00
(PID.TID 0000.0001) %MON extforcing_qnet_del2         =   0.0000000000000E+00
(PID.TID 0000.0001) %MON extforcing_qsw_max           =   0.0000000000000E+00
(PID.TID 0000.0001) %MON extforcing_qsw_min           =   0.0000000000000E+00
(PID.TID 0000.0001) %MON extforcing_qsw_mean          =   0.0000000000000E+00
(PID.TID 0000.0001) %MON extforcing_qsw_sd            =   0.0000000000000E+00
(PID.TID 0000.0001) %MON extforcing_qsw_del2          =   0.0000000000000E+00
(PID.TID 0000.0001) %MON extforcing_empmr_max         =   0.0000000000000E+00
(PID.TID 0000.0001) %MON extforcing_empmr_min         =   0.0000000000000E+00
(PID.TID 0000.0001) %MON extforcing_empmr_mean        =   0.0000000000000E+00
(PID.TID 0000.0001) %MON extforcing_empmr_sd          =   0.0000000000000E+00
(PID.TID 0000.0001) %MON extforcing_empmr_del2        =   0.0000000000000E+00
(PID.TID 0000.0001) %MON extforcing_fu_max            =   0.0000000000000E+00
(PID.TID 0000.0001) %MON extforcing_fu_min            =   0.0000000000000E+00
(PID.TID 0000.0001) %MON extforcing_fu_mean           =   0.0000000000000E+00
(PID.TID 0000.0001) %MON extforcing_fu_sd             =   0.0000000000000E+00
(PID.TID 0000.0001) %MON extforcing_fu_del2           =   0.0000000000000E+00
(PID.TID 0000.0001) %MON extforcing_fv_max            =   0.0000000000000E+00
(PID.TID 0000.0001) %MON extforcing_fv_min            =   0.0000000000000E+00
(PID.TID 0000.0001) %MON extforcing_fv_mean           =   0.0000000000000E+00
(PID.TID 0000.0001) %MON extforcing_fv_sd             =   0.0000000000000E+00
(PID.TID 0000.0001) %MON extforcing_fv_del2           =   0.0000000000000E+00
(PID.TID 0000.0001) %MON advcfl_uvel_max              =   2.9370477439474E-04
(PID.TID 0000.0001) %MON advcfl_vvel_max              =   7.3173208990274E-04
(PID.TID 0000.0001) %MON advcfl_wvel_max              =   2.4795210374666E-03
(PID.TID 0000.0001) %MON advcfl_W_hf_max              =   2.4795210374666E-03
(PID.TID 0000.0001) %MON pe_b_mean                    =   9.7495230209814E-13
(PID.TID 0000.0001) %MON ke_max                       =   1.7254863373245E-09
(PID.TID 0000.0001) %MON ke_mean                      =   1.7759353224984E-11
(PID.TID 0000.0001) %MON ke_vol                       =   3.8082386146814E-02
(PID.TID 0000.0001) %MON vort_r_min                   =  -1.0603371442351E-03
(PID.TID 0000.0001) %MON vort_r_max                   =   1.0723845306723E-03
(PID.TID 0000.0001) %MON vort_a_mean                  =   5.0000000000199E-01
(PID.TID 0000.0001) %MON vort_a_sd                    =   6.6597560109885E-05
(PID.TID 0000.0001) %MON vort_p_mean                  =   5.1396648044898E-01
(PID.TID 0000.0001) %MON vort_p_sd                    =   1.4406486414434E-01
(PID.TID 0000.0001) %MON surfExpan_theta_mean         =   0.0000000000000E+00
(PID.TID 0000.0001) %MON surfExpan_salt_mean          =   0.0000000000000E+00
(PID.TID 0000.0001) // =======================================================
(PID.TID 0000.0001) // End MONITOR dynamic field statistics
(PID.TID 0000.0001) // =======================================================
 cg2d: Sum(rhs),rhsMax =  -1.15046860926782E-14  2.64710034838058E-06
(PID.TID 0000.0001)                    cg2d_init_res =    8.93228612081985E-01
(PID.TID 0000.0001)                       cg2d_iters =    38
(PID.TID 0000.0001)                         cg2d_res =    9.80826376283230E-08
 cg3d: Sum(rhs),rhsMax =  -2.33892766265953E-14  9.24256402519914E-07
(PID.TID 0000.0001)                    cg3d_init_res =    2.88690643220973E+00
(PID.TID 0000.0001)                       cg3d_iters =    10
(PID.TID 0000.0001)                         cg3d_res =    3.05518638989730E-01
(PID.TID 0000.0001) // =======================================================
(PID.TID 0000.0001) // Begin MONITOR dynamic field statistics
(PID.TID 0000.0001) // =======================================================
(PID.TID 0000.0001) %MON time_tsnumber                =                    16
(PID.TID 0000.0001) %MON time_secondsf                =   1.6000000000000E+00
(PID.TID 0000.0001) %MON dynstat_eta_max              =   7.5042265502426E-08
(PID.TID 0000.0001) %MON dynstat_eta_min              =  -1.1845662610027E-06
(PID.TID 0000.0001) %MON dynstat_eta_mean             =   4.2458854904891E-08
(PID.TID 0000.0001) %MON dynstat_eta_sd               =   1.7609385825944E-07
(PID.TID 0000.0001) %MON dynstat_eta_del2             =   3.0582952079316E-08
(PID.TID 0000.0001) %MON dynstat_uvel_max             =   1.7283061915467E-05
(PID.TID 0000.0001) %MON dynstat_uvel_min             =  -1.7399302300184E-05
(PID.TID 0000.0001) %MON dynstat_uvel_mean            =   2.6892744483438E-11
(PID.TID 0000.0001) %MON dynstat_uvel_sd              =   1.7262522421798E-06
(PID.TID 0000.0001) %MON dynstat_uvel_del2            =   1.5706031474590E-07
(PID.TID 0000.0001) %MON dynstat_vvel_max             =   8.1367372892077E-05
(PID.TID 0000.0001) %MON dynstat_vvel_min             =  -8.2643341063986E-05
(PID.TID 0000.0001) %MON dynstat_vvel_mean            =  -1.5830677765297E-17
(PID.TID 0000.0001) %MON dynstat_vvel_sd              =   6.6689821178855E-06
(PID.TID 0000.0001) %MON dynstat_vvel_del2            =   2.7074793316176E-07
(PID.TID 0000.0001) %MON dynstat_wvel_max             =   2.6092282460712E-05
(PID.TID 0000.0001) %MON dynstat_wvel_min             =  -1.3890901881553E-04
(PID.TID 0000.0001) %MON dynstat_wvel_mean            =   1.6369209238999E-22
(PID.TID 0000.0001) %MON dynstat_wvel_sd              =   1.5925970912286E-05
(PID.TID 0000.0001) %MON dynstat_wvel_del2            =   4.3955772538240E-06
(PID.TID 0000.0001) %MON dynstat_theta_max            =   2.0000965713288E+01
(PID.TID 0000.0001) %MON dynstat_theta_min            =   1.9911774491893E+01
(PID.TID 0000.0001) %MON dynstat_theta_mean           =   1.9998672667576E+01
(PID.TID 0000.0001) %MON dynstat_theta_sd             =   1.2450828744152E-02
(PID.TID 0000.0001) %MON dynstat_theta_del2           =   2.1551472696210E-03
(PID.TID 0000.0001) %MON dynstat_salt_max             =   3.5000000000000E+01
(PID.TID 0000.0001) %MON dynstat_salt_min             =   3.5000000000000E+01
(PID.TID 0000.0001) %MON dynstat_salt_mean            =   3.5000000000001E+01
(PID.TID 0000.0001) %MON dynstat_salt_sd              =   7.5317529990572E-13
(PID.TID 0000.0001) %MON dynstat_salt_del2            =   0.0000000000000E+00
(PID.TID 0000.0001) %MON extforcing_qnet_max          =   0.0000000000000E+00
(PID.TID 0000.0001) %MON extforcing_qnet_min          =   0.0000000000000E+00
(PID.TID 0000.0001) %MON extforcing_qnet_mean         =   0.0000000000000E+00
(PID.TID 0000.0001) %MON extforcing_qnet_sd           =   0.0000000000000E+00
(PID.TID 0000.0001) %MON extforcing_qnet_del2         =   0.0000000000000E+00
(PID.TID 0000.0001) %MON extforcing_qsw_max           =   0.0000000000000E+00
(PID.TID 0000.0001) %MON extforcing_qsw_min           =   0.0000000000000E+00
(PID.TID 0000.0001) %MON extforcing_qsw_mean          =   0.0000000000000E+00
(PID.TID 0000.0001) %MON extforcing_qsw_sd            =   0.0000000000000E+00
(PID.TID 0000.0001) %MON extforcing_qsw_del2          =   0.0000000000000E+00
(PID.TID 0000.0001) %MON extforcing_empmr_max         =   0.0000000000000E+00
(PID.TID 0000.0001) %MON extforcing_empmr_min         =   0.0000000000000E+00
(PID.TID 0000.0001) %MON extforcing_empmr_mean        =   0.0000000000000E+00
(PID.TID 0000.0001) %MON extforcing_empmr_sd          =   0.0000000000000E+00
(PID.TID 0000.0001) %MON extforcing_empmr_del2        =   0.0000000000000E+00
(PID.TID 0000.0001) %MON extforcing_fu_max            =   0.0000000000000E+00
(PID.TID 0000.0001) %MON extforcing_fu_min            =   0.0000000000000E+00
(PID.TID 0000.0001) %MON extforcing_fu_mean           =   0.0000000000000E+00
(PID.TID 0000.0001) %MON extforcing_fu_sd             =   0.0000000000000E+00
(PID.TID 0000.0001) %MON extforcing_fu_del2           =   0.0000000000000E+00
(PID.TID 0000.0001) %MON extforcing_fv_max            =   0.0000000000000E+00
(PID.TID 0000.0001) %MON extforcing_fv_min            =   0.0000000000000E+00
(PID.TID 0000.0001) %MON extforcing_fv_mean           =   0.0000000000000E+00
(PID.TID 0000.0001) %MON extforcing_fv_sd             =   0.0000000000000E+00
(PID.TID 0000.0001) %MON extforcing_fv_del2           =   0.0000000000000E+00
(PID.TID 0000.0001) %MON advcfl_uvel_max              =   3.4979178535887E-04
(PID.TID 0000.0001) %MON advcfl_vvel_max              =   8.2643341063986E-04
(PID.TID 0000.0001) %MON advcfl_wvel_max              =   2.7781803763105E-03
(PID.TID 0000.0001) %MON advcfl_W_hf_max              =   2.7781803763105E-03
(PID.TID 0000.0001) %MON pe_b_mean                    =   1.1099440362855E-12
(PID.TID 0000.0001) %MON ke_max                       =   2.2191620390639E-09
(PID.TID 0000.0001) %MON ke_mean                      =   2.2716831862683E-11
(PID.TID 0000.0001) %MON ke_vol                       =   3.8082386146814E-02
(PID.TID 0000.0001) %MON vort_r_min                   =  -1.2635421670161E-03
(PID.TID 0000.0001) %MON vort_r_max                   =   1.2844536711104E-03
(PID.TID 0000.0001) %MON vort_a_mean                  =   5.0000000000196E-01
(PID.TID 0000.0001) %MON vort_a_sd                    =   8.0230786933127E-05
(PID.TID 0000.0001) %MON vort_p_mean                  =   5.1396648044895E-01
(PID.TID 0000.0001) %MON vort_p_sd                    =   1.4406490744465E-01
(PID.TID 0000.0001) %MON surfExpan_theta_mean         =   0.0000000000000E+00
(PID.TID 0000.0001) %MON surfExpan_salt_mean          =   0.0000000000000E+00
(PID.TID 0000.0001) // =======================================================
(PID.TID 0000.0001) // End MONITOR dynamic field statistics
(PID.TID 0000.0001) // =======================================================
 cg2d: Sum(rhs),rhsMax =  -4.46170878021235E-15  2.79700163160594E-06
(PID.TID 0000.0001)                    cg2d_init_res =    8.39928870607309E-01
(PID.TID 0000.0001)                       cg2d_iters =    38
(PID.TID 0000.0001)                         cg2d_res =    9.54132501519463E-08
 cg3d: Sum(rhs),rhsMax =  -1.26626140128927E-14  9.75796876390066E-07
(PID.TID 0000.0001)                    cg3d_init_res =    2.71457713963444E+00
(PID.TID 0000.0001)                       cg3d_iters =    10
(PID.TID 0000.0001)                         cg3d_res =    2.95648293299386E-01
(PID.TID 0000.0001) // =======================================================
(PID.TID 0000.0001) // Begin MONITOR dynamic field statistics
(PID.TID 0000.0001) // =======================================================
(PID.TID 0000.0001) %MON time_tsnumber                =                    17
(PID.TID 0000.0001) %MON time_secondsf                =   1.7000000000000E+00
(PID.TID 0000.0001) %MON dynstat_eta_max              =   7.9380263049221E-08
(PID.TID 0000.0001) %MON dynstat_eta_min              =  -1.2581993775642E-06
(PID.TID 0000.0001) %MON dynstat_eta_mean             =   4.5162538816941E-08
(PID.TID 0000.0001) %MON dynstat_eta_sd               =   1.8710650136101E-07
(PID.TID 0000.0001) %MON dynstat_eta_del2             =   3.2254281785378E-08
(PID.TID 0000.0001) %MON dynstat_uvel_max             =   2.0525097239529E-05
(PID.TID 0000.0001) %MON dynstat_uvel_min             =  -2.0631008548542E-05
(PID.TID 0000.0001) %MON dynstat_uvel_mean            =   3.8168133343771E-11
(PID.TID 0000.0001) %MON dynstat_uvel_sd              =   2.0490123481391E-06
(PID.TID 0000.0001) %MON dynstat_uvel_del2            =   1.7365127084864E-07
(PID.TID 0000.0001) %MON dynstat_vvel_max             =   9.1058275933763E-05
(PID.TID 0000.0001) %MON dynstat_vvel_min             =  -9.2547901210200E-05
(PID.TID 0000.0001) %MON dynstat_vvel_mean            =   1.0228848701869E-16
(PID.TID 0000.0001) %MON dynstat_vvel_sd              =   7.4570595051135E-06
(PID.TID 0000.0001) %MON dynstat_vvel_del2            =   2.9588070665109E-07
(PID.TID 0000.0001) %MON dynstat_wvel_max             =   2.9081320320820E-05
(PID.TID 0000.0001) %MON dynstat_wvel_min             =  -1.5484090754416E-04
(PID.TID 0000.0001) %MON dynstat_wvel_mean            =  -6.9068393413499E-23
(PID.TID 0000.0001) %MON dynstat_wvel_sd              =   1.7862983789937E-05
(PID.TID 0000.0001) %MON dynstat_wvel_del2            =   4.8175207446645E-06
(PID.TID 0000.0001) %MON dynstat_theta_max            =   2.0000964311837E+01
(PID.TID 0000.0001) %MON dynstat_theta_min            =   1.9906355551380E+01
(PID.TID 0000.0001) %MON dynstat_theta_mean           =   1.9998558346290E+01
(PID.TID 0000.0001) %MON dynstat_theta_sd             =   1.3210344740171E-02
(PID.TID 0000.0001) %MON dynstat_theta_del2           =   2.2702686925009E-03
(PID.TID 0000.0001) %MON dynstat_salt_max             =   3.5000000000000E+01
(PID.TID 0000.0001) %MON dynstat_salt_min             =   3.5000000000000E+01
(PID.TID 0000.0001) %MON dynstat_salt_mean            =   3.5000000000001E+01
(PID.TID 0000.0001) %MON dynstat_salt_sd              =   7.5317529990572E-13
(PID.TID 0000.0001) %MON dynstat_salt_del2            =   0.0000000000000E+00
(PID.TID 0000.0001) %MON extforcing_qnet_max          =   0.0000000000000E+00
(PID.TID 0000.0001) %MON extforcing_qnet_min          =   0.0000000000000E+00
(PID.TID 0000.0001) %MON extforcing_qnet_mean         =   0.0000000000000E+00
(PID.TID 0000.0001) %MON extforcing_qnet_sd           =   0.0000000000000E+00
(PID.TID 0000.0001) %MON extforcing_qnet_del2         =   0.0000000000000E+00
(PID.TID 0000.0001) %MON extforcing_qsw_max           =   0.0000000000000E+00
(PID.TID 0000.0001) %MON extforcing_qsw_min           =   0.0000000000000E+00
(PID.TID 0000.0001) %MON extforcing_qsw_mean          =   0.0000000000000E+00
(PID.TID 0000.0001) %MON extforcing_qsw_sd            =   0.0000000000000E+00
(PID.TID 0000.0001) %MON extforcing_qsw_del2          =   0.0000000000000E+00
(PID.TID 0000.0001) %MON extforcing_empmr_max         =   0.0000000000000E+00
(PID.TID 0000.0001) %MON extforcing_empmr_min         =   0.0000000000000E+00
(PID.TID 0000.0001) %MON extforcing_empmr_mean        =   0.0000000000000E+00
(PID.TID 0000.0001) %MON extforcing_empmr_sd          =   0.0000000000000E+00
(PID.TID 0000.0001) %MON extforcing_empmr_del2        =   0.0000000000000E+00
(PID.TID 0000.0001) %MON extforcing_fu_max            =   0.0000000000000E+00
(PID.TID 0000.0001) %MON extforcing_fu_min            =   0.0000000000000E+00
(PID.TID 0000.0001) %MON extforcing_fu_mean           =   0.0000000000000E+00
(PID.TID 0000.0001) %MON extforcing_fu_sd             =   0.0000000000000E+00
(PID.TID 0000.0001) %MON extforcing_fu_del2           =   0.0000000000000E+00
(PID.TID 0000.0001) %MON extforcing_fv_max            =   0.0000000000000E+00
(PID.TID 0000.0001) %MON extforcing_fv_min            =   0.0000000000000E+00
(PID.TID 0000.0001) %MON extforcing_fv_mean           =   0.0000000000000E+00
(PID.TID 0000.0001) %MON extforcing_fv_sd             =   0.0000000000000E+00
(PID.TID 0000.0001) %MON extforcing_fv_del2           =   0.0000000000000E+00
(PID.TID 0000.0001) %MON advcfl_uvel_max              =   4.1476130418588E-04
(PID.TID 0000.0001) %MON advcfl_vvel_max              =   9.2547901210200E-04
(PID.TID 0000.0001) %MON advcfl_wvel_max              =   3.0968181508832E-03
(PID.TID 0000.0001) %MON advcfl_W_hf_max              =   3.0968181508832E-03
(PID.TID 0000.0001) %MON pe_b_mean                    =   1.2532612519460E-12
(PID.TID 0000.0001) %MON ke_max                       =   2.8105123616287E-09
(PID.TID 0000.0001) %MON ke_mean                      =   2.8639281841209E-11
(PID.TID 0000.0001) %MON ke_vol                       =   3.8082386146814E-02
(PID.TID 0000.0001) %MON vort_r_min                   =  -1.4897894461012E-03
(PID.TID 0000.0001) %MON vort_r_max                   =   1.5078147679272E-03
(PID.TID 0000.0001) %MON vort_a_mean                  =   5.0000000000193E-01
(PID.TID 0000.0001) %MON vort_a_sd                    =   9.5565081649125E-05
(PID.TID 0000.0001) %MON vort_p_mean                  =   5.1396648044891E-01
(PID.TID 0000.0001) %MON vort_p_sd                    =   1.4406496603660E-01
(PID.TID 0000.0001) %MON surfExpan_theta_mean         =   0.0000000000000E+00
(PID.TID 0000.0001) %MON surfExpan_salt_mean          =   0.0000000000000E+00
(PID.TID 0000.0001) // =======================================================
(PID.TID 0000.0001) // End MONITOR dynamic field statistics
(PID.TID 0000.0001) // =======================================================
 cg2d: Sum(rhs),rhsMax =  -1.45716771982052E-15  2.94629460968811E-06
(PID.TID 0000.0001)                    cg2d_init_res =    7.92260709045876E-01
(PID.TID 0000.0001)                       cg2d_iters =    38
(PID.TID 0000.0001)                         cg2d_res =    9.25742760145572E-08
 cg3d: Sum(rhs),rhsMax =  -8.49494086185842E-15  1.02700538254811E-06
(PID.TID 0000.0001)                    cg3d_init_res =    2.56203086725330E+00
(PID.TID 0000.0001)                       cg3d_iters =    10
(PID.TID 0000.0001)                         cg3d_res =    2.70524445750897E-01
(PID.TID 0000.0001) // =======================================================
(PID.TID 0000.0001) // Begin MONITOR dynamic field statistics
(PID.TID 0000.0001) // =======================================================
(PID.TID 0000.0001) %MON time_tsnumber                =                    18
(PID.TID 0000.0001) %MON time_secondsf                =   1.8000000000000E+00
(PID.TID 0000.0001) %MON dynstat_eta_max              =   8.3714371878925E-08
(PID.TID 0000.0001) %MON dynstat_eta_min              =  -1.3316014724023E-06
(PID.TID 0000.0001) %MON dynstat_eta_mean             =   4.7863424772759E-08
(PID.TID 0000.0001) %MON dynstat_eta_sd               =   1.9808614399215E-07
(PID.TID 0000.0001) %MON dynstat_eta_del2             =   3.3918297318005E-08
(PID.TID 0000.0001) %MON dynstat_uvel_max             =   2.3962312072055E-05
(PID.TID 0000.0001) %MON dynstat_uvel_min             =  -2.4117641806355E-05
(PID.TID 0000.0001) %MON dynstat_uvel_mean            =   5.3059376436502E-11
(PID.TID 0000.0001) %MON dynstat_uvel_sd              =   2.4081489701275E-06
(PID.TID 0000.0001) %MON dynstat_uvel_del2            =   1.8812205113006E-07
(PID.TID 0000.0001) %MON dynstat_vvel_max             =   1.0129521678965E-04
(PID.TID 0000.0001) %MON dynstat_vvel_min             =  -1.0298843631951E-04
(PID.TID 0000.0001) %MON dynstat_vvel_mean            =  -1.0746363033782E-17
(PID.TID 0000.0001) %MON dynstat_vvel_sd              =   8.2849995579507E-06
(PID.TID 0000.0001) %MON dynstat_vvel_del2            =   3.1897945949302E-07
(PID.TID 0000.0001) %MON dynstat_wvel_max             =   3.1606946410991E-05
(PID.TID 0000.0001) %MON dynstat_wvel_min             =  -1.7151949869728E-04
(PID.TID 0000.0001) %MON dynstat_wvel_mean            =   2.9699409167805E-22
(PID.TID 0000.0001) %MON dynstat_wvel_sd              =   1.9903458854663E-05
(PID.TID 0000.0001) %MON dynstat_wvel_del2            =   5.2011163799775E-06
(PID.TID 0000.0001) %MON dynstat_theta_max            =   2.0000962910078E+01
(PID.TID 0000.0001) %MON dynstat_theta_min            =   1.9900944412518E+01
(PID.TID 0000.0001) %MON dynstat_theta_mean           =   1.9998444055867E+01
(PID.TID 0000.0001) %MON dynstat_theta_sd             =   1.3967755667612E-02
(PID.TID 0000.0001) %MON dynstat_theta_del2           =   2.3848323978270E-03
(PID.TID 0000.0001) %MON dynstat_salt_max             =   3.5000000000000E+01
(PID.TID 0000.0001) %MON dynstat_salt_min             =   3.5000000000000E+01
(PID.TID 0000.0001) %MON dynstat_salt_mean            =   3.5000000000001E+01
(PID.TID 0000.0001) %MON dynstat_salt_sd              =   7.5317529990572E-13
(PID.TID 0000.0001) %MON dynstat_salt_del2            =   0.0000000000000E+00
(PID.TID 0000.0001) %MON extforcing_qnet_max          =   0.0000000000000E+00
(PID.TID 0000.0001) %MON extforcing_qnet_min          =   0.0000000000000E+00
(PID.TID 0000.0001) %MON extforcing_qnet_mean         =   0.0000000000000E+00
(PID.TID 0000.0001) %MON extforcing_qnet_sd           =   0.0000000000000E+00
(PID.TID 0000.0001) %MON extforcing_qnet_del2         =   0.0000000000000E+00
(PID.TID 0000.0001) %MON extforcing_qsw_max           =   0.0000000000000E+00
(PID.TID 0000.0001) %MON extforcing_qsw_min           =   0.0000000000000E+00
(PID.TID 0000.0001) %MON extforcing_qsw_mean          =   0.0000000000000E+00
(PID.TID 0000.0001) %MON extforcing_qsw_sd            =   0.0000000000000E+00
(PID.TID 0000.0001) %MON extforcing_qsw_del2          =   0.0000000000000E+00
(PID.TID 0000.0001) %MON extforcing_empmr_max         =   0.0000000000000E+00
(PID.TID 0000.0001) %MON extforcing_empmr_min         =   0.0000000000000E+00
(PID.TID 0000.0001) %MON extforcing_empmr_mean        =   0.0000000000000E+00
(PID.TID 0000.0001) %MON extforcing_empmr_sd          =   0.0000000000000E+00
(PID.TID 0000.0001) %MON extforcing_empmr_del2        =   0.0000000000000E+00
(PID.TID 0000.0001) %MON extforcing_fu_max            =   0.0000000000000E+00
(PID.TID 0000.0001) %MON extforcing_fu_min            =   0.0000000000000E+00
(PID.TID 0000.0001) %MON extforcing_fu_mean           =   0.0000000000000E+00
(PID.TID 0000.0001) %MON extforcing_fu_sd             =   0.0000000000000E+00
(PID.TID 0000.0001) %MON extforcing_fu_del2           =   0.0000000000000E+00
(PID.TID 0000.0001) %MON extforcing_fv_max            =   0.0000000000000E+00
(PID.TID 0000.0001) %MON extforcing_fv_min            =   0.0000000000000E+00
(PID.TID 0000.0001) %MON extforcing_fv_mean           =   0.0000000000000E+00
(PID.TID 0000.0001) %MON extforcing_fv_sd             =   0.0000000000000E+00
(PID.TID 0000.0001) %MON extforcing_fv_del2           =   0.0000000000000E+00
(PID.TID 0000.0001) %MON advcfl_uvel_max              =   4.8485582010961E-04
(PID.TID 0000.0001) %MON advcfl_vvel_max              =   1.0298843631951E-03
(PID.TID 0000.0001) %MON advcfl_wvel_max              =   3.4303899739457E-03
(PID.TID 0000.0001) %MON advcfl_W_hf_max              =   3.4303899739457E-03
(PID.TID 0000.0001) %MON pe_b_mean                    =   1.4048267704510E-12
(PID.TID 0000.0001) %MON ke_max                       =   3.5120555843255E-09
(PID.TID 0000.0001) %MON ke_mean                      =   3.5660171895758E-11
(PID.TID 0000.0001) %MON ke_vol                       =   3.8082386146814E-02
(PID.TID 0000.0001) %MON vort_r_min                   =  -1.7404438709239E-03
(PID.TID 0000.0001) %MON vort_r_max                   =   1.7701731243212E-03
(PID.TID 0000.0001) %MON vort_a_mean                  =   5.0000000000188E-01
(PID.TID 0000.0001) %MON vort_a_sd                    =   1.1267462957167E-04
(PID.TID 0000.0001) %MON vort_p_mean                  =   5.1396648044887E-01
(PID.TID 0000.0001) %MON vort_p_sd                    =   1.4406504381444E-01
(PID.TID 0000.0001) %MON surfExpan_theta_mean         =   0.0000000000000E+00
(PID.TID 0000.0001) %MON surfExpan_salt_mean          =   0.0000000000000E+00
(PID.TID 0000.0001) // =======================================================
(PID.TID 0000.0001) // End MONITOR dynamic field statistics
(PID.TID 0000.0001) // =======================================================
 cg2d: Sum(rhs),rhsMax =  -1.46826995006677E-14  3.09496583813883E-06
(PID.TID 0000.0001)                    cg2d_init_res =    7.49383788194806E-01
(PID.TID 0000.0001)                       cg2d_iters =    38
(PID.TID 0000.0001)                         cg2d_res =    8.95045729851575E-08
 cg3d: Sum(rhs),rhsMax =  -2.00447297649120E-15  1.07782578721434E-06
(PID.TID 0000.0001)                    cg3d_init_res =    2.42354174292282E+00
(PID.TID 0000.0001)                       cg3d_iters =    10
(PID.TID 0000.0001)                         cg3d_res =    2.61260501809402E-01
(PID.TID 0000.0001) // =======================================================
(PID.TID 0000.0001) // Begin MONITOR dynamic field statistics
(PID.TID 0000.0001) // =======================================================
(PID.TID 0000.0001) %MON time_tsnumber                =                    19
(PID.TID 0000.0001) %MON time_secondsf                =   1.9000000000000E+00
(PID.TID 0000.0001) %MON dynstat_eta_max              =   8.8044151776593E-08
(PID.TID 0000.0001) %MON dynstat_eta_min              =  -1.4047715304856E-06
(PID.TID 0000.0001) %MON dynstat_eta_mean             =   5.0561406933672E-08
(PID.TID 0000.0001) %MON dynstat_eta_sd               =   2.0903264921895E-07
(PID.TID 0000.0001) %MON dynstat_eta_del2             =   3.5573929302660E-08
(PID.TID 0000.0001) %MON dynstat_uvel_max             =   2.7919981977036E-05
(PID.TID 0000.0001) %MON dynstat_uvel_min             =  -2.8062067857759E-05
(PID.TID 0000.0001) %MON dynstat_uvel_mean            =   7.2418396386014E-11
(PID.TID 0000.0001) %MON dynstat_uvel_sd              =   2.8057921033469E-06
(PID.TID 0000.0001) %MON dynstat_uvel_del2            =   2.0705919879210E-07
(PID.TID 0000.0001) %MON dynstat_vvel_max             =   1.1190457894665E-04
(PID.TID 0000.0001) %MON dynstat_vvel_min             =  -1.1383228083584E-04
(PID.TID 0000.0001) %MON dynstat_vvel_mean            =   5.7809129925981E-17
(PID.TID 0000.0001) %MON dynstat_vvel_sd              =   9.1500701338783E-06
(PID.TID 0000.0001) %MON dynstat_vvel_del2            =   3.4520109777664E-07
(PID.TID 0000.0001) %MON dynstat_wvel_max             =   3.4758801061831E-05
(PID.TID 0000.0001) %MON dynstat_wvel_min             =  -1.8901787956288E-04
(PID.TID 0000.0001) %MON dynstat_wvel_mean            =   1.7923248090803E-22
(PID.TID 0000.0001) %MON dynstat_wvel_sd              =   2.2047466834237E-05
(PID.TID 0000.0001) %MON dynstat_wvel_del2            =   5.6411094737153E-06
(PID.TID 0000.0001) %MON dynstat_theta_max            =   2.0000961508181E+01
(PID.TID 0000.0001) %MON dynstat_theta_min            =   1.9895540301897E+01
(PID.TID 0000.0001) %MON dynstat_theta_mean           =   1.9998329796219E+01
(PID.TID 0000.0001) %MON dynstat_theta_sd             =   1.4723071755582E-02
(PID.TID 0000.0001) %MON dynstat_theta_del2           =   2.4988243712176E-03
(PID.TID 0000.0001) %MON dynstat_salt_max             =   3.5000000000000E+01
(PID.TID 0000.0001) %MON dynstat_salt_min             =   3.5000000000000E+01
(PID.TID 0000.0001) %MON dynstat_salt_mean            =   3.5000000000001E+01
(PID.TID 0000.0001) %MON dynstat_salt_sd              =   7.5317529990572E-13
(PID.TID 0000.0001) %MON dynstat_salt_del2            =   0.0000000000000E+00
(PID.TID 0000.0001) %MON extforcing_qnet_max          =   0.0000000000000E+00
(PID.TID 0000.0001) %MON extforcing_qnet_min          =   0.0000000000000E+00
(PID.TID 0000.0001) %MON extforcing_qnet_mean         =   0.0000000000000E+00
(PID.TID 0000.0001) %MON extforcing_qnet_sd           =   0.0000000000000E+00
(PID.TID 0000.0001) %MON extforcing_qnet_del2         =   0.0000000000000E+00
(PID.TID 0000.0001) %MON extforcing_qsw_max           =   0.0000000000000E+00
(PID.TID 0000.0001) %MON extforcing_qsw_min           =   0.0000000000000E+00
(PID.TID 0000.0001) %MON extforcing_qsw_mean          =   0.0000000000000E+00
(PID.TID 0000.0001) %MON extforcing_qsw_sd            =   0.0000000000000E+00
(PID.TID 0000.0001) %MON extforcing_qsw_del2          =   0.0000000000000E+00
(PID.TID 0000.0001) %MON extforcing_empmr_max         =   0.0000000000000E+00
(PID.TID 0000.0001) %MON extforcing_empmr_min         =   0.0000000000000E+00
(PID.TID 0000.0001) %MON extforcing_empmr_mean        =   0.0000000000000E+00
(PID.TID 0000.0001) %MON extforcing_empmr_sd          =   0.0000000000000E+00
(PID.TID 0000.0001) %MON extforcing_empmr_del2        =   0.0000000000000E+00
(PID.TID 0000.0001) %MON extforcing_fu_max            =   0.0000000000000E+00
(PID.TID 0000.0001) %MON extforcing_fu_min            =   0.0000000000000E+00
(PID.TID 0000.0001) %MON extforcing_fu_mean           =   0.0000000000000E+00
(PID.TID 0000.0001) %MON extforcing_fu_sd             =   0.0000000000000E+00
(PID.TID 0000.0001) %MON extforcing_fu_del2           =   0.0000000000000E+00
(PID.TID 0000.0001) %MON extforcing_fv_max            =   0.0000000000000E+00
(PID.TID 0000.0001) %MON extforcing_fv_min            =   0.0000000000000E+00
(PID.TID 0000.0001) %MON extforcing_fv_mean           =   0.0000000000000E+00
(PID.TID 0000.0001) %MON extforcing_fv_sd             =   0.0000000000000E+00
(PID.TID 0000.0001) %MON extforcing_fv_del2           =   0.0000000000000E+00
(PID.TID 0000.0001) %MON advcfl_uvel_max              =   5.6415370268747E-04
(PID.TID 0000.0001) %MON advcfl_vvel_max              =   1.1383228083584E-03
(PID.TID 0000.0001) %MON advcfl_wvel_max              =   3.7803575912576E-03
(PID.TID 0000.0001) %MON advcfl_W_hf_max              =   3.7803575912576E-03
(PID.TID 0000.0001) %MON pe_b_mean                    =   1.5645632182313E-12
(PID.TID 0000.0001) %MON ke_max                       =   4.3354840854423E-09
(PID.TID 0000.0001) %MON ke_mean                      =   4.3895313133334E-11
(PID.TID 0000.0001) %MON ke_vol                       =   3.8082386146814E-02
(PID.TID 0000.0001) %MON vort_r_min                   =  -2.0214631666784E-03
(PID.TID 0000.0001) %MON vort_r_max                   =   2.0471205363187E-03
(PID.TID 0000.0001) %MON vort_a_mean                  =   5.0000000000182E-01
(PID.TID 0000.0001) %MON vort_a_sd                    =   1.3165571396774E-04
(PID.TID 0000.0001) %MON vort_p_mean                  =   5.1396648044880E-01
(PID.TID 0000.0001) %MON vort_p_sd                    =   1.4406514541545E-01
(PID.TID 0000.0001) %MON surfExpan_theta_mean         =   0.0000000000000E+00
(PID.TID 0000.0001) %MON surfExpan_salt_mean          =   0.0000000000000E+00
(PID.TID 0000.0001) // =======================================================
(PID.TID 0000.0001) // End MONITOR dynamic field statistics
(PID.TID 0000.0001) // =======================================================
 cg2d: Sum(rhs),rhsMax =  -1.75623404707892E-14  3.24302259479458E-06
(PID.TID 0000.0001)                    cg2d_init_res =    7.10612824378417E-01
(PID.TID 0000.0001)                       cg2d_iters =    38
(PID.TID 0000.0001)                         cg2d_res =    8.68241353525345E-08
 cg3d: Sum(rhs),rhsMax =   8.84041104209921E-14  1.12829490305883E-06
(PID.TID 0000.0001)                    cg3d_init_res =    2.29946575571673E+00
(PID.TID 0000.0001)                       cg3d_iters =    10
(PID.TID 0000.0001)                         cg3d_res =    2.41132151695154E-01
(PID.TID 0000.0001) // =======================================================
(PID.TID 0000.0001) // Begin MONITOR dynamic field statistics
(PID.TID 0000.0001) // =======================================================
(PID.TID 0000.0001) %MON time_tsnumber                =                    20
(PID.TID 0000.0001) %MON time_secondsf                =   2.0000000000000E+00
(PID.TID 0000.0001) %MON dynstat_eta_max              =   9.2369675828610E-08
(PID.TID 0000.0001) %MON dynstat_eta_min              =  -1.4777088883831E-06
(PID.TID 0000.0001) %MON dynstat_eta_mean             =   5.3256361221581E-08
(PID.TID 0000.0001) %MON dynstat_eta_sd               =   2.1994586874020E-07
(PID.TID 0000.0001) %MON dynstat_eta_del2             =   3.7221250213548E-08
(PID.TID 0000.0001) %MON dynstat_uvel_max             =   3.2111883125974E-05
(PID.TID 0000.0001) %MON dynstat_uvel_min             =  -3.2302311417995E-05
(PID.TID 0000.0001) %MON dynstat_uvel_mean            =   9.7224014516496E-11
(PID.TID 0000.0001) %MON dynstat_uvel_sd              =   3.2431790969974E-06
(PID.TID 0000.0001) %MON dynstat_uvel_del2            =   2.2441838247872E-07
(PID.TID 0000.0001) %MON dynstat_vvel_max             =   1.2303700041075E-04
(PID.TID 0000.0001) %MON dynstat_vvel_min             =  -1.2518519131735E-04
(PID.TID 0000.0001) %MON dynstat_vvel_mean            =  -1.9726624553717E-17
(PID.TID 0000.0001) %MON dynstat_vvel_sd              =   1.0053214895384E-05
(PID.TID 0000.0001) %MON dynstat_vvel_del2            =   3.6971519030615E-07
(PID.TID 0000.0001) %MON dynstat_wvel_max             =   3.7453378443855E-05
(PID.TID 0000.0001) %MON dynstat_wvel_min             =  -2.0708665916874E-04
(PID.TID 0000.0001) %MON dynstat_wvel_mean            =   4.4238305981346E-22
(PID.TID 0000.0001) %MON dynstat_wvel_sd              =   2.4292484191294E-05
(PID.TID 0000.0001) %MON dynstat_wvel_del2            =   6.0502553906552E-06
(PID.TID 0000.0001) %MON dynstat_theta_max            =   2.0000960106176E+01
(PID.TID 0000.0001) %MON dynstat_theta_min            =   1.9890142345055E+01
(PID.TID 0000.0001) %MON dynstat_theta_mean           =   1.9998215567260E+01
(PID.TID 0000.0001) %MON dynstat_theta_sd             =   1.5476303785785E-02
(PID.TID 0000.0001) %MON dynstat_theta_del2           =   2.6122496455207E-03
(PID.TID 0000.0001) %MON dynstat_salt_max             =   3.5000000000000E+01
(PID.TID 0000.0001) %MON dynstat_salt_min             =   3.5000000000000E+01
(PID.TID 0000.0001) %MON dynstat_salt_mean            =   3.5000000000001E+01
(PID.TID 0000.0001) %MON dynstat_salt_sd              =   7.5317529990572E-13
(PID.TID 0000.0001) %MON dynstat_salt_del2            =   0.0000000000000E+00
(PID.TID 0000.0001) %MON extforcing_qnet_max          =   0.0000000000000E+00
(PID.TID 0000.0001) %MON extforcing_qnet_min          =   0.0000000000000E+00
(PID.TID 0000.0001) %MON extforcing_qnet_mean         =   0.0000000000000E+00
(PID.TID 0000.0001) %MON extforcing_qnet_sd           =   0.0000000000000E+00
(PID.TID 0000.0001) %MON extforcing_qnet_del2         =   0.0000000000000E+00
(PID.TID 0000.0001) %MON extforcing_qsw_max           =   0.0000000000000E+00
(PID.TID 0000.0001) %MON extforcing_qsw_min           =   0.0000000000000E+00
(PID.TID 0000.0001) %MON extforcing_qsw_mean          =   0.0000000000000E+00
(PID.TID 0000.0001) %MON extforcing_qsw_sd            =   0.0000000000000E+00
(PID.TID 0000.0001) %MON extforcing_qsw_del2          =   0.0000000000000E+00
(PID.TID 0000.0001) %MON extforcing_empmr_max         =   0.0000000000000E+00
(PID.TID 0000.0001) %MON extforcing_empmr_min         =   0.0000000000000E+00
(PID.TID 0000.0001) %MON extforcing_empmr_mean        =   0.0000000000000E+00
(PID.TID 0000.0001) %MON extforcing_empmr_sd          =   0.0000000000000E+00
(PID.TID 0000.0001) %MON extforcing_empmr_del2        =   0.0000000000000E+00
(PID.TID 0000.0001) %MON extforcing_fu_max            =   0.0000000000000E+00
(PID.TID 0000.0001) %MON extforcing_fu_min            =   0.0000000000000E+00
(PID.TID 0000.0001) %MON extforcing_fu_mean           =   0.0000000000000E+00
(PID.TID 0000.0001) %MON extforcing_fu_sd             =   0.0000000000000E+00
(PID.TID 0000.0001) %MON extforcing_fu_del2           =   0.0000000000000E+00
(PID.TID 0000.0001) %MON extforcing_fv_max            =   0.0000000000000E+00
(PID.TID 0000.0001) %MON extforcing_fv_min            =   0.0000000000000E+00
(PID.TID 0000.0001) %MON extforcing_fv_mean           =   0.0000000000000E+00
(PID.TID 0000.0001) %MON extforcing_fv_sd             =   0.0000000000000E+00
(PID.TID 0000.0001) %MON extforcing_fv_del2           =   0.0000000000000E+00
(PID.TID 0000.0001) %MON advcfl_uvel_max              =   6.4939863605908E-04
(PID.TID 0000.0001) %MON advcfl_vvel_max              =   1.2518519131735E-03
(PID.TID 0000.0001) %MON advcfl_wvel_max              =   4.1417331833748E-03
(PID.TID 0000.0001) %MON advcfl_W_hf_max              =   4.1417331833748E-03
(PID.TID 0000.0001) %MON pe_b_mean                    =   1.7323927278588E-12
(PID.TID 0000.0001) %MON ke_max                       =   5.2952472501348E-09
(PID.TID 0000.0001) %MON ke_mean                      =   5.3495689977513E-11
(PID.TID 0000.0001) %MON ke_vol                       =   3.8082386146814E-02
(PID.TID 0000.0001) %MON vort_r_min                   =  -2.3234015481707E-03
(PID.TID 0000.0001) %MON vort_r_max                   =   2.3626535557437E-03
(PID.TID 0000.0001) %MON vort_a_mean                  =   5.0000000000174E-01
(PID.TID 0000.0001) %MON vort_a_sd                    =   1.5258178652016E-04
(PID.TID 0000.0001) %MON vort_p_mean                  =   5.1396648044872E-01
(PID.TID 0000.0001) %MON vort_p_sd                    =   1.4406527614637E-01
(PID.TID 0000.0001) %MON surfExpan_theta_mean         =   0.0000000000000E+00
(PID.TID 0000.0001) %MON surfExpan_salt_mean          =   0.0000000000000E+00
(PID.TID 0000.0001) // =======================================================
(PID.TID 0000.0001) // End MONITOR dynamic field statistics
(PID.TID 0000.0001) // =======================================================
(PID.TID 0000.0001) %CHECKPOINT        20 0000000020
(PID.TID 0000.0001)   Seconds in section "ALL                    [THE_MODEL_MAIN]":
(PID.TID 0000.0001)           User time:  43.1814367
(PID.TID 0000.0001)         System time:  0.460929993
(PID.TID 0000.0001)     Wall clock time:  45.3348851
(PID.TID 0000.0001)          No. starts: 1
(PID.TID 0000.0001)           No. stops: 1
(PID.TID 0000.0001)   Seconds in section "INITIALISE_FIXED       [THE_MODEL_MAIN]":
(PID.TID 0000.0001)           User time:  2.02869098
(PID.TID 0000.0001)         System time:  0.0869869998
(PID.TID 0000.0001)     Wall clock time:  2.17283392
(PID.TID 0000.0001)          No. starts: 1
(PID.TID 0000.0001)           No. stops: 1
(PID.TID 0000.0001)   Seconds in section "THE_MAIN_LOOP          [THE_MODEL_MAIN]":
(PID.TID 0000.0001)           User time:  41.1527457
(PID.TID 0000.0001)         System time:  0.373942994
(PID.TID 0000.0001)     Wall clock time:  43.161865
(PID.TID 0000.0001)          No. starts: 1
(PID.TID 0000.0001)           No. stops: 1
(PID.TID 0000.0001)   Seconds in section "INITIALISE_VARIA    [THE_MAIN_LOOP]":
(PID.TID 0000.0001)           User time:  0.174973965
(PID.TID 0000.0001)         System time:  0.0339950025
(PID.TID 0000.0001)     Wall clock time:  0.241121054
(PID.TID 0000.0001)          No. starts: 1
(PID.TID 0000.0001)           No. stops: 1
(PID.TID 0000.0001)   Seconds in section "MAIN LOOP           [THE_MAIN_LOOP]":
(PID.TID 0000.0001)           User time:  40.3848617
(PID.TID 0000.0001)         System time:  0.304952994
(PID.TID 0000.0001)     Wall clock time:  42.2864809
(PID.TID 0000.0001)          No. starts: 1
(PID.TID 0000.0001)           No. stops: 1
(PID.TID 0000.0001)   Seconds in section "FORWARD_STEP        [THE_MAIN_LOOP]":
(PID.TID 0000.0001)           User time:  40.3828609
(PID.TID 0000.0001)         System time:  0.304952994
(PID.TID 0000.0001)     Wall clock time:  42.2855752
(PID.TID 0000.0001)          No. starts: 20
(PID.TID 0000.0001)           No. stops: 20
(PID.TID 0000.0001)   Seconds in section "LOAD_FIELDS_DRIVER  [FORWARD_STEP]":
(PID.TID 0000.0001)           User time:  0.00199890137
(PID.TID 0000.0001)         System time:  0.
(PID.TID 0000.0001)     Wall clock time:  0.00203704834
(PID.TID 0000.0001)          No. starts: 20
(PID.TID 0000.0001)           No. stops: 20
(PID.TID 0000.0001)   Seconds in section "EXTERNAL_FLDS_LOAD [LOAD_FLDS_DRIVER]":
(PID.TID 0000.0001)           User time:  0.000999450684
(PID.TID 0000.0001)         System time:  0.
(PID.TID 0000.0001)     Wall clock time:  0.000694274902
(PID.TID 0000.0001)          No. starts: 20
(PID.TID 0000.0001)           No. stops: 20
(PID.TID 0000.0001)   Seconds in section "DO_ATMOSPHERIC_PHYS [FORWARD_STEP]":
(PID.TID 0000.0001)           User time:  0.
(PID.TID 0000.0001)         System time:  0.00100000203
(PID.TID 0000.0001)     Wall clock time:  0.000668764114
(PID.TID 0000.0001)          No. starts: 20
(PID.TID 0000.0001)           No. stops: 20
(PID.TID 0000.0001)   Seconds in section "DO_OCEANIC_PHYS     [FORWARD_STEP]":
(PID.TID 0000.0001)           User time:  0.162971497
(PID.TID 0000.0001)         System time:  0.
(PID.TID 0000.0001)     Wall clock time:  0.163735151
(PID.TID 0000.0001)          No. starts: 20
(PID.TID 0000.0001)           No. stops: 20
(PID.TID 0000.0001)   Seconds in section "THERMODYNAMICS      [FORWARD_STEP]":
(PID.TID 0000.0001)           User time:  5.75712895
(PID.TID 0000.0001)         System time:  0.0059980154
(PID.TID 0000.0001)     Wall clock time:  5.76766396
(PID.TID 0000.0001)          No. starts: 20
(PID.TID 0000.0001)           No. stops: 20
(PID.TID 0000.0001)   Seconds in section "DYNAMICS            [FORWARD_STEP]":
(PID.TID 0000.0001)           User time:  13.092001
(PID.TID 0000.0001)         System time:  0.00899799168
(PID.TID 0000.0001)     Wall clock time:  13.1166422
(PID.TID 0000.0001)          No. starts: 20
(PID.TID 0000.0001)           No. stops: 20
(PID.TID 0000.0001)   Seconds in section "CALC_GW          [DYNAMICS]":
(PID.TID 0000.0001)           User time:  3.16051769
(PID.TID 0000.0001)         System time:  0.00100000203
(PID.TID 0000.0001)     Wall clock time:  3.16317272
(PID.TID 0000.0001)          No. starts: 80
(PID.TID 0000.0001)           No. stops: 80
(PID.TID 0000.0001)   Seconds in section "SOLVE_FOR_PRESSURE  [FORWARD_STEP]":
(PID.TID 0000.0001)           User time:  14.1358514
(PID.TID 0000.0001)         System time:  0.00100000203
(PID.TID 0000.0001)     Wall clock time:  14.1438446
(PID.TID 0000.0001)          No. starts: 20
(PID.TID 0000.0001)           No. stops: 20
(PID.TID 0000.0001)   Seconds in section "CG3D   [SOLVE_FOR_PRESSURE]":
(PID.TID 0000.0001)           User time:  11.9911747
(PID.TID 0000.0001)         System time:  0.00100000203
(PID.TID 0000.0001)     Wall clock time:  11.9952731
(PID.TID 0000.0001)          No. starts: 20
(PID.TID 0000.0001)           No. stops: 20
(PID.TID 0000.0001)   Seconds in section "MOM_CORRECTION_STEP [FORWARD_STEP]":
(PID.TID 0000.0001)           User time:  0.96886158
(PID.TID 0000.0001)         System time:  0.
(PID.TID 0000.0001)     Wall clock time:  0.96845293
(PID.TID 0000.0001)          No. starts: 20
(PID.TID 0000.0001)           No. stops: 20
(PID.TID 0000.0001)   Seconds in section "TRC_CORRECTION_STEP [FORWARD_STEP]":
(PID.TID 0000.0001)           User time:  0.244956017
(PID.TID 0000.0001)         System time:  0.
(PID.TID 0000.0001)     Wall clock time:  0.243564367
(PID.TID 0000.0001)          No. starts: 20
(PID.TID 0000.0001)           No. stops: 20
(PID.TID 0000.0001)   Seconds in section "BLOCKING_EXCHANGES  [FORWARD_STEP]":
(PID.TID 0000.0001)           User time:  0.358947277
(PID.TID 0000.0001)         System time:  0.
(PID.TID 0000.0001)     Wall clock time:  0.358742714
(PID.TID 0000.0001)          No. starts: 20
(PID.TID 0000.0001)           No. stops: 20
(PID.TID 0000.0001)   Seconds in section "MONITOR             [FORWARD_STEP]":
(PID.TID 0000.0001)           User time:  4.78527117
(PID.TID 0000.0001)         System time:  0.00299999118
(PID.TID 0000.0001)     Wall clock time:  4.80793285
(PID.TID 0000.0001)          No. starts: 20
(PID.TID 0000.0001)           No. stops: 20
(PID.TID 0000.0001)   Seconds in section "DO_THE_MODEL_IO     [FORWARD_STEP]":
(PID.TID 0000.0001)           User time:  0.488929749
(PID.TID 0000.0001)         System time:  0.0129979998
(PID.TID 0000.0001)     Wall clock time:  0.500840664
(PID.TID 0000.0001)          No. starts: 20
(PID.TID 0000.0001)           No. stops: 20
(PID.TID 0000.0001)   Seconds in section "DO_WRITE_PICKUP     [FORWARD_STEP]":
(PID.TID 0000.0001)           User time:  0.378945351
(PID.TID 0000.0001)         System time:  0.27095899
(PID.TID 0000.0001)     Wall clock time:  2.20227408
(PID.TID 0000.0001)          No. starts: 20
(PID.TID 0000.0001)           No. stops: 20
(PID.TID 0000.0001)   Seconds in section "DO_WRITE_PICKUP        [THE_MODEL_MAIN]":
(PID.TID 0000.0001)           User time:  0.
(PID.TID 0000.0001)         System time:  0.
(PID.TID 0000.0001)     Wall clock time:  3.60012054E-05
(PID.TID 0000.0001)          No. starts: 1
(PID.TID 0000.0001)           No. stops: 1
(PID.TID 0000.0001) // ======================================================
(PID.TID 0000.0001) // Tile <-> Tile communication statistics
(PID.TID 0000.0001) // ======================================================
(PID.TID 0000.0001) // o Tile number: 000001
(PID.TID 0000.0001) //         No. X exchanges =              0
(PID.TID 0000.0001) //            Max. X spins =              0
(PID.TID 0000.0001) //            Min. X spins =     1000000000
(PID.TID 0000.0001) //          Total. X spins =              0
(PID.TID 0000.0001) //            Avg. X spins =       0.00E+00
(PID.TID 0000.0001) //         No. Y exchanges =              0
(PID.TID 0000.0001) //            Max. Y spins =              0
(PID.TID 0000.0001) //            Min. Y spins =     1000000000
(PID.TID 0000.0001) //          Total. Y spins =              0
(PID.TID 0000.0001) //            Avg. Y spins =       0.00E+00
(PID.TID 0000.0001) // o Tile number: 000002
(PID.TID 0000.0001) //         No. X exchanges =              0
(PID.TID 0000.0001) //            Max. X spins =              0
(PID.TID 0000.0001) //            Min. X spins =     1000000000
(PID.TID 0000.0001) //          Total. X spins =              0
(PID.TID 0000.0001) //            Avg. X spins =       0.00E+00
(PID.TID 0000.0001) //         No. Y exchanges =              0
(PID.TID 0000.0001) //            Max. Y spins =              0
(PID.TID 0000.0001) //            Min. Y spins =     1000000000
(PID.TID 0000.0001) //          Total. Y spins =              0
(PID.TID 0000.0001) //            Avg. Y spins =       0.00E+00
(PID.TID 0000.0001) // o Tile number: 000003
(PID.TID 0000.0001) //         No. X exchanges =              0
(PID.TID 0000.0001) //            Max. X spins =              0
(PID.TID 0000.0001) //            Min. X spins =     1000000000
(PID.TID 0000.0001) //          Total. X spins =              0
(PID.TID 0000.0001) //            Avg. X spins =       0.00E+00
(PID.TID 0000.0001) //         No. Y exchanges =              0
(PID.TID 0000.0001) //            Max. Y spins =              0
(PID.TID 0000.0001) //            Min. Y spins =     1000000000
(PID.TID 0000.0001) //          Total. Y spins =              0
(PID.TID 0000.0001) //            Avg. Y spins =       0.00E+00
(PID.TID 0000.0001) // o Tile number: 000004
(PID.TID 0000.0001) //         No. X exchanges =              0
(PID.TID 0000.0001) //            Max. X spins =              0
(PID.TID 0000.0001) //            Min. X spins =     1000000000
(PID.TID 0000.0001) //          Total. X spins =              0
(PID.TID 0000.0001) //            Avg. X spins =       0.00E+00
(PID.TID 0000.0001) //         No. Y exchanges =              0
(PID.TID 0000.0001) //            Max. Y spins =              0
(PID.TID 0000.0001) //            Min. Y spins =     1000000000
(PID.TID 0000.0001) //          Total. Y spins =              0
(PID.TID 0000.0001) //            Avg. Y spins =       0.00E+00
(PID.TID 0000.0001) // o Thread number: 000001
(PID.TID 0000.0001) //            No. barriers =          23524
(PID.TID 0000.0001) //      Max. barrier spins =              1
(PID.TID 0000.0001) //      Min. barrier spins =              1
(PID.TID 0000.0001) //     Total barrier spins =          23524
(PID.TID 0000.0001) //      Avg. barrier spins =       1.00E+00
