(PID.TID 0000.0001) 
(PID.TID 0000.0001) // ======================================================
(PID.TID 0000.0001) //                      MITgcm UV
(PID.TID 0000.0001) //                      =========
(PID.TID 0000.0001) // ======================================================
(PID.TID 0000.0001) // execution environment starting up...
(PID.TID 0000.0001) 
(PID.TID 0000.0001) 
(PID.TID 0000.0001) // =======================================================
(PID.TID 0000.0001) // Execution Environment parameter file "eedata"
(PID.TID 0000.0001) // =======================================================
(PID.TID 0000.0001) ># Example "eedata" file
(PID.TID 0000.0001) ># Lines beginning "#" are comments
(PID.TID 0000.0001) ># nTx - No. threads per process in X
(PID.TID 0000.0001) ># nTy - No. threads per process in Y
(PID.TID 0000.0001) > &EEPARMS
(PID.TID 0000.0001) > &
(PID.TID 0000.0001) ># Note: Some systems use & as the
(PID.TID 0000.0001) ># namelist terminator. Other systems
(PID.TID 0000.0001) ># use a / character (as shown here).
(PID.TID 0000.0001) 
(PID.TID 0000.0001) // =======================================================
(PID.TID 0000.0001) // Computational Grid Specification ( see files "SIZE.h" )
(PID.TID 0000.0001) //                                  ( and "eedata"       )
(PID.TID 0000.0001) // =======================================================
(PID.TID 0000.0001)      nPx =    1 ; /* No. processes in X */
(PID.TID 0000.0001)      nPy =    1 ; /* No. processes in Y */
(PID.TID 0000.0001)      nSx =    1 ; /* No. tiles in X per process */
(PID.TID 0000.0001)      nSy =    1 ; /* No. tiles in Y per process */
(PID.TID 0000.0001)      sNx =  120 ; /* Tile size in X */
(PID.TID 0000.0001)      sNy =   31 ; /* Tile size in Y */
(PID.TID 0000.0001)      OLx =    3 ; /* Tile overlap distance in X */
(PID.TID 0000.0001)      OLy =    3 ; /* Tile overlap distance in Y */
(PID.TID 0000.0001)      nTx =    1 ; /* No. threads in X per process */
(PID.TID 0000.0001)      nTy =    1 ; /* No. threads in Y per process */
(PID.TID 0000.0001)       Nr =   29 ; /* No. levels in the vertical   */
(PID.TID 0000.0001)       nX =  120 ; /* Total domain size in X ( = nPx*nSx*sNx ) */
(PID.TID 0000.0001)       nY =   31 ; /* Total domain size in Y ( = nPy*nSy*sNy ) */
(PID.TID 0000.0001)   nTiles =    1 ; /* Total no. tiles per process ( = nSx*nSy ) */
(PID.TID 0000.0001)   nProcs =    1 ; /* Total no. processes ( = nPx*nPy ) */
(PID.TID 0000.0001) nThreads =    1 ; /* Total no. threads per process ( = nTx*nTy ) */
(PID.TID 0000.0001) usingMPI =    F ; /* Flag used to control whether MPI is in use */
(PID.TID 0000.0001)                   /*  note: To execute a program with MPI calls */
(PID.TID 0000.0001)                   /*  it must be launched appropriately e.g     */
(PID.TID 0000.0001)                   /*  "mpirun -np 64 ......"                    */
(PID.TID 0000.0001) useCoupler=   F ; /* Flag used to control communications with */
(PID.TID 0000.0001)                   /*  other model components, through a coupler */
(PID.TID 0000.0001) 
(PID.TID 0000.0001) // ======================================================
(PID.TID 0000.0001) // Mapping of tiles to threads
(PID.TID 0000.0001) // ======================================================
(PID.TID 0000.0001) // -o- Thread   1, tiles (   1:   1,   1:   1)
(PID.TID 0000.0001) 
(PID.TID 0000.0001) // ======================================================
(PID.TID 0000.0001) // Tile <-> Tile connectvity table
(PID.TID 0000.0001) // ======================================================
(PID.TID 0000.0001) // Tile number: 000001 (process no. = 000001)
(PID.TID 0000.0001) //        WEST: Tile = 000001, Process = 000001, Comm = put
(PID.TID 0000.0001) //                bi = 000001, bj = 000001
(PID.TID 0000.0001) //        EAST: Tile = 000001, Process = 000001, Comm = put
(PID.TID 0000.0001) //                bi = 000001, bj = 000001
(PID.TID 0000.0001) //       SOUTH: Tile = 000001, Process = 000001, Comm = put
(PID.TID 0000.0001) //                bi = 000001, bj = 000001
(PID.TID 0000.0001) //       NORTH: Tile = 000001, Process = 000001, Comm = put
(PID.TID 0000.0001) //                bi = 000001, bj = 000001
(PID.TID 0000.0001) 
(PID.TID 0000.0001) // =======================================================
(PID.TID 0000.0001) // Model parameter file "data"
(PID.TID 0000.0001) // =======================================================
(PID.TID 0000.0001) ># ====================
(PID.TID 0000.0001) ># | Model parameters |
(PID.TID 0000.0001) ># ====================
(PID.TID 0000.0001) >#
(PID.TID 0000.0001) ># Continuous equation parameters
(PID.TID 0000.0001) > &PARM01
(PID.TID 0000.0001) > tRef=29*20.0,
(PID.TID 0000.0001) > sRef=29*35.0,
(PID.TID 0000.0001) > viscAh=5.0E-6,
(PID.TID 0000.0001) > viscAz=5.0E-6,
(PID.TID 0000.0001) > no_slip_sides=.FALSE.,
(PID.TID 0000.0001) > no_slip_bottom=.FALSE.,
(PID.TID 0000.0001) > viscA4=0.E12,
(PID.TID 0000.0001) > diffKhT=2.5E-6,
(PID.TID 0000.0001) > diffKzT=2.5E-6,
(PID.TID 0000.0001) > diffKhS=1.0E-6,
(PID.TID 0000.0001) > diffKzS=1.0E-6,
(PID.TID 0000.0001) > f0=0.5,
(PID.TID 0000.0001) > beta=0.E-11,
(PID.TID 0000.0001) > tAlpha=2.0E-4,
(PID.TID 0000.0001) > sBeta =0.,
(PID.TID 0000.0001) > gravity=9.81,
(PID.TID 0000.0001) > rhoConst=1000.0,
(PID.TID 0000.0001) > rhoNil=1000.0,
(PID.TID 0000.0001) > heatCapacity_Cp=3900.0,
(PID.TID 0000.0001) > rigidLid=.TRUE.,
(PID.TID 0000.0001) > implicitFreeSurface=.FALSE.,
(PID.TID 0000.0001) > eosType='LINEAR',
(PID.TID 0000.0001) > nonHydrostatic=.TRUE.,
(PID.TID 0000.0001) > readBinaryPrec=32,
(PID.TID 0000.0001) > &
(PID.TID 0000.0001) >
(PID.TID 0000.0001) ># Elliptic solver parameters
(PID.TID 0000.0001) > &PARM02
(PID.TID 0000.0001) > cg2dMaxIters=1000,
(PID.TID 0000.0001) > cg2dTargetResidual=1.E-7,
(PID.TID 0000.0001) > cg3dMaxIters=10,
(PID.TID 0000.0001) > cg3dTargetResidual=1.E-9,
(PID.TID 0000.0001) > &
(PID.TID 0000.0001) >
(PID.TID 0000.0001) ># Time stepping parameters
(PID.TID 0000.0001) > &PARM03
(PID.TID 0000.0001) > nIter0=0,
(PID.TID 0000.0001) > nTimeSteps=20,
(PID.TID 0000.0001) ># nTimeSteps=36000000,
(PID.TID 0000.0001) > deltaT=0.1,
(PID.TID 0000.0001) > abEps=0.1,
(PID.TID 0000.0001) > pChkptFreq=1.0,
(PID.TID 0000.0001) > chkptFreq=1.0,
(PID.TID 0000.0001) > dumpFreq=1.0,
(PID.TID 0000.0001) > monitorFreq=0.1,
(PID.TID 0000.0001) > outputTypesInclusive=.TRUE.,
(PID.TID 0000.0001) > &
(PID.TID 0000.0001) >
(PID.TID 0000.0001) ># Gridding parameters
(PID.TID 0000.0001) > &PARM04
(PID.TID 0000.0001) > usingCartesianGrid=.FALSE.,
(PID.TID 0000.0001) > usingCylindricalGrid=.TRUE.,
(PID.TID 0000.0001) > usingCurvilinearGrid=.FALSE.,
(PID.TID 0000.0001) > dXspacing=3,
(PID.TID 0000.0001) > dYspacing=0.01,
(PID.TID 0000.0001) > delZ=29*0.005,
(PID.TID 0000.0001) > &
(PID.TID 0000.0001) >
(PID.TID 0000.0001) ># Input datasets
(PID.TID 0000.0001) > &PARM05
(PID.TID 0000.0001) > hydrogThetaFile='thetaPol.bin',
(PID.TID 0000.0001) > bathyFile='bathyPol.bin',
(PID.TID 0000.0001) > tCyl  = 0
(PID.TID 0000.0001) > &
(PID.TID 0000.0001) 
(PID.TID 0000.0001) S/R INI_PARMS ; starts to read PARM01
(PID.TID 0000.0001) S/R INI_PARMS ; read PARM01 : OK
(PID.TID 0000.0001) S/R INI_PARMS ; starts to read PARM02
(PID.TID 0000.0001) S/R INI_PARMS ; read PARM02 : OK
(PID.TID 0000.0001) S/R INI_PARMS ; starts to read PARM03
(PID.TID 0000.0001) S/R INI_PARMS ; read PARM03 : OK
(PID.TID 0000.0001) S/R INI_PARMS ; starts to read PARM04
(PID.TID 0000.0001) S/R INI_PARMS ; read PARM04 : OK
(PID.TID 0000.0001) S/R INI_PARMS ; Cylinder OK
(PID.TID 0000.0001) S/R INI_PARMS ; starts to read PARM05
(PID.TID 0000.0001) S/R INI_PARMS ; read PARM05 : OK
(PID.TID 0000.0001)  PACKAGES_BOOT: opening data.pkg
(PID.TID 0000.0001)  OPEN_COPY_DATA_FILE: opening file data.pkg
(PID.TID 0000.0001) // =======================================================
(PID.TID 0000.0001) // Parameter file "data.pkg"
(PID.TID 0000.0001) // =======================================================
(PID.TID 0000.0001) ># Packages
(PID.TID 0000.0001) > &PACKAGES
(PID.TID 0000.0001) > useMNC=.TRUE.,
(PID.TID 0000.0001) > &
(PID.TID 0000.0001) 
(PID.TID 0000.0001)  PACKAGES_BOOT: finished reading data.pkg
(PID.TID 0000.0001)  MNC_READPARMS: opening file 'data.mnc'
(PID.TID 0000.0001) // =======================================================
(PID.TID 0000.0001) // Parameter file "data.mnc"
(PID.TID 0000.0001) // =======================================================
(PID.TID 0000.0001) ># Example "data.mnc" file
(PID.TID 0000.0001) ># Lines beginning "#" are comments
(PID.TID 0000.0001) > &MNC_01
(PID.TID 0000.0001) ># mnc_echo_gvtypes=.FALSE.,
(PID.TID 0000.0001) ># mnc_use_indir=.FALSE.,
(PID.TID 0000.0001) > mnc_use_outdir=.TRUE.,
(PID.TID 0000.0001) > mnc_outdir_str='mnc_test_',
(PID.TID 0000.0001) > mnc_outdir_date=.TRUE.,
(PID.TID 0000.0001) ># monitor_mnc=.FALSE.,
(PID.TID 0000.0001) > snapshot_mnc=.TRUE.,
(PID.TID 0000.0001) > timeave_mnc=.TRUE.,
(PID.TID 0000.0001) >#pickup_write_mnc=.TRUE.,
(PID.TID 0000.0001) > &
(PID.TID 0000.0001) ># Note: Some systems use & as the
(PID.TID 0000.0001) ># namelist terminator. Other systems
(PID.TID 0000.0001) ># use a / character.
(PID.TID 0000.0001) 
(PID.TID 0000.0001)  MNC_READPARMS: finished reading data.mnc
(PID.TID 0000.0001) %MON XC_max                       =   3.5850000000000E+02
(PID.TID 0000.0001) %MON XC_min                       =   1.5000000000000E+00
(PID.TID 0000.0001) %MON XC_mean                      =   1.8000000000000E+02
(PID.TID 0000.0001) %MON XC_sd                        =   1.0391943995230E+02
(PID.TID 0000.0001) %MON XG_max                       =   3.5700000000000E+02
(PID.TID 0000.0001) %MON XG_min                       =   3.0000000000000E+00
(PID.TID 0000.0001) %MON XG_mean                      =   1.8000000000000E+02
(PID.TID 0000.0001) %MON XG_sd                        =   1.0305338422391E+02
(PID.TID 0000.0001) %MON DXC_max                      =   1.5969762655748E-02
(PID.TID 0000.0001) %MON DXC_min                      =   2.6179938779915E-04
(PID.TID 0000.0001) %MON DXC_mean                     =   8.1157810217737E-03
(PID.TID 0000.0001) %MON DXC_sd                       =   4.6832098206938E-03
(PID.TID 0000.0001) %MON DXF_max                      =   1.5969762655748E-02
(PID.TID 0000.0001) %MON DXF_min                      =   2.6179938779915E-04
(PID.TID 0000.0001) %MON DXF_mean                     =   8.1157810217737E-03
(PID.TID 0000.0001) %MON DXF_sd                       =   4.6832098206938E-03
(PID.TID 0000.0001) %MON DXG_max                      =   1.5707963267949E-02
(PID.TID 0000.0001) %MON DXG_min                      =   1.8165981760462E-19
(PID.TID 0000.0001) %MON DXG_mean                     =   7.8539816339745E-03
(PID.TID 0000.0001) %MON DXG_sd                       =   4.6832098206938E-03
(PID.TID 0000.0001) %MON DXV_max                      =   1.5707963267949E-02
(PID.TID 0000.0001) %MON DXV_min                      =   1.8165981760462E-19
(PID.TID 0000.0001) %MON DXV_mean                     =   7.8539816339745E-03
(PID.TID 0000.0001) %MON DXV_sd                       =   4.6832098206938E-03
(PID.TID 0000.0001) %MON YC_max                       =   3.0500000000000E-01
(PID.TID 0000.0001) %MON YC_min                       =   5.0000000000000E-03
(PID.TID 0000.0001) %MON YC_mean                      =   1.5500000000000E-01
(PID.TID 0000.0001) %MON YC_sd                        =   8.9442719099991E-02
(PID.TID 0000.0001) %MON YG_max                       =   3.0000000000000E-01
(PID.TID 0000.0001) %MON YG_min                       =   3.4694469519536E-18
(PID.TID 0000.0001) %MON YG_mean                      =   1.5000000000000E-01
(PID.TID 0000.0001) %MON YG_sd                        =   8.9442719099991E-02
(PID.TID 0000.0001) %MON DYC_max                      =   1.0000000000000E-02
(PID.TID 0000.0001) %MON DYC_min                      =   1.0000000000000E-02
(PID.TID 0000.0001) %MON DYC_mean                     =   1.0000000000000E-02
(PID.TID 0000.0001) %MON DYC_sd                       =   3.1398494915180E-16
(PID.TID 0000.0001) %MON DYF_max                      =   1.0000000000000E-02
(PID.TID 0000.0001) %MON DYF_min                      =   1.0000000000000E-02
(PID.TID 0000.0001) %MON DYF_mean                     =   1.0000000000000E-02
(PID.TID 0000.0001) %MON DYF_sd                       =   3.1398494915180E-16
(PID.TID 0000.0001) %MON DYG_max                      =   1.0000000000000E-02
(PID.TID 0000.0001) %MON DYG_min                      =   1.0000000000000E-02
(PID.TID 0000.0001) %MON DYG_mean                     =   1.0000000000000E-02
(PID.TID 0000.0001) %MON DYG_sd                       =   3.1398494915180E-16
(PID.TID 0000.0001) %MON DYU_max                      =   1.0000000000000E-02
(PID.TID 0000.0001) %MON DYU_min                      =   1.0000000000000E-02
(PID.TID 0000.0001) %MON DYU_mean                     =   1.0000000000000E-02
(PID.TID 0000.0001) %MON DYU_sd                       =   3.1398494915180E-16
(PID.TID 0000.0001) %MON RA_max                       =   1.5969762655748E-04
(PID.TID 0000.0001) %MON RA_min                       =   2.6179938779915E-06
(PID.TID 0000.0001) %MON RA_mean                      =   8.1157810217737E-05
(PID.TID 0000.0001) %MON RA_sd                        =   4.6832098206938E-05
(PID.TID 0000.0001) %MON RAW_max                      =   1.5969762655748E-04
(PID.TID 0000.0001) %MON RAW_min                      =   2.6179938779915E-06
(PID.TID 0000.0001) %MON RAW_mean                     =   8.1157810217737E-05
(PID.TID 0000.0001) %MON RAW_sd                       =   4.6832098206938E-05
(PID.TID 0000.0001) %MON RAS_max                      =   1.5707963267949E-04
(PID.TID 0000.0001) %MON RAS_min                      =   1.8165981760462E-21
(PID.TID 0000.0001) %MON RAS_mean                     =   7.8539816339742E-05
(PID.TID 0000.0001) %MON RAS_sd                       =   4.6832098206938E-05
(PID.TID 0000.0001) %MON RAZ_max                      =   1.5707963267949E-04
(PID.TID 0000.0001) %MON RAZ_min                      =   1.8165981760462E-21
(PID.TID 0000.0001) %MON RAZ_mean                     =   7.8539816339742E-05
(PID.TID 0000.0001) %MON RAZ_sd                       =   4.6832098206938E-05
(PID.TID 0000.0001)  MDSREADFIELD: opening global file: bathyPol.bin
(PID.TID 0000.0001) // =======================================================
(PID.TID 0000.0001) // Field Model R_low (ini_masks_etc) at iteration          1
(PID.TID 0000.0001) // CMIN =         -1.450000000000000E-01
(PID.TID 0000.0001) // CMAX =         -1.450000000000000E-01
(PID.TID 0000.0001) // CINT =          0.000000000000000E+00
(PID.TID 0000.0001) // SYMBOLS (CMIN->CMAX): -abcdefghijklmnopqrstuvwxyz+
(PID.TID 0000.0001) //                  0.0: .
(PID.TID 0000.0001) // RANGE I (Lo:Hi:Step):(  -2: 123:   1)
(PID.TID 0000.0001) // RANGE J (Lo:Hi:Step):(  34:  -2:  -1)
(PID.TID 0000.0001) // RANGE K (Lo:Hi:Step):(   1:   1:   1)
(PID.TID 0000.0001) // =======================================================
(PID.TID 0000.0001) // =======================================================
(PID.TID 0000.0001) // END OF FIELD                                          =
(PID.TID 0000.0001) // =======================================================
(PID.TID 0000.0001) 
(PID.TID 0000.0001) // =======================================================
(PID.TID 0000.0001) // Field Model Ro_surf (ini_masks_etc) at iteration          1
(PID.TID 0000.0001) // CMIN =          1.561251128379126E-17
(PID.TID 0000.0001) // CMAX =          1.561251128379126E-17
(PID.TID 0000.0001) // CINT =          0.000000000000000E+00
(PID.TID 0000.0001) // SYMBOLS (CMIN->CMAX): -abcdefghijklmnopqrstuvwxyz+
(PID.TID 0000.0001) //                  0.0: .
(PID.TID 0000.0001) // RANGE I (Lo:Hi:Step):(  -2: 123:   1)
(PID.TID 0000.0001) // RANGE J (Lo:Hi:Step):(  34:  -2:  -1)
(PID.TID 0000.0001) // RANGE K (Lo:Hi:Step):(   1:   1:   1)
(PID.TID 0000.0001) // =======================================================
(PID.TID 0000.0001) // =======================================================
(PID.TID 0000.0001) // END OF FIELD                                          =
(PID.TID 0000.0001) // =======================================================
(PID.TID 0000.0001) 
(PID.TID 0000.0001) // =======================================================
(PID.TID 0000.0001) // Field hFacC at iteration          1
(PID.TID 0000.0001) // CMIN =          1.000000000000000E+00
(PID.TID 0000.0001) // CMAX =          1.000000000000000E+00
(PID.TID 0000.0001) // CINT =          0.000000000000000E+00
(PID.TID 0000.0001) // SYMBOLS (CMIN->CMAX): -abcdefghijklmnopqrstuvwxyz+
(PID.TID 0000.0001) //                  0.0: .
(PID.TID 0000.0001) // RANGE I (Lo:Hi:Step):(  -2: 123:   1)
(PID.TID 0000.0001) // RANGE J (Lo:Hi:Step):(  34:  -2:  -1)
(PID.TID 0000.0001) // RANGE K (Lo:Hi:Step):(   1:   1:   1)
(PID.TID 0000.0001) // =======================================================
(PID.TID 0000.0001) // =======================================================
(PID.TID 0000.0001) // END OF FIELD                                          =
(PID.TID 0000.0001) // =======================================================
(PID.TID 0000.0001) 
(PID.TID 0000.0001) // =======================================================
(PID.TID 0000.0001) // Field hFacW at iteration          1
(PID.TID 0000.0001) // CMIN =          1.000000000000000E+00
(PID.TID 0000.0001) // CMAX =          1.000000000000000E+00
(PID.TID 0000.0001) // CINT =          0.000000000000000E+00
(PID.TID 0000.0001) // SYMBOLS (CMIN->CMAX): -abcdefghijklmnopqrstuvwxyz+
(PID.TID 0000.0001) //                  0.0: .
(PID.TID 0000.0001) // RANGE I (Lo:Hi:Step):(  -2: 123:   1)
(PID.TID 0000.0001) // RANGE J (Lo:Hi:Step):(  34:  -2:  -1)
(PID.TID 0000.0001) // RANGE K (Lo:Hi:Step):(   1:   1:   1)
(PID.TID 0000.0001) // =======================================================
(PID.TID 0000.0001) // =======================================================
(PID.TID 0000.0001) // END OF FIELD                                          =
(PID.TID 0000.0001) // =======================================================
(PID.TID 0000.0001) 
(PID.TID 0000.0001) // =======================================================
(PID.TID 0000.0001) // Field hFacS at iteration          1
(PID.TID 0000.0001) // CMIN =          1.000000000000000E+00
(PID.TID 0000.0001) // CMAX =          1.000000000000000E+00
(PID.TID 0000.0001) // CINT =          0.000000000000000E+00
(PID.TID 0000.0001) // SYMBOLS (CMIN->CMAX): -abcdefghijklmnopqrstuvwxyz+
(PID.TID 0000.0001) //                  0.0: .
(PID.TID 0000.0001) // RANGE I (Lo:Hi:Step):(  -2: 123:   1)
(PID.TID 0000.0001) // RANGE J (Lo:Hi:Step):(  34:  -2:  -1)
(PID.TID 0000.0001) // RANGE K (Lo:Hi:Step):(   1:   1:   1)
(PID.TID 0000.0001) // =======================================================
(PID.TID 0000.0001) // =======================================================
(PID.TID 0000.0001) // END OF FIELD                                          =
(PID.TID 0000.0001) // =======================================================
(PID.TID 0000.0001) 
(PID.TID 0000.0001) 
(PID.TID 0000.0001) // ===================================
(PID.TID 0000.0001) // GAD parameters :
(PID.TID 0000.0001) // ===================================
(PID.TID 0000.0001) tempAdvScheme =   /* Temp. Horiz.Advection scheme selector */
(PID.TID 0000.0001)                       2
(PID.TID 0000.0001)     ;
(PID.TID 0000.0001) tempVertAdvScheme =   /* Temp. Vert. Advection scheme selector */
(PID.TID 0000.0001)                       2
(PID.TID 0000.0001)     ;
(PID.TID 0000.0001) tempMultiDimAdvec =   /* use Muti-Dim Advec method for Temp */
(PID.TID 0000.0001)                   F
(PID.TID 0000.0001)     ;
(PID.TID 0000.0001) tempAdamsBashforth =   /* use Adams-Bashforth time-stepping for Temp */
(PID.TID 0000.0001)                   T
(PID.TID 0000.0001)     ;
(PID.TID 0000.0001) saltAdvScheme =   /* Salt. Horiz.advection scheme selector */
(PID.TID 0000.0001)                       2
(PID.TID 0000.0001)     ;
(PID.TID 0000.0001) saltVertAdvScheme =   /* Salt. Vert. Advection scheme selector */
(PID.TID 0000.0001)                       2
(PID.TID 0000.0001)     ;
(PID.TID 0000.0001) saltMultiDimAdvec =   /* use Muti-Dim Advec method for Salt */
(PID.TID 0000.0001)                   F
(PID.TID 0000.0001)     ;
(PID.TID 0000.0001) saltAdamsBashforth =   /* use Adams-Bashforth time-stepping for Salt */
(PID.TID 0000.0001)                   T
(PID.TID 0000.0001)     ;
(PID.TID 0000.0001) // ===================================
(PID.TID 0000.0001) %MON fCori_max                    =   5.0000000000000E-01
(PID.TID 0000.0001) %MON fCori_min                    =   5.0000000000000E-01
(PID.TID 0000.0001) %MON fCori_mean                   =   5.0000000000000E-01
(PID.TID 0000.0001) %MON fCori_sd                     =   0.0000000000000E+00
(PID.TID 0000.0001) %MON fCoriG_max                   =   5.0000000000000E-01
(PID.TID 0000.0001) %MON fCoriG_min                   =   5.0000000000000E-01
(PID.TID 0000.0001) %MON fCoriG_mean                  =   5.0000000000000E-01
(PID.TID 0000.0001) %MON fCoriG_sd                    =   0.0000000000000E+00
(PID.TID 0000.0001) %MON fCoriCos_max                 =   0.0000000000000E+00
(PID.TID 0000.0001) %MON fCoriCos_min                 =   0.0000000000000E+00
(PID.TID 0000.0001) %MON fCoriCos_mean                =   0.0000000000000E+00
(PID.TID 0000.0001) %MON fCoriCos_sd                  =   0.0000000000000E+00
(PID.TID 0000.0001) // CG2D normalisation factor =          0.3069372132817614229338687E+01
(PID.TID 0000.0001) 
(PID.TID 0000.0001) // CG3D normalisation factor =          0.3237049690004649704633266E+02
(PID.TID 0000.0001) 
(PID.TID 0000.0001) CONFIG_CHECK: OK
(PID.TID 0000.0001) // =======================================================
(PID.TID 0000.0001) // Model configuration
(PID.TID 0000.0001) // =======================================================
(PID.TID 0000.0001) //
(PID.TID 0000.0001) // "Physical" paramters ( PARM01 in namelist )
(PID.TID 0000.0001) //
(PID.TID 0000.0001) buoyancyRelation = OCEANIC
(PID.TID 0000.0001) fluidIsAir  =  /* fluid major constituent is Air */
(PID.TID 0000.0001)                   F
(PID.TID 0000.0001)     ;
(PID.TID 0000.0001) fluidIsWater=  /* fuild major constituent is Water */
(PID.TID 0000.0001)                   T
(PID.TID 0000.0001)     ;
(PID.TID 0000.0001) usingPCoords =  /* use p (or p*) vertical coordinate */
(PID.TID 0000.0001)                   F
(PID.TID 0000.0001)     ;
(PID.TID 0000.0001) usingZCoords =  /* use z (or z*) vertical coordinate */
(PID.TID 0000.0001)                   T
(PID.TID 0000.0001)     ;
(PID.TID 0000.0001) tRef =   /* Reference temperature profile ( oC or oK ) */
(PID.TID 0000.0001)    29 @  2.000000000000000E+01              /* K =  1: 29 */
(PID.TID 0000.0001)     ;
(PID.TID 0000.0001) sRef =   /* Reference salinity profile ( ppt ) */
(PID.TID 0000.0001)    29 @  3.500000000000000E+01              /* K =  1: 29 */
(PID.TID 0000.0001)     ;
(PID.TID 0000.0001) viscAh =   /* Lateral eddy viscosity ( m^2/s ) */
(PID.TID 0000.0001)                 5.000000000000000E-06
(PID.TID 0000.0001)     ;
(PID.TID 0000.0001) viscAhMax =   /* Maximum lateral eddy viscosity ( m^2/s ) */
(PID.TID 0000.0001)                 1.000000000000000E+21
(PID.TID 0000.0001)     ;
(PID.TID 0000.0001) viscAhGrid =   /* Grid dependent lateral eddy viscosity ( non-dim. ) */
(PID.TID 0000.0001)                 0.000000000000000E+00
(PID.TID 0000.0001)     ;
(PID.TID 0000.0001) viscC2leith =   /* Leith harmonic viscosity factor ( non-dom. ) */
(PID.TID 0000.0001)                 0.000000000000000E+00
(PID.TID 0000.0001)     ;
(PID.TID 0000.0001) viscA4 =   /* Lateral biharmonic viscosity ( m^4/s ) */
(PID.TID 0000.0001)                 0.000000000000000E+00
(PID.TID 0000.0001)     ;
(PID.TID 0000.0001) viscA4Max =   /* Maximum biharmonic viscosity ( m^2/s ) */
(PID.TID 0000.0001)                 1.000000000000000E+21
(PID.TID 0000.0001)     ;
(PID.TID 0000.0001) viscA4Grid =   /* Grid dependent biharmonic viscosity ( non-dim. ) */
(PID.TID 0000.0001)                 0.000000000000000E+00
(PID.TID 0000.0001)     ;
(PID.TID 0000.0001) viscC4leith =   /* Leith biharmonic viscosity factor ( non-dom. ) */
(PID.TID 0000.0001)                 0.000000000000000E+00
(PID.TID 0000.0001)     ;
(PID.TID 0000.0001) no_slip_sides =  /* Viscous BCs: No-slip sides */
(PID.TID 0000.0001)                   F
(PID.TID 0000.0001)     ;
(PID.TID 0000.0001) viscAr =   /* Vertical eddy viscosity ( units of r^2/s ) */
(PID.TID 0000.0001)                 5.000000000000000E-06
(PID.TID 0000.0001)     ;
(PID.TID 0000.0001) no_slip_bottom =  /* Viscous BCs: No-slip bottom */
(PID.TID 0000.0001)                   F
(PID.TID 0000.0001)     ;
(PID.TID 0000.0001) diffKhT =   /* Laplacian diffusion of heat laterally ( m^2/s ) */
(PID.TID 0000.0001)                 2.500000000000000E-06
(PID.TID 0000.0001)     ;
(PID.TID 0000.0001) diffK4T =   /* Bihaarmonic diffusion of heat laterally ( m^4/s ) */
(PID.TID 0000.0001)                 0.000000000000000E+00
(PID.TID 0000.0001)     ;
(PID.TID 0000.0001) diffKhS =   /* Laplacian diffusion of salt laterally ( m^2/s ) */
(PID.TID 0000.0001)                 1.000000000000000E-06
(PID.TID 0000.0001)     ;
(PID.TID 0000.0001) diffK4S =   /* Bihaarmonic diffusion of salt laterally ( m^4/s ) */
(PID.TID 0000.0001)                 0.000000000000000E+00
(PID.TID 0000.0001)     ;
(PID.TID 0000.0001) diffKrNrT = /* vertical profile of vertical diffusion of Temp ( m^2/s )*/
(PID.TID 0000.0001)    29 @  2.500000000000000E-06              /* K =  1: 29 */
(PID.TID 0000.0001)     ;
(PID.TID 0000.0001) diffKrNrS = /* vertical profile of vertical diffusion of Salt ( m^2/s )*/
(PID.TID 0000.0001)    29 @  1.000000000000000E-06              /* K =  1: 29 */
(PID.TID 0000.0001)     ;
(PID.TID 0000.0001) diffKrBL79surf =   /* Surface diffusion for Bryan and Lewis 1979 ( m^2/s ) */
(PID.TID 0000.0001)                 0.000000000000000E+00
(PID.TID 0000.0001)     ;
(PID.TID 0000.0001) diffKrBL79deep =   /* Deep diffusion for Bryan and Lewis 1979 ( m^2/s ) */
(PID.TID 0000.0001)                 0.000000000000000E+00
(PID.TID 0000.0001)     ;
(PID.TID 0000.0001) diffKrBL79scl =   /* Depth scale for Bryan and Lewis 1979 ( m ) */
(PID.TID 0000.0001)                 2.000000000000000E+02
(PID.TID 0000.0001)     ;
(PID.TID 0000.0001) diffKrBL79Ho =   /* Turning depth for Bryan and Lewis 1979 ( m ) */
(PID.TID 0000.0001)                -2.000000000000000E+03
(PID.TID 0000.0001)     ;
(PID.TID 0000.0001)  Equation of State : eosType = LINEAR
(PID.TID 0000.0001) tAlpha =   /* Linear EOS thermal expansion coefficient ( 1/degree ) */
(PID.TID 0000.0001)                 2.000000000000000E-04
(PID.TID 0000.0001)     ;
(PID.TID 0000.0001) sBeta =   /* Linear EOS haline contraction coefficient ( 1/ppt ) */
(PID.TID 0000.0001)                 0.000000000000000E+00
(PID.TID 0000.0001)     ;
(PID.TID 0000.0001) rhonil =   /* Reference density ( kg/m^3 ) */
(PID.TID 0000.0001)                 1.000000000000000E+03
(PID.TID 0000.0001)     ;
(PID.TID 0000.0001) rhoConst =   /* Reference density ( kg/m^3 ) */
(PID.TID 0000.0001)                 1.000000000000000E+03
(PID.TID 0000.0001)     ;
(PID.TID 0000.0001) rhoConstFresh =   /* Reference density ( kg/m^3 ) */
(PID.TID 0000.0001)                 1.000000000000000E+03
(PID.TID 0000.0001)     ;
(PID.TID 0000.0001) gravity =   /* Gravitational acceleration ( m/s^2 ) */
(PID.TID 0000.0001)                 9.810000000000000E+00
(PID.TID 0000.0001)     ;
(PID.TID 0000.0001) gBaro =   /* Barotropic gravity ( m/s^2 ) */
(PID.TID 0000.0001)                 9.810000000000000E+00
(PID.TID 0000.0001)     ;
(PID.TID 0000.0001) rotationPeriod =   /* Rotation Period ( s ) */
(PID.TID 0000.0001)                 8.640000000000000E+04
(PID.TID 0000.0001)     ;
(PID.TID 0000.0001) omega =   /* Angular velocity ( rad/s ) */
(PID.TID 0000.0001)                 7.272205216643040E-05
(PID.TID 0000.0001)     ;
(PID.TID 0000.0001) f0 =   /* Reference coriolis parameter ( 1/s ) */
(PID.TID 0000.0001)                 5.000000000000000E-01
(PID.TID 0000.0001)     ;
(PID.TID 0000.0001) beta =   /* Beta ( 1/(m.s) ) */
(PID.TID 0000.0001)                 0.000000000000000E+00
(PID.TID 0000.0001)     ;
(PID.TID 0000.0001) freeSurfFac =   /* Implicit free surface factor */
(PID.TID 0000.0001)                 0.000000000000000E+00
(PID.TID 0000.0001)     ;
(PID.TID 0000.0001) implicitFreeSurface =   /* Implicit free surface on/off flag */
(PID.TID 0000.0001)                   F
(PID.TID 0000.0001)     ;
(PID.TID 0000.0001) rigidLid =   /* Rigid lid on/off flag */
(PID.TID 0000.0001)                   T
(PID.TID 0000.0001)     ;
(PID.TID 0000.0001) implicSurfPress =   /* Surface Pressure implicit factor (0-1)*/
(PID.TID 0000.0001)                 1.000000000000000E+00
(PID.TID 0000.0001)     ;
(PID.TID 0000.0001) implicDiv2Dflow =   /* Barot. Flow Div. implicit factor (0-1)*/
(PID.TID 0000.0001)                 1.000000000000000E+00
(PID.TID 0000.0001)     ;
(PID.TID 0000.0001) exactConserv =   /* Exact Volume Conservation on/off flag*/
(PID.TID 0000.0001)                   F
(PID.TID 0000.0001)     ;
(PID.TID 0000.0001) uniformLin_PhiSurf =   /* use uniform Bo_surf on/off flag*/
(PID.TID 0000.0001)                   T
(PID.TID 0000.0001)     ;
(PID.TID 0000.0001) nonlinFreeSurf =   /* Non-linear Free Surf. options (-1,0,1,2,3)*/
(PID.TID 0000.0001)                       0
(PID.TID 0000.0001)     ;
(PID.TID 0000.0001)      -1,0= Off ; 1,2,3= On, 2=+rescale gU,gV, 3=+update cg2d solv.
(PID.TID 0000.0001) hFacInf =   /* lower threshold for hFac (nonlinFreeSurf only)*/
(PID.TID 0000.0001)                 2.000000000000000E-01
(PID.TID 0000.0001)     ;
(PID.TID 0000.0001) hFacSup =   /* upper threshold for hFac (nonlinFreeSurf only)*/
(PID.TID 0000.0001)                 2.000000000000000E+00
(PID.TID 0000.0001)     ;
(PID.TID 0000.0001) select_rStar =   /* r* Coordinate options (not yet implemented)*/
(PID.TID 0000.0001)                       0
(PID.TID 0000.0001)     ;
(PID.TID 0000.0001) useRealFreshWaterFlux =   /* Real Fresh Water Flux on/off flag*/
(PID.TID 0000.0001)                   F
(PID.TID 0000.0001)     ;
(PID.TID 0000.0001) convertFW2Salt = /* convert F.W. Flux to Salt Flux (-1=use local S)(ppt)*/
(PID.TID 0000.0001)                 3.500000000000000E+01
(PID.TID 0000.0001)     ;
(PID.TID 0000.0001) nonHydrostatic =  /* Non-Hydrostatic on/off flag */
(PID.TID 0000.0001)                   T
(PID.TID 0000.0001)     ;
(PID.TID 0000.0001) momStepping =  /* Momentum equation on/off flag */
(PID.TID 0000.0001)                   T
(PID.TID 0000.0001)     ;
(PID.TID 0000.0001) momAdvection =  /* Momentum advection on/off flag */
(PID.TID 0000.0001)                   T
(PID.TID 0000.0001)     ;
(PID.TID 0000.0001) momViscosity =  /* Momentum viscosity on/off flag */
(PID.TID 0000.0001)                   T
(PID.TID 0000.0001)     ;
(PID.TID 0000.0001) momImplVertAdv =/* Momentum implicit vert. advection on/off*/
(PID.TID 0000.0001)                   F
(PID.TID 0000.0001)     ;
(PID.TID 0000.0001) implicitViscosity = /* Implicit viscosity on/off flag */
(PID.TID 0000.0001)                   F
(PID.TID 0000.0001)     ;
(PID.TID 0000.0001) useCoriolis =  /* Coriolis on/off flag */
(PID.TID 0000.0001)                   T
(PID.TID 0000.0001)     ;
(PID.TID 0000.0001) useCDscheme =  /* CD scheme on/off flag */
(PID.TID 0000.0001)                   F
(PID.TID 0000.0001)     ;
(PID.TID 0000.0001) useJamartWetPoints= /* Coriolis WetPoints method flag */
(PID.TID 0000.0001)                   F
(PID.TID 0000.0001)     ;
(PID.TID 0000.0001) useJamartMomAdv= /* V.I. Non-linear terms Jamart flag */
(PID.TID 0000.0001)                   F
(PID.TID 0000.0001)     ;
(PID.TID 0000.0001) SadournyCoriolis= /* Sadourny Coriolis discr. flag */
(PID.TID 0000.0001)                   F
(PID.TID 0000.0001)     ;
(PID.TID 0000.0001) upwindVorticity= /* Upwind bias vorticity flag */
(PID.TID 0000.0001)                   F
(PID.TID 0000.0001)     ;
(PID.TID 0000.0001) useAbsVorticity= /* Work with f+zeta in Coriolis */
(PID.TID 0000.0001)                   F
(PID.TID 0000.0001)     ;
(PID.TID 0000.0001) highOrderVorticity= /* High order interp. of vort. flag */
(PID.TID 0000.0001)                   F
(PID.TID 0000.0001)     ;
(PID.TID 0000.0001) momForcing =  /* Momentum forcing on/off flag */
(PID.TID 0000.0001)                   T
(PID.TID 0000.0001)     ;
(PID.TID 0000.0001) momPressureForcing =  /* Momentum pressure term on/off flag */
(PID.TID 0000.0001)                   T
(PID.TID 0000.0001)     ;
(PID.TID 0000.0001) staggerTimeStep =   /* Stagger time stepping on/off flag */
(PID.TID 0000.0001)                   F
(PID.TID 0000.0001)     ;
(PID.TID 0000.0001) multiDimAdvection =   /* enable/disable Multi-Dim Advection */
(PID.TID 0000.0001)                   T
(PID.TID 0000.0001)     ;
(PID.TID 0000.0001) useMultiDimAdvec =   /* Multi-Dim Advection is/is-not used */
(PID.TID 0000.0001)                   F
(PID.TID 0000.0001)     ;
(PID.TID 0000.0001) implicitDiffusion =/* Implicit Diffusion on/off flag */
(PID.TID 0000.0001)                   F
(PID.TID 0000.0001)     ;
(PID.TID 0000.0001) tempStepping =  /* Temperature equation on/off flag */
(PID.TID 0000.0001)                   T
(PID.TID 0000.0001)     ;
(PID.TID 0000.0001) tempAdvection=  /* Temperature advection on/off flag */
(PID.TID 0000.0001)                   T
(PID.TID 0000.0001)     ;
(PID.TID 0000.0001) tempImplVertAdv =/* Temp. implicit vert. advection on/off */
(PID.TID 0000.0001)                   F
(PID.TID 0000.0001)     ;
(PID.TID 0000.0001) tempForcing  =  /* Temperature forcing on/off flag */
(PID.TID 0000.0001)                   T
(PID.TID 0000.0001)     ;
(PID.TID 0000.0001) saltStepping =  /* Salinity equation on/off flag */
(PID.TID 0000.0001)                   T
(PID.TID 0000.0001)     ;
(PID.TID 0000.0001) saltAdvection=  /* Salinity advection on/off flag */
(PID.TID 0000.0001)                   T
(PID.TID 0000.0001)     ;
(PID.TID 0000.0001) saltImplVertAdv =/* Sali. implicit vert. advection on/off */
(PID.TID 0000.0001)                   F
(PID.TID 0000.0001)     ;
(PID.TID 0000.0001) saltForcing  =  /* Salinity forcing on/off flag */
(PID.TID 0000.0001)                   T
(PID.TID 0000.0001)     ;
(PID.TID 0000.0001) //
(PID.TID 0000.0001) // Elliptic solver(s) paramters ( PARM02 in namelist )
(PID.TID 0000.0001) //
(PID.TID 0000.0001) cg2dMaxIters =   /* Upper limit on 2d con. grad iterations  */
(PID.TID 0000.0001)                    1000
(PID.TID 0000.0001)     ;
(PID.TID 0000.0001) cg2dChkResFreq =   /* 2d con. grad convergence test frequency */
(PID.TID 0000.0001)                       1
(PID.TID 0000.0001)     ;
(PID.TID 0000.0001) cg2dTargetResidual =   /* 2d con. grad target residual  */
(PID.TID 0000.0001)                 1.000000000000000E-07
(PID.TID 0000.0001)     ;
(PID.TID 0000.0001) cg2dTargetResWunit =   /* CG2d target residual [W units] */
(PID.TID 0000.0001)                -1.000000000000000E+00
(PID.TID 0000.0001)     ;
(PID.TID 0000.0001) cg2dPreCondFreq =   /* Freq. for updating cg2d preconditioner */
(PID.TID 0000.0001)                       1
(PID.TID 0000.0001)     ;
(PID.TID 0000.0001) //
(PID.TID 0000.0001) // Time stepping paramters ( PARM03 in namelist )
(PID.TID 0000.0001) //
(PID.TID 0000.0001) nIter0 =   /* Base timestep number  */
(PID.TID 0000.0001)                       0
(PID.TID 0000.0001)     ;
(PID.TID 0000.0001) nTimeSteps =   /* Number of timesteps */
(PID.TID 0000.0001)                      20
(PID.TID 0000.0001)     ;
(PID.TID 0000.0001) deltatTmom =   /* Momentum equation timestep ( s ) */
(PID.TID 0000.0001)                 1.000000000000000E-01
(PID.TID 0000.0001)     ;
(PID.TID 0000.0001) deltaTfreesurf =   /* FreeSurface equation timestep ( s ) */
(PID.TID 0000.0001)                 1.000000000000000E-01
(PID.TID 0000.0001)     ;
(PID.TID 0000.0001) deltatTtracer =   /* Tracer equation timestep ( s ) */
(PID.TID 0000.0001)                 1.000000000000000E-01
(PID.TID 0000.0001)     ;
(PID.TID 0000.0001) deltatTClock  =   /* Model clock timestep ( s ) */
(PID.TID 0000.0001)                 1.000000000000000E-01
(PID.TID 0000.0001)     ;
(PID.TID 0000.0001) cAdjFreq =   /* Convective adjustment interval ( s ) */
(PID.TID 0000.0001)                 0.000000000000000E+00
(PID.TID 0000.0001)     ;
(PID.TID 0000.0001) forcing_In_AB =   /* put T,S Forcing in Adams-Bash. stepping */
(PID.TID 0000.0001)                   T
(PID.TID 0000.0001)     ;
(PID.TID 0000.0001) abeps =   /* Adams-Bashforth stabilizing weight */
(PID.TID 0000.0001)                 1.000000000000000E-01
(PID.TID 0000.0001)     ;
(PID.TID 0000.0001) startTime =   /* Run start time ( s ). */
(PID.TID 0000.0001)                 0.000000000000000E+00
(PID.TID 0000.0001)     ;
(PID.TID 0000.0001) endTime =   /* Integration ending time ( s ). */
(PID.TID 0000.0001)                 2.000000000000000E+00
(PID.TID 0000.0001)     ;
(PID.TID 0000.0001) pChkPtFreq =   /* Permanent restart/checkpoint file interval ( s ). */
(PID.TID 0000.0001)                 1.000000000000000E+00
(PID.TID 0000.0001)     ;
(PID.TID 0000.0001) chkPtFreq =   /* Rolling restart/checkpoint file interval ( s ). */
(PID.TID 0000.0001)                 1.000000000000000E+00
(PID.TID 0000.0001)     ;
(PID.TID 0000.0001) pickup_write_mdsio =   /* Model IO flag. */
(PID.TID 0000.0001)                   T
(PID.TID 0000.0001)     ;
(PID.TID 0000.0001) pickup_read_mdsio =   /* Model IO flag. */
(PID.TID 0000.0001)                   T
(PID.TID 0000.0001)     ;
(PID.TID 0000.0001) pickup_write_immed =   /* Model IO flag. */
(PID.TID 0000.0001)                   F
(PID.TID 0000.0001)     ;
(PID.TID 0000.0001) dumpFreq =   /* Model state write out interval ( s ). */
(PID.TID 0000.0001)                 1.000000000000000E+00
(PID.TID 0000.0001)     ;
(PID.TID 0000.0001) snapshot_mdsio =   /* Model IO flag. */
(PID.TID 0000.0001)                   T
(PID.TID 0000.0001)     ;
(PID.TID 0000.0001) monitorFreq =   /* Monitor output interval ( s ). */
(PID.TID 0000.0001)                 1.000000000000000E-01
(PID.TID 0000.0001)     ;
(PID.TID 0000.0001) monitor_stdio =   /* Model IO flag. */
(PID.TID 0000.0001)                   T
(PID.TID 0000.0001)     ;
(PID.TID 0000.0001) externForcingPeriod =   /* forcing period (s) */
(PID.TID 0000.0001)                 0.000000000000000E+00
(PID.TID 0000.0001)     ;
(PID.TID 0000.0001) externForcingCycle =   /* period of the cyle (s). */
(PID.TID 0000.0001)                 0.000000000000000E+00
(PID.TID 0000.0001)     ;
(PID.TID 0000.0001) tauThetaClimRelax =   /* relaxation time scale (s) */
(PID.TID 0000.0001)                 0.000000000000000E+00
(PID.TID 0000.0001)     ;
(PID.TID 0000.0001) tauSaltClimRelax =   /* relaxation time scale (s) */
(PID.TID 0000.0001)                 0.000000000000000E+00
(PID.TID 0000.0001)     ;
(PID.TID 0000.0001) latBandClimRelax =   /* max. Lat. where relaxation */
(PID.TID 0000.0001)                 1.234567000000000E+05
(PID.TID 0000.0001)     ;
(PID.TID 0000.0001) //
(PID.TID 0000.0001) // Gridding paramters ( PARM04 in namelist )
(PID.TID 0000.0001) //
(PID.TID 0000.0001) usingCartesianGrid =   /* Cartesian coordinates flag ( True / False ) */
(PID.TID 0000.0001)                   F
(PID.TID 0000.0001)     ;
(PID.TID 0000.0001) usingSphericalPolarGrid =   /* Spherical coordinates flag ( True / False ) */
(PID.TID 0000.0001)                   F
(PID.TID 0000.0001)     ;
(PID.TID 0000.0001) usingCylindricalGrid =   /* Spherical coordinates flag ( True / False ) */
(PID.TID 0000.0001)                   T
(PID.TID 0000.0001)     ;
(PID.TID 0000.0001) groundAtK1 =   /* Lower Boundary (ground) at the surface(k=1) ( T / F ) */
(PID.TID 0000.0001)                   F
(PID.TID 0000.0001)     ;
(PID.TID 0000.0001) Ro_SeaLevel =   /* r(1) ( units of r ) */
(PID.TID 0000.0001)                 0.000000000000000E+00
(PID.TID 0000.0001)     ;
(PID.TID 0000.0001) rkFac =   /* minus Vertical index orientation  */
(PID.TID 0000.0001)                 1.000000000000000E+00
(PID.TID 0000.0001)     ;
(PID.TID 0000.0001) horiVertRatio =   /* Ratio on units : Horiz - Vertical */
(PID.TID 0000.0001)                 1.000000000000000E+00
(PID.TID 0000.0001)     ;
(PID.TID 0000.0001) drC =   /* C spacing ( units of r ) */
(PID.TID 0000.0001)                 2.500000000000000E-03,      /* K =  1 */
(PID.TID 0000.0001)    28 @  5.000000000000000E-03              /* K =  2: 29 */
(PID.TID 0000.0001)     ;
(PID.TID 0000.0001) drF =   /* W spacing ( units of r ) */
(PID.TID 0000.0001)    29 @  5.000000000000000E-03              /* K =  1: 29 */
(PID.TID 0000.0001)     ;
(PID.TID 0000.0001) delX =   /* U spacing ( m - cartesian, degrees - spherical ) */
(PID.TID 0000.0001)   120 @  3.000000000000000E+00              /* I =  1:120 */
(PID.TID 0000.0001)     ;
(PID.TID 0000.0001) delY =   /* V spacing ( m - cartesian, degrees - spherical ) */
(PID.TID 0000.0001)    31 @  1.000000000000000E-02              /* J =  1: 31 */
(PID.TID 0000.0001)     ;
(PID.TID 0000.0001) phiMin =    /* South edge (ignored - cartesian, degrees - spherical ) */
(PID.TID 0000.0001)                 0.000000000000000E+00
(PID.TID 0000.0001)     ;
(PID.TID 0000.0001) thetaMin =    /* West edge ( ignored - cartesian, degrees - spherical ) */
(PID.TID 0000.0001)                 0.000000000000000E+00
(PID.TID 0000.0001)     ;
(PID.TID 0000.0001) rSphere =    /* Radius ( ignored - cartesian, m - spherical ) */
(PID.TID 0000.0001)                 6.370000000000000E+06
(PID.TID 0000.0001)     ;
(PID.TID 0000.0001) xcoord =   /* P-point X coord ( m - cartesian, degrees - spherical ) */
(PID.TID 0000.0001)                 1.500000000000000E+00,      /* I =  1 */
(PID.TID 0000.0001)                 4.500000000000000E+00,      /* I =  2 */
(PID.TID 0000.0001)                 7.500000000000000E+00,      /* I =  3 */
(PID.TID 0000.0001)                 1.050000000000000E+01,      /* I =  4 */
(PID.TID 0000.0001)                 1.350000000000000E+01,      /* I =  5 */
(PID.TID 0000.0001)                 1.650000000000000E+01,      /* I =  6 */
(PID.TID 0000.0001)                 1.950000000000000E+01,      /* I =  7 */
(PID.TID 0000.0001)                 2.250000000000000E+01,      /* I =  8 */
(PID.TID 0000.0001)                 2.550000000000000E+01,      /* I =  9 */
(PID.TID 0000.0001)                 2.850000000000000E+01,      /* I = 10 */
(PID.TID 0000.0001)                 3.150000000000000E+01,      /* I = 11 */
(PID.TID 0000.0001)                 3.450000000000000E+01,      /* I = 12 */
(PID.TID 0000.0001)                 3.750000000000000E+01,      /* I = 13 */
(PID.TID 0000.0001)                 4.050000000000000E+01,      /* I = 14 */
(PID.TID 0000.0001)                 4.350000000000000E+01,      /* I = 15 */
(PID.TID 0000.0001)                 4.650000000000000E+01,      /* I = 16 */
(PID.TID 0000.0001)                 4.950000000000000E+01,      /* I = 17 */
(PID.TID 0000.0001)                 5.250000000000000E+01,      /* I = 18 */
(PID.TID 0000.0001)                 5.550000000000000E+01,      /* I = 19 */
(PID.TID 0000.0001)                 5.850000000000000E+01,      /* I = 20 */
(PID.TID 0000.0001)                 6.150000000000000E+01,      /* I = 21 */
(PID.TID 0000.0001)                 6.450000000000000E+01,      /* I = 22 */
(PID.TID 0000.0001)                 6.750000000000000E+01,      /* I = 23 */
(PID.TID 0000.0001)                 7.050000000000000E+01,      /* I = 24 */
(PID.TID 0000.0001)                 7.350000000000000E+01,      /* I = 25 */
(PID.TID 0000.0001)                 7.650000000000000E+01,      /* I = 26 */
(PID.TID 0000.0001)                 7.950000000000000E+01,      /* I = 27 */
(PID.TID 0000.0001)                 8.250000000000000E+01,      /* I = 28 */
(PID.TID 0000.0001)                 8.550000000000000E+01,      /* I = 29 */
(PID.TID 0000.0001)                 8.850000000000000E+01,      /* I = 30 */
(PID.TID 0000.0001)                 9.150000000000000E+01,      /* I = 31 */
(PID.TID 0000.0001)                 9.450000000000000E+01,      /* I = 32 */
(PID.TID 0000.0001)                 9.750000000000000E+01,      /* I = 33 */
(PID.TID 0000.0001)                 1.005000000000000E+02,      /* I = 34 */
(PID.TID 0000.0001)                 1.035000000000000E+02,      /* I = 35 */
(PID.TID 0000.0001)                 1.065000000000000E+02,      /* I = 36 */
(PID.TID 0000.0001)                 1.095000000000000E+02,      /* I = 37 */
(PID.TID 0000.0001)                 1.125000000000000E+02,      /* I = 38 */
(PID.TID 0000.0001)                 1.155000000000000E+02,      /* I = 39 */
(PID.TID 0000.0001)                 1.185000000000000E+02,      /* I = 40 */
(PID.TID 0000.0001)                 1.215000000000000E+02,      /* I = 41 */
(PID.TID 0000.0001)                 1.245000000000000E+02,      /* I = 42 */
(PID.TID 0000.0001)                 1.275000000000000E+02,      /* I = 43 */
(PID.TID 0000.0001)                 1.305000000000000E+02,      /* I = 44 */
(PID.TID 0000.0001)                 1.335000000000000E+02,      /* I = 45 */
(PID.TID 0000.0001)                 1.365000000000000E+02,      /* I = 46 */
(PID.TID 0000.0001)                 1.395000000000000E+02,      /* I = 47 */
(PID.TID 0000.0001)                 1.425000000000000E+02,      /* I = 48 */
(PID.TID 0000.0001)                 1.455000000000000E+02,      /* I = 49 */
(PID.TID 0000.0001)                 1.485000000000000E+02,      /* I = 50 */
(PID.TID 0000.0001)                 1.515000000000000E+02,      /* I = 51 */
(PID.TID 0000.0001)                 1.545000000000000E+02,      /* I = 52 */
(PID.TID 0000.0001)                 1.575000000000000E+02,      /* I = 53 */
(PID.TID 0000.0001)                 1.605000000000000E+02,      /* I = 54 */
(PID.TID 0000.0001)                 1.635000000000000E+02,      /* I = 55 */
(PID.TID 0000.0001)                 1.665000000000000E+02,      /* I = 56 */
(PID.TID 0000.0001)                 1.695000000000000E+02,      /* I = 57 */
(PID.TID 0000.0001)                 1.725000000000000E+02,      /* I = 58 */
(PID.TID 0000.0001)                 1.755000000000000E+02,      /* I = 59 */
(PID.TID 0000.0001)                 1.785000000000000E+02,      /* I = 60 */
(PID.TID 0000.0001)                 1.815000000000000E+02,      /* I = 61 */
(PID.TID 0000.0001)                 1.845000000000000E+02,      /* I = 62 */
(PID.TID 0000.0001)                 1.875000000000000E+02,      /* I = 63 */
(PID.TID 0000.0001)                 1.905000000000000E+02,      /* I = 64 */
(PID.TID 0000.0001)                 1.935000000000000E+02,      /* I = 65 */
(PID.TID 0000.0001)                 1.965000000000000E+02,      /* I = 66 */
(PID.TID 0000.0001)                 1.995000000000000E+02,      /* I = 67 */
(PID.TID 0000.0001)                 2.025000000000000E+02,      /* I = 68 */
(PID.TID 0000.0001)                 2.055000000000000E+02,      /* I = 69 */
(PID.TID 0000.0001)                 2.085000000000000E+02,      /* I = 70 */
(PID.TID 0000.0001)                 2.115000000000000E+02,      /* I = 71 */
(PID.TID 0000.0001)                 2.145000000000000E+02,      /* I = 72 */
(PID.TID 0000.0001)                 2.175000000000000E+02,      /* I = 73 */
(PID.TID 0000.0001)                 2.205000000000000E+02,      /* I = 74 */
(PID.TID 0000.0001)                 2.235000000000000E+02,      /* I = 75 */
(PID.TID 0000.0001)                 2.265000000000000E+02,      /* I = 76 */
(PID.TID 0000.0001)                 2.295000000000000E+02,      /* I = 77 */
(PID.TID 0000.0001)                 2.325000000000000E+02,      /* I = 78 */
(PID.TID 0000.0001)                 2.355000000000000E+02,      /* I = 79 */
(PID.TID 0000.0001)                 2.385000000000000E+02,      /* I = 80 */
(PID.TID 0000.0001)                 2.415000000000000E+02,      /* I = 81 */
(PID.TID 0000.0001)                 2.445000000000000E+02,      /* I = 82 */
(PID.TID 0000.0001)                 2.475000000000000E+02,      /* I = 83 */
(PID.TID 0000.0001)                 2.505000000000000E+02,      /* I = 84 */
(PID.TID 0000.0001)                 2.535000000000000E+02,      /* I = 85 */
(PID.TID 0000.0001)                 2.565000000000000E+02,      /* I = 86 */
(PID.TID 0000.0001)                 2.595000000000000E+02,      /* I = 87 */
(PID.TID 0000.0001)                 2.625000000000000E+02,      /* I = 88 */
(PID.TID 0000.0001)                 2.655000000000000E+02,      /* I = 89 */
(PID.TID 0000.0001)                 2.685000000000000E+02,      /* I = 90 */
(PID.TID 0000.0001)                 2.715000000000000E+02,      /* I = 91 */
(PID.TID 0000.0001)                 2.745000000000000E+02,      /* I = 92 */
(PID.TID 0000.0001)                 2.775000000000000E+02,      /* I = 93 */
(PID.TID 0000.0001)                 2.805000000000000E+02,      /* I = 94 */
(PID.TID 0000.0001)                 2.835000000000000E+02,      /* I = 95 */
(PID.TID 0000.0001)                 2.865000000000000E+02,      /* I = 96 */
(PID.TID 0000.0001)                 2.895000000000000E+02,      /* I = 97 */
(PID.TID 0000.0001)                 2.925000000000000E+02,      /* I = 98 */
(PID.TID 0000.0001)                 2.955000000000000E+02,      /* I = 99 */
(PID.TID 0000.0001)                 2.985000000000000E+02,      /* I =100 */
(PID.TID 0000.0001)                 3.015000000000000E+02,      /* I =101 */
(PID.TID 0000.0001)                 3.045000000000000E+02,      /* I =102 */
(PID.TID 0000.0001)                 3.075000000000000E+02,      /* I =103 */
(PID.TID 0000.0001)                 3.105000000000000E+02,      /* I =104 */
(PID.TID 0000.0001)                 3.135000000000000E+02,      /* I =105 */
(PID.TID 0000.0001)                 3.165000000000000E+02,      /* I =106 */
(PID.TID 0000.0001)                 3.195000000000000E+02,      /* I =107 */
(PID.TID 0000.0001)                 3.225000000000000E+02,      /* I =108 */
(PID.TID 0000.0001)                 3.255000000000000E+02,      /* I =109 */
(PID.TID 0000.0001)                 3.285000000000000E+02,      /* I =110 */
(PID.TID 0000.0001)                 3.315000000000000E+02,      /* I =111 */
(PID.TID 0000.0001)                 3.345000000000000E+02,      /* I =112 */
(PID.TID 0000.0001)                 3.375000000000000E+02,      /* I =113 */
(PID.TID 0000.0001)                 3.405000000000000E+02,      /* I =114 */
(PID.TID 0000.0001)                 3.435000000000000E+02,      /* I =115 */
(PID.TID 0000.0001)                 3.465000000000000E+02,      /* I =116 */
(PID.TID 0000.0001)                 3.495000000000000E+02,      /* I =117 */
(PID.TID 0000.0001)                 3.525000000000000E+02,      /* I =118 */
(PID.TID 0000.0001)                 3.555000000000000E+02,      /* I =119 */
(PID.TID 0000.0001)                 3.585000000000000E+02       /* I =120 */
(PID.TID 0000.0001)     ;
(PID.TID 0000.0001) ycoord =   /* P-point Y coord ( m - cartesian, degrees - spherical ) */
(PID.TID 0000.0001)                 5.000000000000004E-03,      /* J =  1 */
(PID.TID 0000.0001)                 1.500000000000000E-02,      /* J =  2 */
(PID.TID 0000.0001)                 2.500000000000000E-02,      /* J =  3 */
(PID.TID 0000.0001)                 3.500000000000000E-02,      /* J =  4 */
(PID.TID 0000.0001)                 4.500000000000001E-02,      /* J =  5 */
(PID.TID 0000.0001)                 5.500000000000001E-02,      /* J =  6 */
(PID.TID 0000.0001)                 6.500000000000000E-02,      /* J =  7 */
(PID.TID 0000.0001)                 7.500000000000001E-02,      /* J =  8 */
(PID.TID 0000.0001)                 8.499999999999999E-02,      /* J =  9 */
(PID.TID 0000.0001)                 9.500000000000000E-02,      /* J = 10 */
(PID.TID 0000.0001)                 1.050000000000000E-01,      /* J = 11 */
(PID.TID 0000.0001)                 1.150000000000000E-01,      /* J = 12 */
(PID.TID 0000.0001)                 1.250000000000000E-01,      /* J = 13 */
(PID.TID 0000.0001)                 1.350000000000000E-01,      /* J = 14 */
(PID.TID 0000.0001)                 1.450000000000000E-01,      /* J = 15 */
(PID.TID 0000.0001)                 1.550000000000000E-01,      /* J = 16 */
(PID.TID 0000.0001)                 1.650000000000000E-01,      /* J = 17 */
(PID.TID 0000.0001)                 1.750000000000000E-01,      /* J = 18 */
(PID.TID 0000.0001)                 1.850000000000000E-01,      /* J = 19 */
(PID.TID 0000.0001)                 1.950000000000000E-01,      /* J = 20 */
(PID.TID 0000.0001)                 2.050000000000000E-01,      /* J = 21 */
(PID.TID 0000.0001)                 2.150000000000001E-01,      /* J = 22 */
(PID.TID 0000.0001)                 2.250000000000001E-01,      /* J = 23 */
(PID.TID 0000.0001)                 2.350000000000001E-01,      /* J = 24 */
(PID.TID 0000.0001)                 2.450000000000001E-01,      /* J = 25 */
(PID.TID 0000.0001)                 2.550000000000001E-01,      /* J = 26 */
(PID.TID 0000.0001)                 2.650000000000001E-01,      /* J = 27 */
(PID.TID 0000.0001)                 2.750000000000001E-01,      /* J = 28 */
(PID.TID 0000.0001)                 2.850000000000001E-01,      /* J = 29 */
(PID.TID 0000.0001)                 2.950000000000001E-01,      /* J = 30 */
(PID.TID 0000.0001)                 3.050000000000001E-01       /* J = 31 */
(PID.TID 0000.0001)     ;
(PID.TID 0000.0001) rcoord =   /* P-point R coordinate (  units of r ) */
(PID.TID 0000.0001)                -2.500000000000000E-03,      /* K =  1 */
(PID.TID 0000.0001)                -7.500000000000000E-03,      /* K =  2 */
(PID.TID 0000.0001)                -1.250000000000000E-02,      /* K =  3 */
(PID.TID 0000.0001)                -1.750000000000000E-02,      /* K =  4 */
(PID.TID 0000.0001)                -2.250000000000000E-02,      /* K =  5 */
(PID.TID 0000.0001)                -2.750000000000000E-02,      /* K =  6 */
(PID.TID 0000.0001)                -3.250000000000000E-02,      /* K =  7 */
(PID.TID 0000.0001)                -3.750000000000000E-02,      /* K =  8 */
(PID.TID 0000.0001)                -4.250000000000000E-02,      /* K =  9 */
(PID.TID 0000.0001)                -4.749999999999999E-02,      /* K = 10 */
(PID.TID 0000.0001)                -5.249999999999999E-02,      /* K = 11 */
(PID.TID 0000.0001)                -5.749999999999999E-02,      /* K = 12 */
(PID.TID 0000.0001)                -6.249999999999999E-02,      /* K = 13 */
(PID.TID 0000.0001)                -6.749999999999999E-02,      /* K = 14 */
(PID.TID 0000.0001)                -7.250000000000000E-02,      /* K = 15 */
(PID.TID 0000.0001)                -7.750000000000000E-02,      /* K = 16 */
(PID.TID 0000.0001)                -8.250000000000000E-02,      /* K = 17 */
(PID.TID 0000.0001)                -8.750000000000001E-02,      /* K = 18 */
(PID.TID 0000.0001)                -9.250000000000001E-02,      /* K = 19 */
(PID.TID 0000.0001)                -9.750000000000002E-02,      /* K = 20 */
(PID.TID 0000.0001)                -1.025000000000000E-01,      /* K = 21 */
(PID.TID 0000.0001)                -1.075000000000000E-01,      /* K = 22 */
(PID.TID 0000.0001)                -1.125000000000000E-01,      /* K = 23 */
(PID.TID 0000.0001)                -1.175000000000000E-01,      /* K = 24 */
(PID.TID 0000.0001)                -1.225000000000000E-01,      /* K = 25 */
(PID.TID 0000.0001)                -1.275000000000000E-01,      /* K = 26 */
(PID.TID 0000.0001)                -1.325000000000000E-01,      /* K = 27 */
(PID.TID 0000.0001)                -1.375000000000000E-01,      /* K = 28 */
(PID.TID 0000.0001)                -1.425000000000000E-01       /* K = 29 */
(PID.TID 0000.0001)     ;
(PID.TID 0000.0001) rF =   /* W-Interf. R coordinate (  units of r ) */
(PID.TID 0000.0001)                 0.000000000000000E+00,      /* K =  1 */
(PID.TID 0000.0001)                -5.000000000000000E-03,      /* K =  2 */
(PID.TID 0000.0001)                -1.000000000000000E-02,      /* K =  3 */
(PID.TID 0000.0001)                -1.500000000000000E-02,      /* K =  4 */
(PID.TID 0000.0001)                -2.000000000000000E-02,      /* K =  5 */
(PID.TID 0000.0001)                -2.500000000000000E-02,      /* K =  6 */
(PID.TID 0000.0001)                -3.000000000000000E-02,      /* K =  7 */
(PID.TID 0000.0001)                -3.500000000000000E-02,      /* K =  8 */
(PID.TID 0000.0001)                -4.000000000000000E-02,      /* K =  9 */
(PID.TID 0000.0001)                -4.500000000000000E-02,      /* K = 10 */
(PID.TID 0000.0001)                -5.000000000000000E-02,      /* K = 11 */
(PID.TID 0000.0001)                -5.499999999999999E-02,      /* K = 12 */
(PID.TID 0000.0001)                -5.999999999999999E-02,      /* K = 13 */
(PID.TID 0000.0001)                -6.499999999999999E-02,      /* K = 14 */
(PID.TID 0000.0001)                -6.999999999999999E-02,      /* K = 15 */
(PID.TID 0000.0001)                -7.500000000000000E-02,      /* K = 16 */
(PID.TID 0000.0001)                -8.000000000000000E-02,      /* K = 17 */
(PID.TID 0000.0001)                -8.500000000000001E-02,      /* K = 18 */
(PID.TID 0000.0001)                -9.000000000000001E-02,      /* K = 19 */
(PID.TID 0000.0001)                -9.500000000000001E-02,      /* K = 20 */
(PID.TID 0000.0001)                -1.000000000000000E-01,      /* K = 21 */
(PID.TID 0000.0001)                -1.050000000000000E-01,      /* K = 22 */
(PID.TID 0000.0001)                -1.100000000000000E-01,      /* K = 23 */
(PID.TID 0000.0001)                -1.150000000000000E-01,      /* K = 24 */
(PID.TID 0000.0001)                -1.200000000000000E-01,      /* K = 25 */
(PID.TID 0000.0001)                -1.250000000000000E-01,      /* K = 26 */
(PID.TID 0000.0001)                -1.300000000000000E-01,      /* K = 27 */
(PID.TID 0000.0001)                -1.350000000000000E-01,      /* K = 28 */
(PID.TID 0000.0001)                -1.400000000000000E-01,      /* K = 29 */
(PID.TID 0000.0001)                -1.450000000000000E-01       /* K = 30 */
(PID.TID 0000.0001)     ;
(PID.TID 0000.0001) dxF =  /* dxF(:,1,:,1) ( m - cartesian, degrees - spherical ) */
(PID.TID 0000.0001)   120 @  2.617993877991496E-04              /* I =  1:120 */
(PID.TID 0000.0001)     ;
(PID.TID 0000.0001) dxF =  /* dxF(1,:,1,:) ( m - cartesian, degrees - spherical ) */
(PID.TID 0000.0001)                 2.617993877991496E-04,      /* J =  1 */
(PID.TID 0000.0001)                 7.853981633974484E-04,      /* J =  2 */
(PID.TID 0000.0001)                 1.308996938995747E-03,      /* J =  3 */
(PID.TID 0000.0001)                 1.832595714594046E-03,      /* J =  4 */
(PID.TID 0000.0001)                 2.356194490192346E-03,      /* J =  5 */
(PID.TID 0000.0001)                 2.879793265790644E-03,      /* J =  6 */
(PID.TID 0000.0001)                 3.403392041388943E-03,      /* J =  7 */
(PID.TID 0000.0001)                 3.926990816987242E-03,      /* J =  8 */
(PID.TID 0000.0001)                 4.450589592585540E-03,      /* J =  9 */
(PID.TID 0000.0001)                 4.974188368183839E-03,      /* J = 10 */
(PID.TID 0000.0001)                 5.497787143782137E-03,      /* J = 11 */
(PID.TID 0000.0001)                 6.021385919380436E-03,      /* J = 12 */
(PID.TID 0000.0001)                 6.544984694978735E-03,      /* J = 13 */
(PID.TID 0000.0001)                 7.068583470577034E-03,      /* J = 14 */
(PID.TID 0000.0001)                 7.592182246175333E-03,      /* J = 15 */
(PID.TID 0000.0001)                 8.115781021773632E-03,      /* J = 16 */
(PID.TID 0000.0001)                 8.639379797371931E-03,      /* J = 17 */
(PID.TID 0000.0001)                 9.162978572970231E-03,      /* J = 18 */
(PID.TID 0000.0001)                 9.686577348568530E-03,      /* J = 19 */
(PID.TID 0000.0001)                 1.021017612416683E-02,      /* J = 20 */
(PID.TID 0000.0001)                 1.073377489976513E-02,      /* J = 21 */
(PID.TID 0000.0001)                 1.125737367536343E-02,      /* J = 22 */
(PID.TID 0000.0001)                 1.178097245096173E-02,      /* J = 23 */
(PID.TID 0000.0001)                 1.230457122656003E-02,      /* J = 24 */
(PID.TID 0000.0001)                 1.282817000215833E-02,      /* J = 25 */
(PID.TID 0000.0001)                 1.335176877775662E-02,      /* J = 26 */
(PID.TID 0000.0001)                 1.387536755335492E-02,      /* J = 27 */
(PID.TID 0000.0001)                 1.439896632895322E-02,      /* J = 28 */
(PID.TID 0000.0001)                 1.492256510455152E-02,      /* J = 29 */
(PID.TID 0000.0001)                 1.544616388014982E-02,      /* J = 30 */
(PID.TID 0000.0001)                 1.596976265574812E-02       /* J = 31 */
(PID.TID 0000.0001)     ;
(PID.TID 0000.0001) dyF =  /* dyF(:,1,:,1) ( m - cartesian, degrees - spherical ) */
(PID.TID 0000.0001)   120 @  1.000000000000000E-02              /* I =  1:120 */
(PID.TID 0000.0001)     ;
(PID.TID 0000.0001) dyF =  /* dyF(1,:,1,:) ( m - cartesian, degrees - spherical ) */
(PID.TID 0000.0001)    31 @  1.000000000000000E-02              /* J =  1: 31 */
(PID.TID 0000.0001)     ;
(PID.TID 0000.0001) dxG =  /* dxG(:,1,:,1) ( m - cartesian, degrees - spherical ) */
(PID.TID 0000.0001)   120 @  1.816598176046163E-19              /* I =  1:120 */
(PID.TID 0000.0001)     ;
(PID.TID 0000.0001) dxG =  /* dxG(1,:,1,:) ( m - cartesian, degrees - spherical ) */
(PID.TID 0000.0001)                 1.816598176046163E-19,      /* J =  1 */
(PID.TID 0000.0001)                 5.235987755982990E-04,      /* J =  2 */
(PID.TID 0000.0001)                 1.047197551196598E-03,      /* J =  3 */
(PID.TID 0000.0001)                 1.570796326794897E-03,      /* J =  4 */
(PID.TID 0000.0001)                 2.094395102393196E-03,      /* J =  5 */
(PID.TID 0000.0001)                 2.617993877991495E-03,      /* J =  6 */
(PID.TID 0000.0001)                 3.141592653589794E-03,      /* J =  7 */
(PID.TID 0000.0001)                 3.665191429188093E-03,      /* J =  8 */
(PID.TID 0000.0001)                 4.188790204786391E-03,      /* J =  9 */
(PID.TID 0000.0001)                 4.712388980384690E-03,      /* J = 10 */
(PID.TID 0000.0001)                 5.235987755982988E-03,      /* J = 11 */
(PID.TID 0000.0001)                 5.759586531581287E-03,      /* J = 12 */
(PID.TID 0000.0001)                 6.283185307179586E-03,      /* J = 13 */
(PID.TID 0000.0001)                 6.806784082777884E-03,      /* J = 14 */
(PID.TID 0000.0001)                 7.330382858376183E-03,      /* J = 15 */
(PID.TID 0000.0001)                 7.853981633974483E-03,      /* J = 16 */
(PID.TID 0000.0001)                 8.377580409572783E-03,      /* J = 17 */
(PID.TID 0000.0001)                 8.901179185171082E-03,      /* J = 18 */
(PID.TID 0000.0001)                 9.424777960769381E-03,      /* J = 19 */
(PID.TID 0000.0001)                 9.948376736367680E-03,      /* J = 20 */
(PID.TID 0000.0001)                 1.047197551196598E-02,      /* J = 21 */
(PID.TID 0000.0001)                 1.099557428756428E-02,      /* J = 22 */
(PID.TID 0000.0001)                 1.151917306316258E-02,      /* J = 23 */
(PID.TID 0000.0001)                 1.204277183876088E-02,      /* J = 24 */
(PID.TID 0000.0001)                 1.256637061435918E-02,      /* J = 25 */
(PID.TID 0000.0001)                 1.308996938995747E-02,      /* J = 26 */
(PID.TID 0000.0001)                 1.361356816555577E-02,      /* J = 27 */
(PID.TID 0000.0001)                 1.413716694115407E-02,      /* J = 28 */
(PID.TID 0000.0001)                 1.466076571675237E-02,      /* J = 29 */
(PID.TID 0000.0001)                 1.518436449235067E-02,      /* J = 30 */
(PID.TID 0000.0001)                 1.570796326794897E-02       /* J = 31 */
(PID.TID 0000.0001)     ;
(PID.TID 0000.0001) dyG =  /* dyG(:,1,:,1) ( m - cartesian, degrees - spherical ) */
(PID.TID 0000.0001)   120 @  1.000000000000000E-02              /* I =  1:120 */
(PID.TID 0000.0001)     ;
(PID.TID 0000.0001) dyG =  /* dyG(1,:,1,:) ( m - cartesian, degrees - spherical ) */
(PID.TID 0000.0001)    31 @  1.000000000000000E-02              /* J =  1: 31 */
(PID.TID 0000.0001)     ;
(PID.TID 0000.0001) dxC =  /* dxC(:,1,:,1) ( m - cartesian, degrees - spherical ) */
(PID.TID 0000.0001)   120 @  2.617993877991496E-04              /* I =  1:120 */
(PID.TID 0000.0001)     ;
(PID.TID 0000.0001) dxC =  /* dxC(1,:,1,:) ( m - cartesian, degrees - spherical ) */
(PID.TID 0000.0001)                 2.617993877991496E-04,      /* J =  1 */
(PID.TID 0000.0001)                 7.853981633974484E-04,      /* J =  2 */
(PID.TID 0000.0001)                 1.308996938995747E-03,      /* J =  3 */
(PID.TID 0000.0001)                 1.832595714594046E-03,      /* J =  4 */
(PID.TID 0000.0001)                 2.356194490192346E-03,      /* J =  5 */
(PID.TID 0000.0001)                 2.879793265790644E-03,      /* J =  6 */
(PID.TID 0000.0001)                 3.403392041388943E-03,      /* J =  7 */
(PID.TID 0000.0001)                 3.926990816987242E-03,      /* J =  8 */
(PID.TID 0000.0001)                 4.450589592585540E-03,      /* J =  9 */
(PID.TID 0000.0001)                 4.974188368183839E-03,      /* J = 10 */
(PID.TID 0000.0001)                 5.497787143782137E-03,      /* J = 11 */
(PID.TID 0000.0001)                 6.021385919380436E-03,      /* J = 12 */
(PID.TID 0000.0001)                 6.544984694978735E-03,      /* J = 13 */
(PID.TID 0000.0001)                 7.068583470577034E-03,      /* J = 14 */
(PID.TID 0000.0001)                 7.592182246175333E-03,      /* J = 15 */
(PID.TID 0000.0001)                 8.115781021773632E-03,      /* J = 16 */
(PID.TID 0000.0001)                 8.639379797371931E-03,      /* J = 17 */
(PID.TID 0000.0001)                 9.162978572970231E-03,      /* J = 18 */
(PID.TID 0000.0001)                 9.686577348568530E-03,      /* J = 19 */
(PID.TID 0000.0001)                 1.021017612416683E-02,      /* J = 20 */
(PID.TID 0000.0001)                 1.073377489976513E-02,      /* J = 21 */
(PID.TID 0000.0001)                 1.125737367536343E-02,      /* J = 22 */
(PID.TID 0000.0001)                 1.178097245096173E-02,      /* J = 23 */
(PID.TID 0000.0001)                 1.230457122656003E-02,      /* J = 24 */
(PID.TID 0000.0001)                 1.282817000215833E-02,      /* J = 25 */
(PID.TID 0000.0001)                 1.335176877775662E-02,      /* J = 26 */
(PID.TID 0000.0001)                 1.387536755335492E-02,      /* J = 27 */
(PID.TID 0000.0001)                 1.439896632895322E-02,      /* J = 28 */
(PID.TID 0000.0001)                 1.492256510455152E-02,      /* J = 29 */
(PID.TID 0000.0001)                 1.544616388014982E-02,      /* J = 30 */
(PID.TID 0000.0001)                 1.596976265574812E-02       /* J = 31 */
(PID.TID 0000.0001)     ;
(PID.TID 0000.0001) dyC =  /* dyC(:,1,:,1) ( m - cartesian, degrees - spherical ) */
(PID.TID 0000.0001)   120 @  1.000000000000000E-02              /* I =  1:120 */
(PID.TID 0000.0001)     ;
(PID.TID 0000.0001) dyC =  /* dyC(1,:,1,:) ( m - cartesian, degrees - spherical ) */
(PID.TID 0000.0001)    31 @  1.000000000000000E-02              /* J =  1: 31 */
(PID.TID 0000.0001)     ;
(PID.TID 0000.0001) dxV =  /* dxV(:,1,:,1) ( m - cartesian, degrees - spherical ) */
(PID.TID 0000.0001)   120 @  1.816598176046163E-19              /* I =  1:120 */
(PID.TID 0000.0001)     ;
(PID.TID 0000.0001) dxV =  /* dxV(1,:,1,:) ( m - cartesian, degrees - spherical ) */
(PID.TID 0000.0001)                 1.816598176046163E-19,      /* J =  1 */
(PID.TID 0000.0001)                 5.235987755982990E-04,      /* J =  2 */
(PID.TID 0000.0001)                 1.047197551196598E-03,      /* J =  3 */
(PID.TID 0000.0001)                 1.570796326794897E-03,      /* J =  4 */
(PID.TID 0000.0001)                 2.094395102393196E-03,      /* J =  5 */
(PID.TID 0000.0001)                 2.617993877991495E-03,      /* J =  6 */
(PID.TID 0000.0001)                 3.141592653589794E-03,      /* J =  7 */
(PID.TID 0000.0001)                 3.665191429188093E-03,      /* J =  8 */
(PID.TID 0000.0001)                 4.188790204786391E-03,      /* J =  9 */
(PID.TID 0000.0001)                 4.712388980384690E-03,      /* J = 10 */
(PID.TID 0000.0001)                 5.235987755982988E-03,      /* J = 11 */
(PID.TID 0000.0001)                 5.759586531581287E-03,      /* J = 12 */
(PID.TID 0000.0001)                 6.283185307179586E-03,      /* J = 13 */
(PID.TID 0000.0001)                 6.806784082777884E-03,      /* J = 14 */
(PID.TID 0000.0001)                 7.330382858376183E-03,      /* J = 15 */
(PID.TID 0000.0001)                 7.853981633974483E-03,      /* J = 16 */
(PID.TID 0000.0001)                 8.377580409572783E-03,      /* J = 17 */
(PID.TID 0000.0001)                 8.901179185171082E-03,      /* J = 18 */
(PID.TID 0000.0001)                 9.424777960769381E-03,      /* J = 19 */
(PID.TID 0000.0001)                 9.948376736367680E-03,      /* J = 20 */
(PID.TID 0000.0001)                 1.047197551196598E-02,      /* J = 21 */
(PID.TID 0000.0001)                 1.099557428756428E-02,      /* J = 22 */
(PID.TID 0000.0001)                 1.151917306316258E-02,      /* J = 23 */
(PID.TID 0000.0001)                 1.204277183876088E-02,      /* J = 24 */
(PID.TID 0000.0001)                 1.256637061435918E-02,      /* J = 25 */
(PID.TID 0000.0001)                 1.308996938995747E-02,      /* J = 26 */
(PID.TID 0000.0001)                 1.361356816555577E-02,      /* J = 27 */
(PID.TID 0000.0001)                 1.413716694115407E-02,      /* J = 28 */
(PID.TID 0000.0001)                 1.466076571675237E-02,      /* J = 29 */
(PID.TID 0000.0001)                 1.518436449235067E-02,      /* J = 30 */
(PID.TID 0000.0001)                 1.570796326794897E-02       /* J = 31 */
(PID.TID 0000.0001)     ;
(PID.TID 0000.0001) dyU =  /* dyU(:,1,:,1) ( m - cartesian, degrees - spherical ) */
(PID.TID 0000.0001)   120 @  1.000000000000000E-02              /* I =  1:120 */
(PID.TID 0000.0001)     ;
(PID.TID 0000.0001) dyU =  /* dyU(1,:,1,:) ( m - cartesian, degrees - spherical ) */
(PID.TID 0000.0001)    31 @  1.000000000000000E-02              /* J =  1: 31 */
(PID.TID 0000.0001)     ;
(PID.TID 0000.0001) rA =  /* rA(:,1,:,1) ( m - cartesian, degrees - spherical ) */
(PID.TID 0000.0001)   120 @  2.617993877991496E-06              /* I =  1:120 */
(PID.TID 0000.0001)     ;
(PID.TID 0000.0001) rA =  /* rA(1,:,1,:) ( m - cartesian, degrees - spherical ) */
(PID.TID 0000.0001)                 2.617993877991496E-06,      /* J =  1 */
(PID.TID 0000.0001)                 7.853981633974484E-06,      /* J =  2 */
(PID.TID 0000.0001)                 1.308996938995748E-05,      /* J =  3 */
(PID.TID 0000.0001)                 1.832595714594046E-05,      /* J =  4 */
(PID.TID 0000.0001)                 2.356194490192346E-05,      /* J =  5 */
(PID.TID 0000.0001)                 2.879793265790644E-05,      /* J =  6 */
(PID.TID 0000.0001)                 3.403392041388943E-05,      /* J =  7 */
(PID.TID 0000.0001)                 3.926990816987242E-05,      /* J =  8 */
(PID.TID 0000.0001)                 4.450589592585540E-05,      /* J =  9 */
(PID.TID 0000.0001)                 4.974188368183839E-05,      /* J = 10 */
(PID.TID 0000.0001)                 5.497787143782137E-05,      /* J = 11 */
(PID.TID 0000.0001)                 6.021385919380436E-05,      /* J = 12 */
(PID.TID 0000.0001)                 6.544984694978735E-05,      /* J = 13 */
(PID.TID 0000.0001)                 7.068583470577034E-05,      /* J = 14 */
(PID.TID 0000.0001)                 7.592182246175333E-05,      /* J = 15 */
(PID.TID 0000.0001)                 8.115781021773632E-05,      /* J = 16 */
(PID.TID 0000.0001)                 8.639379797371931E-05,      /* J = 17 */
(PID.TID 0000.0001)                 9.162978572970230E-05,      /* J = 18 */
(PID.TID 0000.0001)                 9.686577348568531E-05,      /* J = 19 */
(PID.TID 0000.0001)                 1.021017612416683E-04,      /* J = 20 */
(PID.TID 0000.0001)                 1.073377489976513E-04,      /* J = 21 */
(PID.TID 0000.0001)                 1.125737367536343E-04,      /* J = 22 */
(PID.TID 0000.0001)                 1.178097245096173E-04,      /* J = 23 */
(PID.TID 0000.0001)                 1.230457122656003E-04,      /* J = 24 */
(PID.TID 0000.0001)                 1.282817000215833E-04,      /* J = 25 */
(PID.TID 0000.0001)                 1.335176877775663E-04,      /* J = 26 */
(PID.TID 0000.0001)                 1.387536755335492E-04,      /* J = 27 */
(PID.TID 0000.0001)                 1.439896632895322E-04,      /* J = 28 */
(PID.TID 0000.0001)                 1.492256510455152E-04,      /* J = 29 */
(PID.TID 0000.0001)                 1.544616388014982E-04,      /* J = 30 */
(PID.TID 0000.0001)                 1.596976265574812E-04       /* J = 31 */
(PID.TID 0000.0001)     ;
(PID.TID 0000.0001) rAw =  /* rAw(:,1,:,1) ( m - cartesian, degrees - spherical ) */
(PID.TID 0000.0001)   120 @  2.617993877991496E-06              /* I =  1:120 */
(PID.TID 0000.0001)     ;
(PID.TID 0000.0001) rAw =  /* rAw(1,:,1,:) ( m - cartesian, degrees - spherical ) */
(PID.TID 0000.0001)                 2.617993877991496E-06,      /* J =  1 */
(PID.TID 0000.0001)                 7.853981633974484E-06,      /* J =  2 */
(PID.TID 0000.0001)                 1.308996938995748E-05,      /* J =  3 */
(PID.TID 0000.0001)                 1.832595714594046E-05,      /* J =  4 */
(PID.TID 0000.0001)                 2.356194490192346E-05,      /* J =  5 */
(PID.TID 0000.0001)                 2.879793265790644E-05,      /* J =  6 */
(PID.TID 0000.0001)                 3.403392041388943E-05,      /* J =  7 */
(PID.TID 0000.0001)                 3.926990816987242E-05,      /* J =  8 */
(PID.TID 0000.0001)                 4.450589592585540E-05,      /* J =  9 */
(PID.TID 0000.0001)                 4.974188368183839E-05,      /* J = 10 */
(PID.TID 0000.0001)                 5.497787143782137E-05,      /* J = 11 */
(PID.TID 0000.0001)                 6.021385919380436E-05,      /* J = 12 */
(PID.TID 0000.0001)                 6.544984694978735E-05,      /* J = 13 */
(PID.TID 0000.0001)                 7.068583470577034E-05,      /* J = 14 */
(PID.TID 0000.0001)                 7.592182246175333E-05,      /* J = 15 */
(PID.TID 0000.0001)                 8.115781021773632E-05,      /* J = 16 */
(PID.TID 0000.0001)                 8.639379797371931E-05,      /* J = 17 */
(PID.TID 0000.0001)                 9.162978572970230E-05,      /* J = 18 */
(PID.TID 0000.0001)                 9.686577348568531E-05,      /* J = 19 */
(PID.TID 0000.0001)                 1.021017612416683E-04,      /* J = 20 */
(PID.TID 0000.0001)                 1.073377489976513E-04,      /* J = 21 */
(PID.TID 0000.0001)                 1.125737367536343E-04,      /* J = 22 */
(PID.TID 0000.0001)                 1.178097245096173E-04,      /* J = 23 */
(PID.TID 0000.0001)                 1.230457122656003E-04,      /* J = 24 */
(PID.TID 0000.0001)                 1.282817000215833E-04,      /* J = 25 */
(PID.TID 0000.0001)                 1.335176877775663E-04,      /* J = 26 */
(PID.TID 0000.0001)                 1.387536755335492E-04,      /* J = 27 */
(PID.TID 0000.0001)                 1.439896632895322E-04,      /* J = 28 */
(PID.TID 0000.0001)                 1.492256510455152E-04,      /* J = 29 */
(PID.TID 0000.0001)                 1.544616388014982E-04,      /* J = 30 */
(PID.TID 0000.0001)                 1.596976265574812E-04       /* J = 31 */
(PID.TID 0000.0001)     ;
(PID.TID 0000.0001) rAs =  /* rAs(:,1,:,1) ( m - cartesian, degrees - spherical ) */
(PID.TID 0000.0001)   120 @  1.816598176046163E-21              /* I =  1:120 */
(PID.TID 0000.0001)     ;
(PID.TID 0000.0001) rAs =  /* rAs(1,:,1,:) ( m - cartesian, degrees - spherical ) */
(PID.TID 0000.0001)                 1.816598176046163E-21,      /* J =  1 */
(PID.TID 0000.0001)                 5.235987755982990E-06,      /* J =  2 */
(PID.TID 0000.0001)                 1.047197551196598E-05,      /* J =  3 */
(PID.TID 0000.0001)                 1.570796326794897E-05,      /* J =  4 */
(PID.TID 0000.0001)                 2.094395102393196E-05,      /* J =  5 */
(PID.TID 0000.0001)                 2.617993877991495E-05,      /* J =  6 */
(PID.TID 0000.0001)                 3.141592653589793E-05,      /* J =  7 */
(PID.TID 0000.0001)                 3.665191429188093E-05,      /* J =  8 */
(PID.TID 0000.0001)                 4.188790204786392E-05,      /* J =  9 */
(PID.TID 0000.0001)                 4.712388980384690E-05,      /* J = 10 */
(PID.TID 0000.0001)                 5.235987755982988E-05,      /* J = 11 */
(PID.TID 0000.0001)                 5.759586531581287E-05,      /* J = 12 */
(PID.TID 0000.0001)                 6.283185307179586E-05,      /* J = 13 */
(PID.TID 0000.0001)                 6.806784082777885E-05,      /* J = 14 */
(PID.TID 0000.0001)                 7.330382858376184E-05,      /* J = 15 */
(PID.TID 0000.0001)                 7.853981633974484E-05,      /* J = 16 */
(PID.TID 0000.0001)                 8.377580409572783E-05,      /* J = 17 */
(PID.TID 0000.0001)                 8.901179185171082E-05,      /* J = 18 */
(PID.TID 0000.0001)                 9.424777960769381E-05,      /* J = 19 */
(PID.TID 0000.0001)                 9.948376736367680E-05,      /* J = 20 */
(PID.TID 0000.0001)                 1.047197551196598E-04,      /* J = 21 */
(PID.TID 0000.0001)                 1.099557428756428E-04,      /* J = 22 */
(PID.TID 0000.0001)                 1.151917306316258E-04,      /* J = 23 */
(PID.TID 0000.0001)                 1.204277183876088E-04,      /* J = 24 */
(PID.TID 0000.0001)                 1.256637061435918E-04,      /* J = 25 */
(PID.TID 0000.0001)                 1.308996938995748E-04,      /* J = 26 */
(PID.TID 0000.0001)                 1.361356816555577E-04,      /* J = 27 */
(PID.TID 0000.0001)                 1.413716694115407E-04,      /* J = 28 */
(PID.TID 0000.0001)                 1.466076571675237E-04,      /* J = 29 */
(PID.TID 0000.0001)                 1.518436449235067E-04,      /* J = 30 */
(PID.TID 0000.0001)                 1.570796326794897E-04       /* J = 31 */
(PID.TID 0000.0001)     ;
(PID.TID 0000.0001) 
(PID.TID 0000.0001)  MDSREADFIELD: opening global file: thetaPol.bin
(PID.TID 0000.0001) // =======================================================
(PID.TID 0000.0001) // Field Initial Temperature at iteration          1
(PID.TID 0000.0001) // CMIN =          2.000000000000000E+01
(PID.TID 0000.0001) // CMAX =          2.000099945068359E+01
(PID.TID 0000.0001) // CINT =          3.701669198495371E-05
(PID.TID 0000.0001) // SYMBOLS (CMIN->CMAX): -abcdefghijklmnopqrstuvwxyz+
(PID.TID 0000.0001) //                  0.0: .
(PID.TID 0000.0001) // RANGE I (Lo:Hi:Step):(   1: 120:   1)
(PID.TID 0000.0001) // RANGE J (Lo:Hi:Step):(  31:   1:  -1)
(PID.TID 0000.0001) // RANGE K (Lo:Hi:Step):(   1:   1:   1)
(PID.TID 0000.0001) // =======================================================
(PID.TID 0000.0001) K =   1
(PID.TID 0000.0001)                I=10      I=20      I=30      I=40      I=50      I=60      I=70      I=80      I=90      I=100     I=110     I=120
(PID.TID 0000.0001) |--J--|123456789|123456789|123456789|123456789|123456789|123456789|123456789|123456789|123456789|123456789|123456789|123456789|
(PID.TID 0000.0001)     31 ........................................................................................................................
(PID.TID 0000.0001)     30 jqkmeosabgtxgpnovswlxtomhwbjrvvfwtjzbmdwyosmgblmlswfrzuvmwqfgneqryhcrcdjxgpewppnqtnldbvcsglmkhjqmizdfsjypmxvpbrlknorerac
(PID.TID 0000.0001)     29 epwfxnxnicpxjlsfb-ghoxrykpkvcritpwusuyxzrggtrh+zleqiheyzgditnwepcrwduavvzutnwjmfzctwftosbmdphegggmevcp-ucuzmpuokoxyqqwap
(PID.TID 0000.0001)     28 cghwkxhmovssawbyvmoxyhyzmlajzodsfkbgcugskly++-joetmwqvhhjhxiodlbyrhujpxne-azfmeqgrveiexbzduozr+zpcxvokxpfesufaqjteifgqim
(PID.TID 0000.0001)     27 ypypntlzbrwqwgcnon+gfhittzwumigkpx+qqexykfps-igejsdiyzgcxzovutqomkw-raywgoztezucrtfwcesezfefursyfajdtuukdr-pkihs+cdqjptn
(PID.TID 0000.0001)     26 okayagtjfkuudyasuxerekiundtfztfrituaqwliqilodlnxgufsddaxmzmjqgth+vdcyiiujurczkqarvnqnofdcztvnlymnpbytqtmihicpdqubwfpqdma
(PID.TID 0000.0001)     25 +shwlqggfcwvjpfdonktamdluhutdjgdsnhjrvnxnpnvzjnc-rbusnboqdowjqbmchauhalglwugkbeixbarjgtwjokqtg-sutyalixtyllsi+zrfsefuhas
(PID.TID 0000.0001)     24 ktbnftiwqpaicqqsccfeaypiikitbcwtdszeghxkmq+lcnij-huhqi-tyw+wbod+kyeekiuhjnmbcvipolmftahdgniwrgzynksaucekpwcfzjfeqiqjkydo
(PID.TID 0000.0001)     23 mtsytwtmosljuikvmbr-gojcpvpefzmsybyrvdtaeljnqbcwcxkcsluvxgdovfwirrgzhbxnhumy-mxawonanxgr-hsbtumraplyuwhssxsdnlczcnxh+dtq
(PID.TID 0000.0001)     22 bnopfhxuatjexkkzosskxzetsvoiktakutliphwurlty+dlrckqmhno+bfjzbhwyqwvznekthfypvvwmhlbb-jday+jdmudjcpgichezogzzjdruodvtsnbz
(PID.TID 0000.0001)     21 aiuruchvglazywkelmfvnjgwnxsbvkbg+xqvebfelpjmypdkyhvalhcaujvivlzxqmuqchpjfolsem+xntylspdpcgerdtrvdozygjzykmtepasbz+ojevtx
(PID.TID 0000.0001)     20 qduptxvqho-+kydbdqbdfxrjbydhgbjbdndk-dfugcak+w-harq+jtcikmz+fb-corbukbwki-kyzenfmqpzyfnpxnvualivagouiopralnsl-csvkoduyfw
(PID.TID 0000.0001)     19 unhnwhoajydodykwyeonaudfe+gmcwe-qyusstzsrqerbccdjuupjsrbugccfeibpjjgqaukexrc+yfginw+fvnhbomihnvfxxffuqiphmdxzjdawbctxjmd
(PID.TID 0000.0001)     18 mnlokihg+tt+ybouziufnlxjwqujeuyjvbwpnmedfwizfuyqtiymjn-fjonbfrkaohgyabyamgp-rqy-btzcxtwpkldb+ixkeavj+lxzlpb-bplz+crxqjtr
(PID.TID 0000.0001)     17 ypcvcqgxamuonerteaslib-py-pervlennhegnpdivdk-igtykvqexpakqcwhq+iovacuhkjmvwereingydpgkusxltdkzuplapygwnhpfynkpc+vhtsfxgu
(PID.TID 0000.0001)     16 pcnhwxhsqmcvwltgaecot+qcntmxncji+jgoupkysesfnhelv+fyqsgapiznqvwkspbidoyrtzgxlqrsdcwtuboaofynn-hnzg-ooklqrtgzutziunyrcsqo
(PID.TID 0000.0001)     15 djefm+fkqztxj-ts+wp-mneycedptcn-phullwjpfks-lokdegjdpwssqimory-ayytnbbzt-akg-dcclnlagpiwcu-mpi+pz-o-qsqktdzbrvmlvvzpwcya
(PID.TID 0000.0001)     14 tpofinkljg-dtfzntrrvyxtkrxkihq+vyksjuaumcifjvyobwmumibazyaafpxhivjxi+fgzppqowbhqvikfdpjaetdqaoe+yiuuypmvfarbuvyai-pivk-c
(PID.TID 0000.0001)     13 qnuhzrlqfu-wwwu-svjflrscynlwdlhvslyvrpk+dsugmhkzqkmbsslneyzneczot+xxuzhaccmddnrnbwhtatmefanuttgygneeakztkigtujxuswtvrwqp
(PID.TID 0000.0001)     12 dn+wglekflrazoltz+zuvrdjipvvkzjenplkzwdsulzk-qzwvnutqhsaysdakmilgpotcnjgrzldzxu-nta+ahrbwxoksbphqacseonvrulavreacwaxraui
(PID.TID 0000.0001)     11 uklggyoppbg-pawxfoxxlgwihjvrpcvednlwispvywtniendlgmfoymvpgfgvttezputjq-vlwbcuuu+ukfmjawmdtpdcrbv-qgcdslgdbgdxxhfrrnvcsrw
(PID.TID 0000.0001)     10 zzxqtkkjtfpnkzdpjllvntoqlqc-zt-iuebatj+acod-jjuxtxnncsbo-sflrxez-nl-q-vfqxpc-xhzlfytocshtqqvrjlczlcnxfap-tvrkdbgmgtrqrja
(PID.TID 0000.0001)      9 nftks+ifmvfqlbqjzuxdjh+vrqmpishznwddvucrcfvqrwwexmrenptfjczpkxfsjjhnsqnwhcqovyyvhjtlwmzmzzdvvlcvnnlrhqczdtvxmi+cztyzgutp
(PID.TID 0000.0001)      8 ........................................................................................................................
(PID.TID 0000.0001)      7 ........................................................................................................................
(PID.TID 0000.0001)      6 ........................................................................................................................
(PID.TID 0000.0001)      5 ........................................................................................................................
(PID.TID 0000.0001)      4 ........................................................................................................................
(PID.TID 0000.0001)      3 ........................................................................................................................
(PID.TID 0000.0001)      2 ........................................................................................................................
(PID.TID 0000.0001)      1 ........................................................................................................................
(PID.TID 0000.0001) // =======================================================
(PID.TID 0000.0001) // END OF FIELD                                          =
(PID.TID 0000.0001) // =======================================================
(PID.TID 0000.0001) 
(PID.TID 0000.0001) // =======================================================
(PID.TID 0000.0001) // Field Initial Salinity at iteration          1
(PID.TID 0000.0001) // CMIN =          3.500000000000000E+01
(PID.TID 0000.0001) // CMAX =          3.500000000000000E+01
(PID.TID 0000.0001) // CINT =          0.000000000000000E+00
(PID.TID 0000.0001) // SYMBOLS (CMIN->CMAX): -abcdefghijklmnopqrstuvwxyz+
(PID.TID 0000.0001) //                  0.0: .
(PID.TID 0000.0001) // RANGE I (Lo:Hi:Step):(   1: 120:   1)
(PID.TID 0000.0001) // RANGE J (Lo:Hi:Step):(  31:   1:  -1)
(PID.TID 0000.0001) // RANGE K (Lo:Hi:Step):(   1:   1:   1)
(PID.TID 0000.0001) // =======================================================
(PID.TID 0000.0001) // =======================================================
(PID.TID 0000.0001) // END OF FIELD                                          =
(PID.TID 0000.0001) // =======================================================
(PID.TID 0000.0001) 
(PID.TID 0000.0001) Start initial hydrostatic pressure computation
(PID.TID 0000.0001) Pressure is predetermined for buoyancyRelation OCEANIC
(PID.TID 0000.0001) 
(PID.TID 0000.0001) // =======================================================
(PID.TID 0000.0001) // Model current state
(PID.TID 0000.0001) // =======================================================
(PID.TID 0000.0001) 
(PID.TID 0000.0001) // =======================================================
(PID.TID 0000.0001) // Begin MONITOR dynamic field statistics
(PID.TID 0000.0001) // =======================================================
(PID.TID 0000.0001) %MON time_tsnumber                =                     0
(PID.TID 0000.0001) %MON time_secondsf                =   0.0000000000000E+00
(PID.TID 0000.0001) %MON dynstat_eta_max              =   0.0000000000000E+00
(PID.TID 0000.0001) %MON dynstat_eta_min              =   0.0000000000000E+00
(PID.TID 0000.0001) %MON dynstat_eta_mean             =   0.0000000000000E+00
(PID.TID 0000.0001) %MON dynstat_eta_sd               =   0.0000000000000E+00
(PID.TID 0000.0001) %MON dynstat_eta_del2             =   0.0000000000000E+00
(PID.TID 0000.0001) %MON dynstat_uvel_max             =   0.0000000000000E+00
(PID.TID 0000.0001) %MON dynstat_uvel_min             =   0.0000000000000E+00
(PID.TID 0000.0001) %MON dynstat_uvel_mean            =   0.0000000000000E+00
(PID.TID 0000.0001) %MON dynstat_uvel_sd              =   0.0000000000000E+00
(PID.TID 0000.0001) %MON dynstat_uvel_del2            =   0.0000000000000E+00
(PID.TID 0000.0001) %MON dynstat_vvel_max             =   0.0000000000000E+00
(PID.TID 0000.0001) %MON dynstat_vvel_min             =   0.0000000000000E+00
(PID.TID 0000.0001) %MON dynstat_vvel_mean            =   0.0000000000000E+00
(PID.TID 0000.0001) %MON dynstat_vvel_sd              =   0.0000000000000E+00
(PID.TID 0000.0001) %MON dynstat_vvel_del2            =   0.0000000000000E+00
(PID.TID 0000.0001) %MON dynstat_wvel_max             =   0.0000000000000E+00
(PID.TID 0000.0001) %MON dynstat_wvel_min             =   0.0000000000000E+00
(PID.TID 0000.0001) %MON dynstat_wvel_mean            =   0.0000000000000E+00
(PID.TID 0000.0001) %MON dynstat_wvel_sd              =   0.0000000000000E+00
(PID.TID 0000.0001) %MON dynstat_wvel_del2            =   0.0000000000000E+00
(PID.TID 0000.0001) %MON dynstat_theta_max            =   2.0000999450684E+01
(PID.TID 0000.0001) %MON dynstat_theta_min            =   2.0000000000000E+01
(PID.TID 0000.0001) %MON dynstat_theta_mean           =   2.0000506097539E+01
(PID.TID 0000.0001) %MON dynstat_theta_sd             =   2.8863770164391E-04
(PID.TID 0000.0001) %MON dynstat_theta_del2           =   2.7062929037845E-04
(PID.TID 0000.0001) %MON dynstat_salt_max             =   3.5000000000000E+01
(PID.TID 0000.0001) %MON dynstat_salt_min             =   3.5000000000000E+01
(PID.TID 0000.0001) %MON dynstat_salt_mean            =   3.4999999999986E+01
(PID.TID 0000.0001) %MON dynstat_salt_sd              =   1.4040324458618E-11
(PID.TID 0000.0001) %MON dynstat_salt_del2            =   0.0000000000000E+00
(PID.TID 0000.0001) %MON advcfl_uvel_max              =   0.0000000000000E+00
(PID.TID 0000.0001) %MON advcfl_vvel_max              =   0.0000000000000E+00
(PID.TID 0000.0001) %MON advcfl_wvel_max              =   0.0000000000000E+00
(PID.TID 0000.0001) %MON advcfl_W_hf_max              =   0.0000000000000E+00
(PID.TID 0000.0001) %MON pe_b_mean                    =   0.0000000000000E+00
(PID.TID 0000.0001) %MON ke_max                       =   0.0000000000000E+00
(PID.TID 0000.0001) %MON ke_mean                      =   0.0000000000000E+00
(PID.TID 0000.0001) %MON ke_vol                       =   3.8082386146826E-02
(PID.TID 0000.0001) %MON vort_r_min                   =   0.0000000000000E+00
(PID.TID 0000.0001) %MON vort_r_max                   =   0.0000000000000E+00
(PID.TID 0000.0001) %MON vort_a_mean                  =   5.0000000000000E-01
(PID.TID 0000.0001) %MON vort_a_sd                    =   0.0000000000000E+00
(PID.TID 0000.0001) %MON vort_p_mean                  =   5.3488372093024E-01
(PID.TID 0000.0001) %MON vort_p_sd                    =   2.2607234994453E-01
(PID.TID 0000.0001) %MON surfExpan_theta_mean         =   0.0000000000000E+00
(PID.TID 0000.0001) %MON surfExpan_salt_mean          =   0.0000000000000E+00
(PID.TID 0000.0001) // =======================================================
(PID.TID 0000.0001) // End MONITOR dynamic field statistics
(PID.TID 0000.0001) // =======================================================
 cg2d: Sum(rhs),rhsMax =   6.80011602582908E-15  2.54626495526243E-07
(PID.TID 0000.0001)                    cg2d_init_res =    1.79605131991234E+01
(PID.TID 0000.0001)                       cg2d_iters =   100
(PID.TID 0000.0001)                         cg2d_res =    9.10810452070590E-08
 cg3d: Sum(rhs),rhsMax =  -2.08166817117217E-14  8.94057495890099E-08
(PID.TID 0000.0001)                    cg3d_init_res =    5.78014489203573E+01
(PID.TID 0000.0001)                       cg3d_iters =    10
(PID.TID 0000.0001)                         cg3d_res =    2.29125546074568E-01
(PID.TID 0000.0001) // =======================================================
(PID.TID 0000.0001) // Begin MONITOR dynamic field statistics
(PID.TID 0000.0001) // =======================================================
(PID.TID 0000.0001) %MON time_tsnumber                =                     1
(PID.TID 0000.0001) %MON time_secondsf                =   1.0000000000000E-01
(PID.TID 0000.0001) %MON dynstat_eta_max              =   7.1336480475350E-09
(PID.TID 0000.0001) %MON dynstat_eta_min              =  -7.3583871238601E-09
(PID.TID 0000.0001) %MON dynstat_eta_mean             =  -1.9972474168298E-11
(PID.TID 0000.0001) %MON dynstat_eta_sd               =   4.1852466764881E-09
(PID.TID 0000.0001) %MON dynstat_eta_del2             =   3.9241247104211E-09
(PID.TID 0000.0001) %MON dynstat_uvel_max             =   8.4185990504402E-08
(PID.TID 0000.0001) %MON dynstat_uvel_min             =  -8.4185991550517E-08
(PID.TID 0000.0001) %MON dynstat_uvel_mean            =  -1.2163102555095E-24
(PID.TID 0000.0001) %MON dynstat_uvel_sd              =   8.9282950016598E-09
(PID.TID 0000.0001) %MON dynstat_uvel_del2            =   3.0679360556715E-09
(PID.TID 0000.0001) %MON dynstat_vvel_max             =   8.8720044112140E-08
(PID.TID 0000.0001) %MON dynstat_vvel_min             =  -8.8720049774966E-08
(PID.TID 0000.0001) %MON dynstat_vvel_mean            =  -6.5467571597351E-16
(PID.TID 0000.0001) %MON dynstat_vvel_sd              =   9.1021344232702E-09
(PID.TID 0000.0001) %MON dynstat_vvel_del2            =   2.8578172581190E-09
(PID.TID 0000.0001) %MON dynstat_wvel_max             =   3.3825388664832E-07
(PID.TID 0000.0001) %MON dynstat_wvel_min             =  -2.7219015811267E-07
(PID.TID 0000.0001) %MON dynstat_wvel_mean            =  -2.8078482573511E-25
(PID.TID 0000.0001) %MON dynstat_wvel_sd              =   5.8295526636026E-08
(PID.TID 0000.0001) %MON dynstat_wvel_del2            =   5.4489383527925E-08
(PID.TID 0000.0001) %MON dynstat_theta_max            =   2.0000994014334E+01
(PID.TID 0000.0001) %MON dynstat_theta_min            =   1.9994446794576E+01
(PID.TID 0000.0001) %MON dynstat_theta_mean           =   2.0000391250740E+01
(PID.TID 0000.0001) %MON dynstat_theta_sd             =   8.3826057293056E-04
(PID.TID 0000.0001) %MON dynstat_theta_del2           =   3.6945169391937E-04
(PID.TID 0000.0001) %MON dynstat_salt_max             =   3.5000000000000E+01
(PID.TID 0000.0001) %MON dynstat_salt_min             =   3.5000000000000E+01
(PID.TID 0000.0001) %MON dynstat_salt_mean            =   3.4999999999986E+01
(PID.TID 0000.0001) %MON dynstat_salt_sd              =   1.4040324458618E-11
(PID.TID 0000.0001) %MON dynstat_salt_del2            =   0.0000000000000E+00
(PID.TID 0000.0001) %MON advcfl_uvel_max              =   1.8915694156740E-06
(PID.TID 0000.0001) %MON advcfl_vvel_max              =   8.8720049774966E-07
(PID.TID 0000.0001) %MON advcfl_wvel_max              =   6.7650777329664E-06
(PID.TID 0000.0001) %MON advcfl_W_hf_max              =   6.7650777329664E-06
(PID.TID 0000.0001) %MON pe_b_mean                    =   5.9254729512281E-16
(PID.TID 0000.0001) %MON ke_max                       =   3.1694490752185E-15
(PID.TID 0000.0001) %MON ke_mean                      =   7.9398722914794E-17
(PID.TID 0000.0001) %MON ke_vol                       =   3.8082386146826E-02
(PID.TID 0000.0001) %MON vort_r_min                   =  -8.9447614910927E-06
(PID.TID 0000.0001) %MON vort_r_max                   =   8.9447616022425E-06
(PID.TID 0000.0001) %MON vort_a_mean                  =   5.0000000000002E-01
(PID.TID 0000.0001) %MON vort_a_sd                    =   3.0881735348795E-07
(PID.TID 0000.0001) %MON vort_p_mean                  =   5.3488372093026E-01
(PID.TID 0000.0001) %MON vort_p_sd                    =   2.2607234994541E-01
(PID.TID 0000.0001) %MON surfExpan_theta_mean         =   0.0000000000000E+00
(PID.TID 0000.0001) %MON surfExpan_salt_mean          =   0.0000000000000E+00
(PID.TID 0000.0001) // =======================================================
(PID.TID 0000.0001) // End MONITOR dynamic field statistics
(PID.TID 0000.0001) // =======================================================
 cg2d: Sum(rhs),rhsMax =  -2.03170813506404E-14  5.04382260486769E-07
(PID.TID 0000.0001)                    cg2d_init_res =    8.28764588430262E+00
(PID.TID 0000.0001)                       cg2d_iters =    58
(PID.TID 0000.0001)                         cg2d_res =    9.91534916156451E-08
 cg3d: Sum(rhs),rhsMax =   5.20972154305355E-14  1.77074629167851E-07
(PID.TID 0000.0001)                    cg3d_init_res =    2.66814891216654E+01
(PID.TID 0000.0001)                       cg3d_iters =    10
(PID.TID 0000.0001)                         cg3d_res =    1.59193770091286E+00
(PID.TID 0000.0001) // =======================================================
(PID.TID 0000.0001) // Begin MONITOR dynamic field statistics
(PID.TID 0000.0001) // =======================================================
(PID.TID 0000.0001) %MON time_tsnumber                =                     2
(PID.TID 0000.0001) %MON time_secondsf                =   2.0000000000000E-01
(PID.TID 0000.0001) %MON dynstat_eta_max              =   1.4070631003858E-08
(PID.TID 0000.0001) %MON dynstat_eta_min              =  -1.2984319170448E-07
(PID.TID 0000.0001) %MON dynstat_eta_mean             =   4.3620907496868E-09
(PID.TID 0000.0001) %MON dynstat_eta_sd               =   1.8817998136176E-08
(PID.TID 0000.0001) %MON dynstat_eta_del2             =   6.4420345238864E-09
(PID.TID 0000.0001) %MON dynstat_uvel_max             =   2.5134700648472E-07
(PID.TID 0000.0001) %MON dynstat_uvel_min             =  -2.5033466201996E-07
(PID.TID 0000.0001) %MON dynstat_uvel_mean            =  -4.4554660497517E-17
(PID.TID 0000.0001) %MON dynstat_uvel_sd              =   2.3551889648433E-08
(PID.TID 0000.0001) %MON dynstat_uvel_del2            =   1.7169722131803E-08
(PID.TID 0000.0001) %MON dynstat_vvel_max             =   1.2952615353334E-06
(PID.TID 0000.0001) %MON dynstat_vvel_min             =  -1.2963386691331E-06
(PID.TID 0000.0001) %MON dynstat_vvel_mean            =   1.7066748254900E-16
(PID.TID 0000.0001) %MON dynstat_vvel_sd              =   1.2879630572821E-07
(PID.TID 0000.0001) %MON dynstat_vvel_del2            =   1.6634047840442E-08
(PID.TID 0000.0001) %MON dynstat_wvel_max             =   2.6330211204772E-06
(PID.TID 0000.0001) %MON dynstat_wvel_min             =  -4.4226708206289E-06
(PID.TID 0000.0001) %MON dynstat_wvel_mean            =   1.6942902149701E-23
(PID.TID 0000.0001) %MON dynstat_wvel_sd              =   4.1694394163776E-07
(PID.TID 0000.0001) %MON dynstat_wvel_del2            =   3.1280162017144E-07
(PID.TID 0000.0001) %MON dynstat_theta_max            =   2.0000990530340E+01
(PID.TID 0000.0001) %MON dynstat_theta_min            =   1.9988838963205E+01
(PID.TID 0000.0001) %MON dynstat_theta_mean           =   2.0000276455827E+01
(PID.TID 0000.0001) %MON dynstat_theta_sd             =   1.6064968957935E-03
(PID.TID 0000.0001) %MON dynstat_theta_del2           =   4.9294820475397E-04
(PID.TID 0000.0001) %MON dynstat_salt_max             =   3.5000000000000E+01
(PID.TID 0000.0001) %MON dynstat_salt_min             =   3.5000000000000E+01
(PID.TID 0000.0001) %MON dynstat_salt_mean            =   3.4999999999986E+01
(PID.TID 0000.0001) %MON dynstat_salt_sd              =   1.4040324458618E-11
(PID.TID 0000.0001) %MON dynstat_salt_del2            =   0.0000000000000E+00
(PID.TID 0000.0001) %MON advcfl_uvel_max              =   5.0530254964287E-06
(PID.TID 0000.0001) %MON advcfl_vvel_max              =   1.2963386691331E-05
(PID.TID 0000.0001) %MON advcfl_wvel_max              =   8.8453416412579E-05
(PID.TID 0000.0001) %MON advcfl_W_hf_max              =   8.8453416412579E-05
(PID.TID 0000.0001) %MON pe_b_mean                    =   1.2622590919305E-14
(PID.TID 0000.0001) %MON ke_max                       =   5.1574492114614E-13
(PID.TID 0000.0001) %MON ke_mean                      =   8.1945788383199E-15
(PID.TID 0000.0001) %MON ke_vol                       =   3.8082386146826E-02
(PID.TID 0000.0001) %MON vort_r_min                   =  -2.2810806690450E-05
(PID.TID 0000.0001) %MON vort_r_max                   =   2.3001048205952E-05
(PID.TID 0000.0001) %MON vort_a_mean                  =   5.0000000000007E-01
(PID.TID 0000.0001) %MON vort_a_sd                    =   8.5181351113009E-07
(PID.TID 0000.0001) %MON vort_p_mean                  =   5.3488372093032E-01
(PID.TID 0000.0001) %MON vort_p_sd                    =   2.2607234995157E-01
(PID.TID 0000.0001) %MON surfExpan_theta_mean         =   0.0000000000000E+00
(PID.TID 0000.0001) %MON surfExpan_salt_mean          =   0.0000000000000E+00
(PID.TID 0000.0001) // =======================================================
(PID.TID 0000.0001) // End MONITOR dynamic field statistics
(PID.TID 0000.0001) // =======================================================
 cg2d: Sum(rhs),rhsMax =   2.81719092498633E-14  6.59737231788196E-07
(PID.TID 0000.0001)                    cg2d_init_res =    3.89254515995313E+00
(PID.TID 0000.0001)                       cg2d_iters =    46
(PID.TID 0000.0001)                         cg2d_res =    9.65739003792662E-08
 cg3d: Sum(rhs),rhsMax =   6.80289158339065E-14  2.31644545198133E-07
(PID.TID 0000.0001)                    cg3d_init_res =    1.25861469934179E+01
(PID.TID 0000.0001)                       cg3d_iters =    10
(PID.TID 0000.0001)                         cg3d_res =    1.23335097227536E+00
(PID.TID 0000.0001) // =======================================================
(PID.TID 0000.0001) // Begin MONITOR dynamic field statistics
(PID.TID 0000.0001) // =======================================================
(PID.TID 0000.0001) %MON time_tsnumber                =                     3
(PID.TID 0000.0001) %MON time_secondsf                =   3.0000000000000E-01
(PID.TID 0000.0001) %MON dynstat_eta_max              =   1.8418512099365E-08
(PID.TID 0000.0001) %MON dynstat_eta_min              =  -2.0653697332144E-07
(PID.TID 0000.0001) %MON dynstat_eta_mean             =   7.0960333961431E-09
(PID.TID 0000.0001) %MON dynstat_eta_sd               =   3.0109362880414E-08
(PID.TID 0000.0001) %MON dynstat_eta_del2             =   8.2222928593323E-09
(PID.TID 0000.0001) %MON dynstat_uvel_max             =   2.9175798682131E-07
(PID.TID 0000.0001) %MON dynstat_uvel_min             =  -2.9456277495873E-07
(PID.TID 0000.0001) %MON dynstat_uvel_mean            =  -1.5736124869117E-17
(PID.TID 0000.0001) %MON dynstat_uvel_sd              =   2.9993369680250E-08
(PID.TID 0000.0001) %MON dynstat_uvel_del2            =   2.1016466548006E-08
(PID.TID 0000.0001) %MON dynstat_vvel_max             =   3.0892349690194E-06
(PID.TID 0000.0001) %MON dynstat_vvel_min             =  -3.0998179268604E-06
(PID.TID 0000.0001) %MON dynstat_vvel_mean            =   1.2245495003410E-17
(PID.TID 0000.0001) %MON dynstat_vvel_sd              =   2.9558056115271E-07
(PID.TID 0000.0001) %MON dynstat_vvel_del2            =   2.4123039987261E-08
(PID.TID 0000.0001) %MON dynstat_wvel_max             =   2.8952069445572E-06
(PID.TID 0000.0001) %MON dynstat_wvel_min             =  -7.8307831063760E-06
(PID.TID 0000.0001) %MON dynstat_wvel_mean            =   6.2800050358035E-24
(PID.TID 0000.0001) %MON dynstat_wvel_sd              =   7.2363044104531E-07
(PID.TID 0000.0001) %MON dynstat_wvel_del2            =   3.9555628838355E-07
(PID.TID 0000.0001) %MON dynstat_theta_max            =   2.0000987074119E+01
(PID.TID 0000.0001) %MON dynstat_theta_min            =   1.9983246801799E+01
(PID.TID 0000.0001) %MON dynstat_theta_mean           =   2.0000161693097E+01
(PID.TID 0000.0001) %MON dynstat_theta_sd             =   2.3888437601242E-03
(PID.TID 0000.0001) %MON dynstat_theta_del2           =   6.1571469830526E-04
(PID.TID 0000.0001) %MON dynstat_salt_max             =   3.5000000000000E+01
(PID.TID 0000.0001) %MON dynstat_salt_min             =   3.5000000000000E+01
(PID.TID 0000.0001) %MON dynstat_salt_mean            =   3.4999999999986E+01
(PID.TID 0000.0001) %MON dynstat_salt_sd              =   1.4040324458618E-11
(PID.TID 0000.0001) %MON dynstat_salt_del2            =   0.0000000000000E+00
(PID.TID 0000.0001) %MON advcfl_uvel_max              =   6.0628230954245E-06
(PID.TID 0000.0001) %MON advcfl_vvel_max              =   3.0998179268604E-05
(PID.TID 0000.0001) %MON advcfl_wvel_max              =   1.5661566212752E-04
(PID.TID 0000.0001) %MON advcfl_W_hf_max              =   1.5661566212752E-04
(PID.TID 0000.0001) %MON pe_b_mean                    =   3.2370544896067E-14
(PID.TID 0000.0001) %MON ke_max                       =   2.9099922877623E-12
(PID.TID 0000.0001) %MON ke_mean                      =   4.2148101811428E-14
(PID.TID 0000.0001) %MON ke_vol                       =   3.8082386146826E-02
(PID.TID 0000.0001) %MON vort_r_min                   =  -2.8669583455820E-05
(PID.TID 0000.0001) %MON vort_r_max                   =   2.8558968430246E-05
(PID.TID 0000.0001) %MON vort_a_mean                  =   5.0000000000006E-01
(PID.TID 0000.0001) %MON vort_a_sd                    =   1.1355965631567E-06
(PID.TID 0000.0001) %MON vort_p_mean                  =   5.3488372093031E-01
(PID.TID 0000.0001) %MON vort_p_sd                    =   2.2607234995573E-01
(PID.TID 0000.0001) %MON surfExpan_theta_mean         =   0.0000000000000E+00
(PID.TID 0000.0001) %MON surfExpan_salt_mean          =   0.0000000000000E+00
(PID.TID 0000.0001) // =======================================================
(PID.TID 0000.0001) // End MONITOR dynamic field statistics
(PID.TID 0000.0001) // =======================================================
 cg2d: Sum(rhs),rhsMax =   5.29298826990043E-14  8.14807314099755E-07
(PID.TID 0000.0001)                    cg2d_init_res =    3.13874880820637E+00
(PID.TID 0000.0001)                       cg2d_iters =    57
(PID.TID 0000.0001)                         cg2d_res =    8.93263945759200E-08
 cg3d: Sum(rhs),rhsMax =   1.03084207836446E-13  2.85998637591166E-07
(PID.TID 0000.0001)                    cg3d_init_res =    1.01402253078184E+01
(PID.TID 0000.0001)                       cg3d_iters =    10
(PID.TID 0000.0001)                         cg3d_res =    9.73239127528291E-01
(PID.TID 0000.0001) // =======================================================
(PID.TID 0000.0001) // Begin MONITOR dynamic field statistics
(PID.TID 0000.0001) // =======================================================
(PID.TID 0000.0001) %MON time_tsnumber                =                     4
(PID.TID 0000.0001) %MON time_secondsf                =   4.0000000000000E-01
(PID.TID 0000.0001) %MON dynstat_eta_max              =   2.2765106543470E-08
(PID.TID 0000.0001) %MON dynstat_eta_min              =  -2.8309676019087E-07
(PID.TID 0000.0001) %MON dynstat_eta_mean             =   9.8287581674335E-09
(PID.TID 0000.0001) %MON dynstat_eta_sd               =   4.1477607712013E-08
(PID.TID 0000.0001) %MON dynstat_eta_del2             =   9.9959527452327E-09
(PID.TID 0000.0001) %MON dynstat_uvel_max             =   5.4050950242267E-07
(PID.TID 0000.0001) %MON dynstat_uvel_min             =  -5.4562023615631E-07
(PID.TID 0000.0001) %MON dynstat_uvel_mean            =   3.5952757695441E-15
(PID.TID 0000.0001) %MON dynstat_uvel_sd              =   4.9408823244629E-08
(PID.TID 0000.0001) %MON dynstat_uvel_del2            =   3.1857887382003E-08
(PID.TID 0000.0001) %MON dynstat_vvel_max             =   5.6317503883042E-06
(PID.TID 0000.0001) %MON dynstat_vvel_min             =  -5.6550675498003E-06
(PID.TID 0000.0001) %MON dynstat_vvel_mean            =  -8.7208043767299E-18
(PID.TID 0000.0001) %MON dynstat_vvel_sd              =   5.1430172755355E-07
(PID.TID 0000.0001) %MON dynstat_vvel_del2            =   3.8013303083312E-08
(PID.TID 0000.0001) %MON dynstat_wvel_max             =   4.5392623461984E-06
(PID.TID 0000.0001) %MON dynstat_wvel_min             =  -1.3091605012636E-05
(PID.TID 0000.0001) %MON dynstat_wvel_mean            =   1.9592541649236E-23
(PID.TID 0000.0001) %MON dynstat_wvel_sd              =   1.2370906068399E-06
(PID.TID 0000.0001) %MON dynstat_wvel_del2            =   6.3138786140596E-07
(PID.TID 0000.0001) %MON dynstat_theta_max            =   2.0000983645170E+01
(PID.TID 0000.0001) %MON dynstat_theta_min            =   1.9977668033509E+01
(PID.TID 0000.0001) %MON dynstat_theta_mean           =   2.0000046962493E+01
(PID.TID 0000.0001) %MON dynstat_theta_sd             =   3.1731480641080E-03
(PID.TID 0000.0001) %MON dynstat_theta_del2           =   7.3774032943812E-04
(PID.TID 0000.0001) %MON dynstat_salt_max             =   3.5000000000000E+01
(PID.TID 0000.0001) %MON dynstat_salt_min             =   3.5000000000000E+01
(PID.TID 0000.0001) %MON dynstat_salt_mean            =   3.4999999999986E+01
(PID.TID 0000.0001) %MON dynstat_salt_sd              =   1.4040324458618E-11
(PID.TID 0000.0001) %MON dynstat_salt_del2            =   0.0000000000000E+00
(PID.TID 0000.0001) %MON advcfl_uvel_max              =   1.0969030438136E-05
(PID.TID 0000.0001) %MON advcfl_vvel_max              =   5.6550675498003E-05
(PID.TID 0000.0001) %MON advcfl_wvel_max              =   2.6183210025272E-04
(PID.TID 0000.0001) %MON advcfl_W_hf_max              =   2.6183210025272E-04
(PID.TID 0000.0001) %MON pe_b_mean                    =   6.1464603326936E-14
(PID.TID 0000.0001) %MON ke_max                       =   9.6174946926813E-12
(PID.TID 0000.0001) %MON ke_mean                      =   1.2746224332208E-13
(PID.TID 0000.0001) %MON ke_vol                       =   3.8082386146826E-02
(PID.TID 0000.0001) %MON vort_r_min                   =  -4.9410505831271E-05
(PID.TID 0000.0001) %MON vort_r_max                   =   4.9864620075410E-05
(PID.TID 0000.0001) %MON vort_a_mean                  =   5.0000000000006E-01
(PID.TID 0000.0001) %MON vort_a_sd                    =   1.9453150620365E-06
(PID.TID 0000.0001) %MON vort_p_mean                  =   5.3488372093031E-01
(PID.TID 0000.0001) %MON vort_p_sd                    =   2.2607234997817E-01
(PID.TID 0000.0001) %MON surfExpan_theta_mean         =   0.0000000000000E+00
(PID.TID 0000.0001) %MON surfExpan_salt_mean          =   0.0000000000000E+00
(PID.TID 0000.0001) // =======================================================
(PID.TID 0000.0001) // End MONITOR dynamic field statistics
(PID.TID 0000.0001) // =======================================================
 cg2d: Sum(rhs),rhsMax =   4.13419298794793E-14  9.69511579613774E-07
(PID.TID 0000.0001)                    cg2d_init_res =    2.62047915632148E+00
(PID.TID 0000.0001)                       cg2d_iters =    41
(PID.TID 0000.0001)                         cg2d_res =    8.36919451762574E-08
 cg3d: Sum(rhs),rhsMax =   3.30437066597966E-13  3.40259508937943E-07
(PID.TID 0000.0001)                    cg3d_init_res =    8.45016171479941E+00
(PID.TID 0000.0001)                       cg3d_iters =    10
(PID.TID 0000.0001)                         cg3d_res =    9.25377917630327E-01
(PID.TID 0000.0001) // =======================================================
(PID.TID 0000.0001) // Begin MONITOR dynamic field statistics
(PID.TID 0000.0001) // =======================================================
(PID.TID 0000.0001) %MON time_tsnumber                =                     5
(PID.TID 0000.0001) %MON time_secondsf                =   5.0000000000000E-01
(PID.TID 0000.0001) %MON dynstat_eta_max              =   2.7110436016861E-08
(PID.TID 0000.0001) %MON dynstat_eta_min              =  -3.5947612049785E-07
(PID.TID 0000.0001) %MON dynstat_eta_mean             =   1.2559561191689E-08
(PID.TID 0000.0001) %MON dynstat_eta_sd               =   5.2846892285813E-08
(PID.TID 0000.0001) %MON dynstat_eta_del2             =   1.1758979119341E-08
(PID.TID 0000.0001) %MON dynstat_uvel_max             =   8.5080066813924E-07
(PID.TID 0000.0001) %MON dynstat_uvel_min             =  -8.4959514605586E-07
(PID.TID 0000.0001) %MON dynstat_uvel_mean            =   2.0880158758631E-14
(PID.TID 0000.0001) %MON dynstat_uvel_sd              =   7.6161013267250E-08
(PID.TID 0000.0001) %MON dynstat_uvel_del2            =   4.1061860335439E-08
(PID.TID 0000.0001) %MON dynstat_vvel_max             =   8.7168858558233E-06
(PID.TID 0000.0001) %MON dynstat_vvel_min             =  -8.7707257936466E-06
(PID.TID 0000.0001) %MON dynstat_vvel_mean            =   8.8195069430280E-17
(PID.TID 0000.0001) %MON dynstat_vvel_sd              =   7.7840923566562E-07
(PID.TID 0000.0001) %MON dynstat_vvel_del2            =   5.2832905411583E-08
(PID.TID 0000.0001) %MON dynstat_wvel_max             =   5.7280555797455E-06
(PID.TID 0000.0001) %MON dynstat_wvel_min             =  -1.9483823796618E-05
(PID.TID 0000.0001) %MON dynstat_wvel_mean            =   5.3144594411998E-23
(PID.TID 0000.0001) %MON dynstat_wvel_sd              =   1.8315730252914E-06
(PID.TID 0000.0001) %MON dynstat_wvel_del2            =   8.5665294031447E-07
(PID.TID 0000.0001) %MON dynstat_theta_max            =   2.0000981080157E+01
(PID.TID 0000.0001) %MON dynstat_theta_min            =   1.9972102817517E+01
(PID.TID 0000.0001) %MON dynstat_theta_mean           =   1.9999932263921E+01
(PID.TID 0000.0001) %MON dynstat_theta_sd             =   3.9568689476171E-03
(PID.TID 0000.0001) %MON dynstat_theta_del2           =   8.5905029554135E-04
(PID.TID 0000.0001) %MON dynstat_salt_max             =   3.5000000000000E+01
(PID.TID 0000.0001) %MON dynstat_salt_min             =   3.5000000000000E+01
(PID.TID 0000.0001) %MON dynstat_salt_mean            =   3.4999999999986E+01
(PID.TID 0000.0001) %MON dynstat_salt_sd              =   1.4040324458618E-11
(PID.TID 0000.0001) %MON dynstat_salt_del2            =   0.0000000000000E+00
(PID.TID 0000.0001) %MON advcfl_uvel_max              =   1.7104311400452E-05
(PID.TID 0000.0001) %MON advcfl_vvel_max              =   8.7707257936466E-05
(PID.TID 0000.0001) %MON advcfl_wvel_max              =   3.8967647593236E-04
(PID.TID 0000.0001) %MON advcfl_W_hf_max              =   3.8967647593236E-04
(PID.TID 0000.0001) %MON pe_b_mean                    =   9.9809531247069E-14
(PID.TID 0000.0001) %MON ke_max                       =   2.3228267345209E-11
(PID.TID 0000.0001) %MON ke_mean                      =   2.9208978864268E-13
(PID.TID 0000.0001) %MON ke_vol                       =   3.8082386146826E-02
(PID.TID 0000.0001) %MON vort_r_min                   =  -7.3540126362404E-05
(PID.TID 0000.0001) %MON vort_r_max                   =   7.3323516953453E-05
(PID.TID 0000.0001) %MON vort_a_mean                  =   5.0000000000007E-01
(PID.TID 0000.0001) %MON vort_a_sd                    =   3.1038889847478E-06
(PID.TID 0000.0001) %MON vort_p_mean                  =   5.3488372093032E-01
(PID.TID 0000.0001) %MON vort_p_sd                    =   2.2607235003788E-01
(PID.TID 0000.0001) %MON surfExpan_theta_mean         =   0.0000000000000E+00
(PID.TID 0000.0001) %MON surfExpan_salt_mean          =   0.0000000000000E+00
(PID.TID 0000.0001) // =======================================================
(PID.TID 0000.0001) // End MONITOR dynamic field statistics
(PID.TID 0000.0001) // =======================================================
 cg2d: Sum(rhs),rhsMax =  -6.36851682500605E-14  1.12382114743769E-06
(PID.TID 0000.0001)                    cg2d_init_res =    2.24579214377562E+00
(PID.TID 0000.0001)                       cg2d_iters =    41
(PID.TID 0000.0001)                         cg2d_res =    8.17775437876484E-08
 cg3d: Sum(rhs),rhsMax =   4.71289673953379E-14  3.94286076750352E-07
(PID.TID 0000.0001)                    cg3d_init_res =    7.25510949708955E+00
(PID.TID 0000.0001)                       cg3d_iters =    10
(PID.TID 0000.0001)                         cg3d_res =    7.17703384166184E-01
(PID.TID 0000.0001) // =======================================================
(PID.TID 0000.0001) // Begin MONITOR dynamic field statistics
(PID.TID 0000.0001) // =======================================================
(PID.TID 0000.0001) %MON time_tsnumber                =                     6
(PID.TID 0000.0001) %MON time_secondsf                =   6.0000000000000E-01
(PID.TID 0000.0001) %MON dynstat_eta_max              =   3.1481885367985E-08
(PID.TID 0000.0001) %MON dynstat_eta_min              =  -4.3562658070049E-07
(PID.TID 0000.0001) %MON dynstat_eta_mean             =   1.5288412910683E-08
(PID.TID 0000.0001) %MON dynstat_eta_sd               =   6.4198813651570E-08
(PID.TID 0000.0001) %MON dynstat_eta_del2             =   1.3511819337983E-08
(PID.TID 0000.0001) %MON dynstat_uvel_max             =   1.2625880784757E-06
(PID.TID 0000.0001) %MON dynstat_uvel_min             =  -1.2738776495193E-06
(PID.TID 0000.0001) %MON dynstat_uvel_mean            =   7.2785669268721E-14
(PID.TID 0000.0001) %MON dynstat_uvel_sd              =   1.1738464570986E-07
(PID.TID 0000.0001) %MON dynstat_uvel_del2            =   4.9500668295564E-08
(PID.TID 0000.0001) %MON dynstat_vvel_max             =   1.2510865063770E-05
(PID.TID 0000.0001) %MON dynstat_vvel_min             =  -1.2596543971462E-05
(PID.TID 0000.0001) %MON dynstat_vvel_mean            =  -1.0141176149964E-17
(PID.TID 0000.0001) %MON dynstat_vvel_sd              =   1.0921688510695E-06
(PID.TID 0000.0001) %MON dynstat_vvel_del2            =   6.8362484285600E-08
(PID.TID 0000.0001) %MON dynstat_wvel_max             =   6.8722402844444E-06
(PID.TID 0000.0001) %MON dynstat_wvel_min             =  -2.5366257989026E-05
(PID.TID 0000.0001) %MON dynstat_wvel_mean            =   7.0593710195591E-23
(PID.TID 0000.0001) %MON dynstat_wvel_sd              =   2.5566108194544E-06
(PID.TID 0000.0001) %MON dynstat_wvel_del2            =   1.0944044802085E-06
(PID.TID 0000.0001) %MON dynstat_theta_max            =   2.0000979689030E+01
(PID.TID 0000.0001) %MON dynstat_theta_min            =   1.9966552676621E+01
(PID.TID 0000.0001) %MON dynstat_theta_mean           =   1.9999817597288E+01
(PID.TID 0000.0001) %MON dynstat_theta_sd             =   4.7391590932058E-03
(PID.TID 0000.0001) %MON dynstat_theta_del2           =   9.7966705489519E-04
(PID.TID 0000.0001) %MON dynstat_salt_max             =   3.5000000000000E+01
(PID.TID 0000.0001) %MON dynstat_salt_min             =   3.5000000000000E+01
(PID.TID 0000.0001) %MON dynstat_salt_mean            =   3.4999999999986E+01
(PID.TID 0000.0001) %MON dynstat_salt_sd              =   1.4040324458618E-11
(PID.TID 0000.0001) %MON dynstat_salt_del2            =   0.0000000000000E+00
(PID.TID 0000.0001) %MON advcfl_uvel_max              =   2.5609758924036E-05
(PID.TID 0000.0001) %MON advcfl_vvel_max              =   1.2596543971462E-04
(PID.TID 0000.0001) %MON advcfl_wvel_max              =   5.0732515978051E-04
(PID.TID 0000.0001) %MON advcfl_W_hf_max              =   5.0732515978051E-04
(PID.TID 0000.0001) %MON pe_b_mean                    =   1.4732668972300E-13
(PID.TID 0000.0001) %MON ke_max                       =   4.8027538415955E-11
(PID.TID 0000.0001) %MON ke_mean                      =   5.7619614080080E-13
(PID.TID 0000.0001) %MON ke_vol                       =   3.8082386146826E-02
(PID.TID 0000.0001) %MON vort_r_min                   =  -1.0936877924706E-04
(PID.TID 0000.0001) %MON vort_r_max                   =   1.1107062101992E-04
(PID.TID 0000.0001) %MON vort_a_mean                  =   5.0000000000007E-01
(PID.TID 0000.0001) %MON vort_a_sd                    =   4.9043952584194E-06
(PID.TID 0000.0001) %MON vort_p_mean                  =   5.3488372093031E-01
(PID.TID 0000.0001) %MON vort_p_sd                    =   2.2607235020139E-01
(PID.TID 0000.0001) %MON surfExpan_theta_mean         =   0.0000000000000E+00
(PID.TID 0000.0001) %MON surfExpan_salt_mean          =   0.0000000000000E+00
(PID.TID 0000.0001) // =======================================================
(PID.TID 0000.0001) // End MONITOR dynamic field statistics
(PID.TID 0000.0001) // =======================================================
 cg2d: Sum(rhs),rhsMax =   7.93531906850831E-14  1.27772288676527E-06
(PID.TID 0000.0001)                    cg2d_init_res =    1.96231579158253E+00
(PID.TID 0000.0001)                       cg2d_iters =    40
(PID.TID 0000.0001)                         cg2d_res =    9.84341980092947E-08
 cg3d: Sum(rhs),rhsMax =  -6.16798279118314E-14  4.48167542472726E-07
(PID.TID 0000.0001)                    cg3d_init_res =    6.32909890717339E+00
(PID.TID 0000.0001)                       cg3d_iters =    10
(PID.TID 0000.0001)                         cg3d_res =    7.18451345243181E-01
(PID.TID 0000.0001) // =======================================================
(PID.TID 0000.0001) // Begin MONITOR dynamic field statistics
(PID.TID 0000.0001) // =======================================================
(PID.TID 0000.0001) %MON time_tsnumber                =                     7
(PID.TID 0000.0001) %MON time_secondsf                =   7.0000000000000E-01
(PID.TID 0000.0001) %MON dynstat_eta_max              =   3.5850801610428E-08
(PID.TID 0000.0001) %MON dynstat_eta_min              =  -5.1154836305792E-07
(PID.TID 0000.0001) %MON dynstat_eta_mean             =   1.8015281798714E-08
(PID.TID 0000.0001) %MON dynstat_eta_sd               =   7.5526126789045E-08
(PID.TID 0000.0001) %MON dynstat_eta_del2             =   1.5255021465981E-08
(PID.TID 0000.0001) %MON dynstat_uvel_max             =   1.9280864855777E-06
(PID.TID 0000.0001) %MON dynstat_uvel_min             =  -1.9293990026737E-06
(PID.TID 0000.0001) %MON dynstat_uvel_mean            =   1.9604460683533E-13
(PID.TID 0000.0001) %MON dynstat_uvel_sd              =   1.7459279838387E-07
(PID.TID 0000.0001) %MON dynstat_uvel_del2            =   6.0883628177728E-08
(PID.TID 0000.0001) %MON dynstat_vvel_max             =   1.6838371580051E-05
(PID.TID 0000.0001) %MON dynstat_vvel_min             =  -1.6980453692977E-05
(PID.TID 0000.0001) %MON dynstat_vvel_mean            =   4.3743493585141E-17
(PID.TID 0000.0001) %MON dynstat_vvel_sd              =   1.4499311425485E-06
(PID.TID 0000.0001) %MON dynstat_vvel_del2            =   8.6478314949905E-08
(PID.TID 0000.0001) %MON dynstat_wvel_max             =   8.9796613784078E-06
(PID.TID 0000.0001) %MON dynstat_wvel_min             =  -3.4438036043407E-05
(PID.TID 0000.0001) %MON dynstat_wvel_mean            =   1.4100860846382E-23
(PID.TID 0000.0001) %MON dynstat_wvel_sd              =   3.3904886854760E-06
(PID.TID 0000.0001) %MON dynstat_wvel_del2            =   1.3924317130083E-06
(PID.TID 0000.0001) %MON dynstat_theta_max            =   2.0000978296376E+01
(PID.TID 0000.0001) %MON dynstat_theta_min            =   1.9961017240353E+01
(PID.TID 0000.0001) %MON dynstat_theta_mean           =   1.9999702962503E+01
(PID.TID 0000.0001) %MON dynstat_theta_sd             =   5.5196621547140E-03
(PID.TID 0000.0001) %MON dynstat_theta_del2           =   1.0996353551127E-03
(PID.TID 0000.0001) %MON dynstat_salt_max             =   3.5000000000000E+01
(PID.TID 0000.0001) %MON dynstat_salt_min             =   3.5000000000000E+01
(PID.TID 0000.0001) %MON dynstat_salt_mean            =   3.4999999999986E+01
(PID.TID 0000.0001) %MON dynstat_salt_sd              =   1.4040324458618E-11
(PID.TID 0000.0001) %MON dynstat_salt_del2            =   0.0000000000000E+00
(PID.TID 0000.0001) %MON advcfl_uvel_max              =   3.8788217491212E-05
(PID.TID 0000.0001) %MON advcfl_vvel_max              =   1.6980453692977E-04
(PID.TID 0000.0001) %MON advcfl_wvel_max              =   6.8876072086815E-04
(PID.TID 0000.0001) %MON advcfl_W_hf_max              =   6.8876072086815E-04
(PID.TID 0000.0001) %MON pe_b_mean                    =   2.0393793200433E-13
(PID.TID 0000.0001) %MON ke_max                       =   8.7835357491567E-11
(PID.TID 0000.0001) %MON ke_mean                      =   1.0186119290046E-12
(PID.TID 0000.0001) %MON ke_vol                       =   3.8082386146826E-02
(PID.TID 0000.0001) %MON vort_r_min                   =  -1.5489149955193E-04
(PID.TID 0000.0001) %MON vort_r_max                   =   1.5502563737828E-04
(PID.TID 0000.0001) %MON vort_a_mean                  =   5.0000000000007E-01
(PID.TID 0000.0001) %MON vort_a_sd                    =   7.4215001079307E-06
(PID.TID 0000.0001) %MON vort_p_mean                  =   5.3488372093031E-01
(PID.TID 0000.0001) %MON vort_p_sd                    =   2.2607235057769E-01
(PID.TID 0000.0001) %MON surfExpan_theta_mean         =   0.0000000000000E+00
(PID.TID 0000.0001) %MON surfExpan_salt_mean          =   0.0000000000000E+00
(PID.TID 0000.0001) // =======================================================
(PID.TID 0000.0001) // End MONITOR dynamic field statistics
(PID.TID 0000.0001) // =======================================================
 cg2d: Sum(rhs),rhsMax =  -4.12864187282480E-15  1.43119528094820E-06
(PID.TID 0000.0001)                    cg2d_init_res =    1.74040958906567E+00
(PID.TID 0000.0001)                       cg2d_iters =    40
(PID.TID 0000.0001)                         cg2d_res =    9.52088550938155E-08
 cg3d: Sum(rhs),rhsMax =   1.05145059325906E-13  5.01799149539732E-07
(PID.TID 0000.0001)                    cg3d_init_res =    5.62169475405695E+00
(PID.TID 0000.0001)                       cg3d_iters =    10
(PID.TID 0000.0001)                         cg3d_res =    5.68597648493347E-01
(PID.TID 0000.0001) // =======================================================
(PID.TID 0000.0001) // Begin MONITOR dynamic field statistics
(PID.TID 0000.0001) // =======================================================
(PID.TID 0000.0001) %MON time_tsnumber                =                     8
(PID.TID 0000.0001) %MON time_secondsf                =   8.0000000000000E-01
(PID.TID 0000.0001) %MON dynstat_eta_max              =   4.0217114763487E-08
(PID.TID 0000.0001) %MON dynstat_eta_min              =  -5.8724191493692E-07
(PID.TID 0000.0001) %MON dynstat_eta_mean             =   2.0740124081267E-08
(PID.TID 0000.0001) %MON dynstat_eta_sd               =   8.6825430746397E-08
(PID.TID 0000.0001) %MON dynstat_eta_del2             =   1.6988994310004E-08
(PID.TID 0000.0001) %MON dynstat_uvel_max             =   2.6048676713153E-06
(PID.TID 0000.0001) %MON dynstat_uvel_min             =  -2.6242383841982E-06
(PID.TID 0000.0001) %MON dynstat_uvel_mean            =   4.4864139576123E-13
(PID.TID 0000.0001) %MON dynstat_uvel_sd              =   2.4911610387351E-07
(PID.TID 0000.0001) %MON dynstat_uvel_del2            =   6.8131680006682E-08
(PID.TID 0000.0001) %MON dynstat_vvel_max             =   2.1833542050514E-05
(PID.TID 0000.0001) %MON dynstat_vvel_min             =  -2.2032689450048E-05
(PID.TID 0000.0001) %MON dynstat_vvel_mean            =   2.4194938055583E-17
(PID.TID 0000.0001) %MON dynstat_vvel_sd              =   1.8559737667209E-06
(PID.TID 0000.0001) %MON dynstat_vvel_del2            =   1.0312984363066E-07
(PID.TID 0000.0001) %MON dynstat_wvel_max             =   1.0117952327407E-05
(PID.TID 0000.0001) %MON dynstat_wvel_min             =  -4.2077236317020E-05
(PID.TID 0000.0001) %MON dynstat_wvel_mean            =  -4.5708844793574E-23
(PID.TID 0000.0001) %MON dynstat_wvel_sd              =   4.3373617965161E-06
(PID.TID 0000.0001) %MON dynstat_wvel_del2            =   1.6460962908191E-06
(PID.TID 0000.0001) %MON dynstat_theta_max            =   2.0000976902293E+01
(PID.TID 0000.0001) %MON dynstat_theta_min            =   1.9955496057557E+01
(PID.TID 0000.0001) %MON dynstat_theta_mean           =   1.9999588359473E+01
(PID.TID 0000.0001) %MON dynstat_theta_sd             =   6.2982069459348E-03
(PID.TID 0000.0001) %MON dynstat_theta_del2           =   1.2189916619533E-03
(PID.TID 0000.0001) %MON dynstat_salt_max             =   3.5000000000000E+01
(PID.TID 0000.0001) %MON dynstat_salt_min             =   3.5000000000000E+01
(PID.TID 0000.0001) %MON dynstat_salt_mean            =   3.4999999999986E+01
(PID.TID 0000.0001) %MON dynstat_salt_sd              =   1.4040324458618E-11
(PID.TID 0000.0001) %MON dynstat_salt_del2            =   0.0000000000000E+00
(PID.TID 0000.0001) %MON advcfl_uvel_max              =   5.2757117140628E-05
(PID.TID 0000.0001) %MON advcfl_vvel_max              =   2.2032689450048E-04
(PID.TID 0000.0001) %MON advcfl_wvel_max              =   8.4154472634040E-04
(PID.TID 0000.0001) %MON advcfl_W_hf_max              =   8.4154472634040E-04
(PID.TID 0000.0001) %MON pe_b_mean                    =   2.6956554537754E-13
(PID.TID 0000.0001) %MON ke_max                       =   1.4850766414266E-10
(PID.TID 0000.0001) %MON ke_mean                      =   1.6750614865560E-12
(PID.TID 0000.0001) %MON ke_vol                       =   3.8082386146826E-02
(PID.TID 0000.0001) %MON vort_r_min                   =  -2.1053475445698E-04
(PID.TID 0000.0001) %MON vort_r_max                   =   2.1394303579622E-04
(PID.TID 0000.0001) %MON vort_a_mean                  =   5.0000000000007E-01
(PID.TID 0000.0001) %MON vort_a_sd                    =   1.0733680430281E-05
(PID.TID 0000.0001) %MON vort_p_mean                  =   5.3488372093032E-01
(PID.TID 0000.0001) %MON vort_p_sd                    =   2.2607235134370E-01
(PID.TID 0000.0001) %MON surfExpan_theta_mean         =   0.0000000000000E+00
(PID.TID 0000.0001) %MON surfExpan_salt_mean          =   0.0000000000000E+00
(PID.TID 0000.0001) // =======================================================
(PID.TID 0000.0001) // End MONITOR dynamic field statistics
(PID.TID 0000.0001) // =======================================================
 cg2d: Sum(rhs),rhsMax =  -1.18099974244501E-14  1.58422879614315E-06
(PID.TID 0000.0001)                    cg2d_init_res =    1.56200789938903E+00
(PID.TID 0000.0001)                       cg2d_iters =    40
(PID.TID 0000.0001)                         cg2d_res =    8.87824929852710E-08
 cg3d: Sum(rhs),rhsMax =   1.08579811808340E-13  5.55244819084142E-07
(PID.TID 0000.0001)                    cg3d_init_res =    5.03967323702374E+00
(PID.TID 0000.0001)                       cg3d_iters =    10
(PID.TID 0000.0001)                         cg3d_res =    5.70939153783583E-01
(PID.TID 0000.0001) // =======================================================
(PID.TID 0000.0001) // Begin MONITOR dynamic field statistics
(PID.TID 0000.0001) // =======================================================
(PID.TID 0000.0001) %MON time_tsnumber                =                     9
(PID.TID 0000.0001) %MON time_secondsf                =   9.0000000000000E-01
(PID.TID 0000.0001) %MON dynstat_eta_max              =   4.4580751317049E-08
(PID.TID 0000.0001) %MON dynstat_eta_min              =  -6.6270712447460E-07
(PID.TID 0000.0001) %MON dynstat_eta_mean             =   2.3462895231751E-08
(PID.TID 0000.0001) %MON dynstat_eta_sd               =   9.8094936951399E-08
(PID.TID 0000.0001) %MON dynstat_eta_del2             =   1.8714393731407E-08
(PID.TID 0000.0001) %MON dynstat_uvel_max             =   3.6766944997221E-06
(PID.TID 0000.0001) %MON dynstat_uvel_min             =  -3.6850394790154E-06
(PID.TID 0000.0001) %MON dynstat_uvel_mean            =   9.1702900313450E-13
(PID.TID 0000.0001) %MON dynstat_uvel_sd              =   3.4420806625654E-07
(PID.TID 0000.0001) %MON dynstat_uvel_del2            =   7.9966383139473E-08
(PID.TID 0000.0001) %MON dynstat_vvel_max             =   2.7344385252463E-05
(PID.TID 0000.0001) %MON dynstat_vvel_min             =  -2.7629978838918E-05
(PID.TID 0000.0001) %MON dynstat_vvel_mean            =  -4.6740679899676E-18
(PID.TID 0000.0001) %MON dynstat_vvel_sd              =   2.3055287313476E-06
(PID.TID 0000.0001) %MON dynstat_vvel_del2            =   1.2329345134190E-07
(PID.TID 0000.0001) %MON dynstat_wvel_max             =   1.2213718852200E-05
(PID.TID 0000.0001) %MON dynstat_wvel_min             =  -5.2385319165269E-05
(PID.TID 0000.0001) %MON dynstat_wvel_mean            =   2.6675861164096E-23
(PID.TID 0000.0001) %MON dynstat_wvel_sd              =   5.3999353041624E-06
(PID.TID 0000.0001) %MON dynstat_wvel_del2            =   1.9817400917516E-06
(PID.TID 0000.0001) %MON dynstat_theta_max            =   2.0000975506948E+01
(PID.TID 0000.0001) %MON dynstat_theta_min            =   1.9949988673689E+01
(PID.TID 0000.0001) %MON dynstat_theta_mean           =   1.9999473788108E+01
(PID.TID 0000.0001) %MON dynstat_theta_sd             =   7.0747047563044E-03
(PID.TID 0000.0001) %MON dynstat_theta_del2           =   1.3377318942673E-03
(PID.TID 0000.0001) %MON dynstat_salt_max             =   3.5000000000000E+01
(PID.TID 0000.0001) %MON dynstat_salt_min             =   3.5000000000000E+01
(PID.TID 0000.0001) %MON dynstat_salt_mean            =   3.4999999999986E+01
(PID.TID 0000.0001) %MON dynstat_salt_sd              =   1.4040324458618E-11
(PID.TID 0000.0001) %MON dynstat_salt_del2            =   0.0000000000000E+00
(PID.TID 0000.0001) %MON advcfl_uvel_max              =   7.4083231398831E-05
(PID.TID 0000.0001) %MON advcfl_vvel_max              =   2.7629978838918E-04
(PID.TID 0000.0001) %MON advcfl_wvel_max              =   1.0477063833054E-03
(PID.TID 0000.0001) %MON advcfl_W_hf_max              =   1.0477063833054E-03
(PID.TID 0000.0001) %MON pe_b_mean                    =   3.4413223276198E-13
(PID.TID 0000.0001) %MON ke_max                       =   2.3525400356792E-10
(PID.TID 0000.0001) %MON ke_mean                      =   2.5961649908117E-12
(PID.TID 0000.0001) %MON ke_vol                       =   3.8082386146826E-02
(PID.TID 0000.0001) %MON vort_r_min                   =  -2.8301888292728E-04
(PID.TID 0000.0001) %MON vort_r_max                   =   2.8423844145272E-04
(PID.TID 0000.0001) %MON vort_a_mean                  =   5.0000000000006E-01
(PID.TID 0000.0001) %MON vort_a_sd                    =   1.4982713739424E-05
(PID.TID 0000.0001) %MON vort_p_mean                  =   5.3488372093031E-01
(PID.TID 0000.0001) %MON vort_p_sd                    =   2.2607235277823E-01
(PID.TID 0000.0001) %MON surfExpan_theta_mean         =   0.0000000000000E+00
(PID.TID 0000.0001) %MON surfExpan_salt_mean          =   0.0000000000000E+00
(PID.TID 0000.0001) // =======================================================
(PID.TID 0000.0001) // End MONITOR dynamic field statistics
(PID.TID 0000.0001) // =======================================================
 cg2d: Sum(rhs),rhsMax =  -1.18412224470177E-14  1.73680195706935E-06
(PID.TID 0000.0001)                    cg2d_init_res =    1.41549310516756E+00
(PID.TID 0000.0001)                       cg2d_iters =    40
(PID.TID 0000.0001)                         cg2d_res =    7.99303834260374E-08
 cg3d: Sum(rhs),rhsMax =  -6.66446065000770E-14  6.08434615511278E-07
(PID.TID 0000.0001)                    cg3d_init_res =    4.57225135306525E+00
(PID.TID 0000.0001)                       cg3d_iters =    10
(PID.TID 0000.0001)                         cg3d_res =    4.70796636242195E-01
(PID.TID 0000.0001) // =======================================================
(PID.TID 0000.0001) // Begin MONITOR dynamic field statistics
(PID.TID 0000.0001) // =======================================================
(PID.TID 0000.0001) %MON time_tsnumber                =                    10
(PID.TID 0000.0001) %MON time_secondsf                =   1.0000000000000E+00
(PID.TID 0000.0001) %MON dynstat_eta_max              =   4.8941613574573E-08
(PID.TID 0000.0001) %MON dynstat_eta_min              =  -7.3794434728331E-07
(PID.TID 0000.0001) %MON dynstat_eta_mean             =   2.6183537196727E-08
(PID.TID 0000.0001) %MON dynstat_eta_sd               =   1.0933361363102E-07
(PID.TID 0000.0001) %MON dynstat_eta_del2             =   2.0430705899005E-08
(PID.TID 0000.0001) %MON dynstat_uvel_max             =   4.7588156568577E-06
(PID.TID 0000.0001) %MON dynstat_uvel_min             =  -4.7920922084359E-06
(PID.TID 0000.0001) %MON dynstat_uvel_mean            =   1.7220917147966E-12
(PID.TID 0000.0001) %MON dynstat_uvel_sd              =   4.6057325623070E-07
(PID.TID 0000.0001) %MON dynstat_uvel_del2            =   8.7057603677192E-08
(PID.TID 0000.0001) %MON dynstat_vvel_max             =   3.3493580643141E-05
(PID.TID 0000.0001) %MON dynstat_vvel_min             =  -3.3865615501945E-05
(PID.TID 0000.0001) %MON dynstat_vvel_mean            =  -5.2335316099587E-19
(PID.TID 0000.0001) %MON dynstat_vvel_sd              =   2.8017592904422E-06
(PID.TID 0000.0001) %MON dynstat_vvel_del2            =   1.4100666994393E-07
(PID.TID 0000.0001) %MON dynstat_wvel_max             =   1.3310878258283E-05
(PID.TID 0000.0001) %MON dynstat_wvel_min             =  -6.1664665266502E-05
(PID.TID 0000.0001) %MON dynstat_wvel_mean            =  -4.7106174636727E-23
(PID.TID 0000.0001) %MON dynstat_wvel_sd              =   6.5719083553334E-06
(PID.TID 0000.0001) %MON dynstat_wvel_del2            =   2.2566513513555E-06
(PID.TID 0000.0001) %MON dynstat_theta_max            =   2.0000974110405E+01
(PID.TID 0000.0001) %MON dynstat_theta_min            =   1.9944494543018E+01
(PID.TID 0000.0001) %MON dynstat_theta_mean           =   1.9999359248315E+01
(PID.TID 0000.0001) %MON dynstat_theta_sd             =   7.8491081215003E-03
(PID.TID 0000.0001) %MON dynstat_theta_del2           =   1.4558840143135E-03
(PID.TID 0000.0001) %MON dynstat_salt_max             =   3.5000000000000E+01
(PID.TID 0000.0001) %MON dynstat_salt_min             =   3.5000000000000E+01
(PID.TID 0000.0001) %MON dynstat_salt_mean            =   3.4999999999986E+01
(PID.TID 0000.0001) %MON dynstat_salt_sd              =   1.4040324458618E-11
(PID.TID 0000.0001) %MON dynstat_salt_del2            =   0.0000000000000E+00
(PID.TID 0000.0001) %MON advcfl_uvel_max              =   9.6339178449440E-05
(PID.TID 0000.0001) %MON advcfl_vvel_max              =   3.3865615501945E-04
(PID.TID 0000.0001) %MON advcfl_wvel_max              =   1.2332933053300E-03
(PID.TID 0000.0001) %MON advcfl_W_hf_max              =   1.2332933053300E-03
(PID.TID 0000.0001) %MON pe_b_mean                    =   4.2756095767728E-13
(PID.TID 0000.0001) %MON ke_max                       =   3.5517349106898E-10
(PID.TID 0000.0001) %MON ke_mean                      =   3.8525856247495E-12
(PID.TID 0000.0001) %MON ke_vol                       =   3.8082386146826E-02
(PID.TID 0000.0001) %MON vort_r_min                   =  -3.6634388209123E-04
(PID.TID 0000.0001) %MON vort_r_max                   =   3.7224268945576E-04
(PID.TID 0000.0001) %MON vort_a_mean                  =   5.0000000000007E-01
(PID.TID 0000.0001) %MON vort_a_sd                    =   2.0221213401717E-05
(PID.TID 0000.0001) %MON vort_p_mean                  =   5.3488372093032E-01
(PID.TID 0000.0001) %MON vort_p_sd                    =   2.2607235526108E-01
(PID.TID 0000.0001) %MON surfExpan_theta_mean         =   0.0000000000000E+00
(PID.TID 0000.0001) %MON surfExpan_salt_mean          =   0.0000000000000E+00
(PID.TID 0000.0001) // =======================================================
(PID.TID 0000.0001) // End MONITOR dynamic field statistics
(PID.TID 0000.0001) // =======================================================
 cg2d: Sum(rhs),rhsMax =  -2.83072176809895E-14  1.88890954638974E-06
(PID.TID 0000.0001)                    cg2d_init_res =    1.29303411112180E+00
(PID.TID 0000.0001)                       cg2d_iters =    39
(PID.TID 0000.0001)                         cg2d_res =    9.14242838370460E-08
 cg3d: Sum(rhs),rhsMax =   7.71362140827847E-14  6.61394222847313E-07
(PID.TID 0000.0001)                    cg3d_init_res =    4.17376791290886E+00
(PID.TID 0000.0001)                       cg3d_iters =    10
(PID.TID 0000.0001)                         cg3d_res =    4.67281167059666E-01
(PID.TID 0000.0001) // =======================================================
(PID.TID 0000.0001) // Begin MONITOR dynamic field statistics
(PID.TID 0000.0001) // =======================================================
(PID.TID 0000.0001) %MON time_tsnumber                =                    11
(PID.TID 0000.0001) %MON time_secondsf                =   1.1000000000000E+00
(PID.TID 0000.0001) %MON dynstat_eta_max              =   5.3299608854301E-08
(PID.TID 0000.0001) %MON dynstat_eta_min              =  -8.1295318387513E-07
(PID.TID 0000.0001) %MON dynstat_eta_mean             =   2.8901992796135E-08
(PID.TID 0000.0001) %MON dynstat_eta_sd               =   1.2054083021683E-07
(PID.TID 0000.0001) %MON dynstat_eta_del2             =   2.2139101873769E-08
(PID.TID 0000.0001) %MON dynstat_uvel_max             =   6.2607007410676E-06
(PID.TID 0000.0001) %MON dynstat_uvel_min             =  -6.2822245847605E-06
(PID.TID 0000.0001) %MON dynstat_uvel_mean            =   3.0289205047385E-12
(PID.TID 0000.0001) %MON dynstat_uvel_sd              =   6.0138836754330E-07
(PID.TID 0000.0001) %MON dynstat_uvel_del2            =   9.9441405357335E-08
(PID.TID 0000.0001) %MON dynstat_vvel_max             =   4.0132646132608E-05
(PID.TID 0000.0001) %MON dynstat_vvel_min             =  -4.0623825733932E-05
(PID.TID 0000.0001) %MON dynstat_vvel_mean            =   1.2317140331260E-17
(PID.TID 0000.0001) %MON dynstat_vvel_sd              =   3.3407281642927E-06
(PID.TID 0000.0001) %MON dynstat_vvel_del2            =   1.6272884659591E-07
(PID.TID 0000.0001) %MON dynstat_wvel_max             =   1.5442596227651E-05
(PID.TID 0000.0001) %MON dynstat_wvel_min             =  -7.3280981629519E-05
(PID.TID 0000.0001) %MON dynstat_wvel_mean            =  -1.7317172833204E-22
(PID.TID 0000.0001) %MON dynstat_wvel_sd              =   7.8600137725651E-06
(PID.TID 0000.0001) %MON dynstat_wvel_del2            =   2.6202456367181E-06
(PID.TID 0000.0001) %MON dynstat_theta_max            =   2.0000972712851E+01
(PID.TID 0000.0001) %MON dynstat_theta_min            =   1.9939013132618E+01
(PID.TID 0000.0001) %MON dynstat_theta_mean           =   1.9999244740006E+01
(PID.TID 0000.0001) %MON dynstat_theta_sd             =   8.6213920422775E-03
(PID.TID 0000.0001) %MON dynstat_theta_del2           =   1.5734960515998E-03
(PID.TID 0000.0001) %MON dynstat_salt_max             =   3.5000000000000E+01
(PID.TID 0000.0001) %MON dynstat_salt_min             =   3.5000000000000E+01
(PID.TID 0000.0001) %MON dynstat_salt_mean            =   3.4999999999986E+01
(PID.TID 0000.0001) %MON dynstat_salt_sd              =   1.4040324458618E-11
(PID.TID 0000.0001) %MON dynstat_salt_del2            =   0.0000000000000E+00
(PID.TID 0000.0001) %MON advcfl_uvel_max              =   1.2629647531933E-04
(PID.TID 0000.0001) %MON advcfl_vvel_max              =   4.0623825733932E-04
(PID.TID 0000.0001) %MON advcfl_wvel_max              =   1.4656196325904E-03
(PID.TID 0000.0001) %MON advcfl_W_hf_max              =   1.4656196325904E-03
(PID.TID 0000.0001) %MON pe_b_mean                    =   5.1977496603948E-13
(PID.TID 0000.0001) %MON ke_max                       =   5.1550583799756E-10
(PID.TID 0000.0001) %MON ke_mean                      =   5.5074193938943E-12
(PID.TID 0000.0001) %MON ke_vol                       =   3.8082386146826E-02
(PID.TID 0000.0001) %MON vort_r_min                   =  -4.6928348084597E-04
(PID.TID 0000.0001) %MON vort_r_max                   =   4.7265519313614E-04
(PID.TID 0000.0001) %MON vort_a_mean                  =   5.0000000000007E-01
(PID.TID 0000.0001) %MON vort_a_sd                    =   2.6585849439011E-05
(PID.TID 0000.0001) %MON vort_p_mean                  =   5.3488372093032E-01
(PID.TID 0000.0001) %MON vort_p_sd                    =   2.2607235933840E-01
(PID.TID 0000.0001) %MON surfExpan_theta_mean         =   0.0000000000000E+00
(PID.TID 0000.0001) %MON surfExpan_salt_mean          =   0.0000000000000E+00
(PID.TID 0000.0001) // =======================================================
(PID.TID 0000.0001) // End MONITOR dynamic field statistics
(PID.TID 0000.0001) // =======================================================
 cg2d: Sum(rhs),rhsMax =   3.91492394058446E-14  2.04139858323242E-06
(PID.TID 0000.0001)                    cg2d_init_res =    1.18867401824139E+00
(PID.TID 0000.0001)                       cg2d_iters =    39
(PID.TID 0000.0001)                         cg2d_res =    8.35899047551660E-08
 cg3d: Sum(rhs),rhsMax =  -1.40335659759572E-13  7.14557778604141E-07
(PID.TID 0000.0001)                    cg3d_init_res =    3.83928772638545E+00
(PID.TID 0000.0001)                       cg3d_iters =    10
(PID.TID 0000.0001)                         cg3d_res =    4.00633323387458E-01
(PID.TID 0000.0001) // =======================================================
(PID.TID 0000.0001) // Begin MONITOR dynamic field statistics
(PID.TID 0000.0001) // =======================================================
(PID.TID 0000.0001) %MON time_tsnumber                =                    12
(PID.TID 0000.0001) %MON time_secondsf                =   1.2000000000000E+00
(PID.TID 0000.0001) %MON dynstat_eta_max              =   5.7654621761784E-08
(PID.TID 0000.0001) %MON dynstat_eta_min              =  -8.8773384611968E-07
(PID.TID 0000.0001) %MON dynstat_eta_mean             =   3.1618190285930E-08
(PID.TID 0000.0001) %MON dynstat_eta_sd               =   1.3171616720332E-07
(PID.TID 0000.0001) %MON dynstat_eta_del2             =   2.3839493619010E-08
(PID.TID 0000.0001) %MON dynstat_uvel_max             =   7.8244204756299E-06
(PID.TID 0000.0001) %MON dynstat_uvel_min             =  -7.8782745502186E-06
(PID.TID 0000.0001) %MON dynstat_uvel_mean            =   5.0526035717727E-12
(PID.TID 0000.0001) %MON dynstat_uvel_sd              =   7.6748662682298E-07
(PID.TID 0000.0001) %MON dynstat_uvel_del2            =   1.0746425380612E-07
(PID.TID 0000.0001) %MON dynstat_vvel_max             =   4.7384572726315E-05
(PID.TID 0000.0001) %MON dynstat_vvel_min             =  -4.7993675976380E-05
(PID.TID 0000.0001) %MON dynstat_vvel_mean            =  -6.2031832243025E-17
(PID.TID 0000.0001) %MON dynstat_vvel_sd              =   3.9247792902786E-06
(PID.TID 0000.0001) %MON dynstat_vvel_del2            =   1.8164886047386E-07
(PID.TID 0000.0001) %MON dynstat_wvel_max             =   1.6558642243013E-05
(PID.TID 0000.0001) %MON dynstat_wvel_min             =  -8.4093204705183E-05
(PID.TID 0000.0001) %MON dynstat_wvel_mean            =   1.1474998303449E-22
(PID.TID 0000.0001) %MON dynstat_wvel_sd              =   9.2561985589554E-06
(PID.TID 0000.0001) %MON dynstat_wvel_del2            =   2.9211632735644E-06
(PID.TID 0000.0001) %MON dynstat_theta_max            =   2.0000971314328E+01
(PID.TID 0000.0001) %MON dynstat_theta_min            =   1.9933543812094E+01
(PID.TID 0000.0001) %MON dynstat_theta_mean           =   1.9999130263090E+01
(PID.TID 0000.0001) %MON dynstat_theta_sd             =   9.3915445812665E-03
(PID.TID 0000.0001) %MON dynstat_theta_del2           =   1.6905864861248E-03
(PID.TID 0000.0001) %MON dynstat_salt_max             =   3.5000000000000E+01
(PID.TID 0000.0001) %MON dynstat_salt_min             =   3.5000000000000E+01
(PID.TID 0000.0001) %MON dynstat_salt_mean            =   3.4999999999986E+01
(PID.TID 0000.0001) %MON dynstat_salt_sd              =   1.4040324458618E-11
(PID.TID 0000.0001) %MON dynstat_salt_del2            =   0.0000000000000E+00
(PID.TID 0000.0001) %MON advcfl_uvel_max              =   1.5838311634135E-04
(PID.TID 0000.0001) %MON advcfl_vvel_max              =   4.7993675976380E-04
(PID.TID 0000.0001) %MON advcfl_wvel_max              =   1.6818640941037E-03
(PID.TID 0000.0001) %MON advcfl_W_hf_max              =   1.6818640941037E-03
(PID.TID 0000.0001) %MON pe_b_mean                    =   6.2069759810863E-13
(PID.TID 0000.0001) %MON ke_max                       =   7.2399474149927E-10
(PID.TID 0000.0001) %MON ke_mean                      =   7.6463756344909E-12
(PID.TID 0000.0001) %MON ke_vol                       =   3.8082386146826E-02
(PID.TID 0000.0001) %MON vort_r_min                   =  -5.8678295014501E-04
(PID.TID 0000.0001) %MON vort_r_max                   =   5.9614839467895E-04
(PID.TID 0000.0001) %MON vort_a_mean                  =   5.0000000000007E-01
(PID.TID 0000.0001) %MON vort_a_sd                    =   3.4137672457937E-05
(PID.TID 0000.0001) %MON vort_p_mean                  =   5.3488372093031E-01
(PID.TID 0000.0001) %MON vort_p_sd                    =   2.2607236570534E-01
(PID.TID 0000.0001) %MON surfExpan_theta_mean         =   0.0000000000000E+00
(PID.TID 0000.0001) %MON surfExpan_salt_mean          =   0.0000000000000E+00
(PID.TID 0000.0001) // =======================================================
(PID.TID 0000.0001) // End MONITOR dynamic field statistics
(PID.TID 0000.0001) // =======================================================
 cg2d: Sum(rhs),rhsMax =   3.43440553773888E-14  2.19372455030179E-06
(PID.TID 0000.0001)                    cg2d_init_res =    1.09896600042539E+00
(PID.TID 0000.0001)                       cg2d_iters =    39
(PID.TID 0000.0001)                         cg2d_res =    7.83484844051992E-08
 cg3d: Sum(rhs),rhsMax =   1.25417037866171E-13  7.67395610769476E-07
(PID.TID 0000.0001)                    cg3d_init_res =    3.54839137189408E+00
(PID.TID 0000.0001)                       cg3d_iters =    10
(PID.TID 0000.0001)                         cg3d_res =    3.92728198605373E-01
(PID.TID 0000.0001) // =======================================================
(PID.TID 0000.0001) // Begin MONITOR dynamic field statistics
(PID.TID 0000.0001) // =======================================================
(PID.TID 0000.0001) %MON time_tsnumber                =                    13
(PID.TID 0000.0001) %MON time_secondsf                =   1.3000000000000E+00
(PID.TID 0000.0001) %MON dynstat_eta_max              =   6.2006536767535E-08
(PID.TID 0000.0001) %MON dynstat_eta_min              =  -9.6228568777452E-07
(PID.TID 0000.0001) %MON dynstat_eta_mean             =   3.4332059893246E-08
(PID.TID 0000.0001) %MON dynstat_eta_sd               =   1.4285933588597E-07
(PID.TID 0000.0001) %MON dynstat_eta_del2             =   2.5533699105880E-08
(PID.TID 0000.0001) %MON dynstat_uvel_max             =   9.8360836382666E-06
(PID.TID 0000.0001) %MON dynstat_uvel_min             =  -9.8781821244201E-06
(PID.TID 0000.0001) %MON dynstat_uvel_mean            =   8.0707730413636E-12
(PID.TID 0000.0001) %MON dynstat_uvel_sd              =   9.6173640373514E-07
(PID.TID 0000.0001) %MON dynstat_uvel_del2            =   1.2071904153519E-07
(PID.TID 0000.0001) %MON dynstat_vvel_max             =   5.5097103746867E-05
(PID.TID 0000.0001) %MON dynstat_vvel_min             =  -5.5859012132162E-05
(PID.TID 0000.0001) %MON dynstat_vvel_mean            =   6.9688612730423E-17
(PID.TID 0000.0001) %MON dynstat_vvel_sd              =   4.5505152913063E-06
(PID.TID 0000.0001) %MON dynstat_vvel_del2            =   2.0457907175193E-07
(PID.TID 0000.0001) %MON dynstat_wvel_max             =   1.8835731568125E-05
(PID.TID 0000.0001) %MON dynstat_wvel_min             =  -9.7164108601916E-05
(PID.TID 0000.0001) %MON dynstat_wvel_mean            =   2.6319674137408E-22
(PID.TID 0000.0001) %MON dynstat_wvel_sd              =   1.0766109733883E-05
(PID.TID 0000.0001) %MON dynstat_wvel_del2            =   3.3042256407164E-06
(PID.TID 0000.0001) %MON dynstat_theta_max            =   2.0000969915031E+01
(PID.TID 0000.0001) %MON dynstat_theta_min            =   1.9928085977679E+01
(PID.TID 0000.0001) %MON dynstat_theta_mean           =   1.9999015817477E+01
(PID.TID 0000.0001) %MON dynstat_theta_sd             =   1.0159561795767E-02
(PID.TID 0000.0001) %MON dynstat_theta_del2           =   1.8073212300110E-03
(PID.TID 0000.0001) %MON dynstat_salt_max             =   3.5000000000000E+01
(PID.TID 0000.0001) %MON dynstat_salt_min             =   3.5000000000000E+01
(PID.TID 0000.0001) %MON dynstat_salt_mean            =   3.4999999999986E+01
(PID.TID 0000.0001) %MON dynstat_salt_sd              =   1.4040324458618E-11
(PID.TID 0000.0001) %MON dynstat_salt_del2            =   0.0000000000000E+00
(PID.TID 0000.0001) %MON advcfl_uvel_max              =   1.9858882280380E-04
(PID.TID 0000.0001) %MON advcfl_vvel_max              =   5.5859012132162E-04
(PID.TID 0000.0001) %MON advcfl_wvel_max              =   1.9432821720383E-03
(PID.TID 0000.0001) %MON advcfl_W_hf_max              =   1.9432821720383E-03
(PID.TID 0000.0001) %MON pe_b_mean                    =   7.3025234699135E-13
(PID.TID 0000.0001) %MON ke_max                       =   9.8962553532053E-10
(PID.TID 0000.0001) %MON ke_mean                      =   1.0345445222088E-11
(PID.TID 0000.0001) %MON ke_vol                       =   3.8082386146826E-02
(PID.TID 0000.0001) %MON vort_r_min                   =  -7.2480066014823E-04
(PID.TID 0000.0001) %MON vort_r_max                   =   7.3168600611056E-04
(PID.TID 0000.0001) %MON vort_a_mean                  =   5.0000000000007E-01
(PID.TID 0000.0001) %MON vort_a_sd                    =   4.2998672976396E-05
(PID.TID 0000.0001) %MON vort_p_mean                  =   5.3488372093031E-01
(PID.TID 0000.0001) %MON vort_p_sd                    =   2.2607237529228E-01
(PID.TID 0000.0001) %MON surfExpan_theta_mean         =   0.0000000000000E+00
(PID.TID 0000.0001) %MON surfExpan_salt_mean          =   0.0000000000000E+00
(PID.TID 0000.0001) // =======================================================
(PID.TID 0000.0001) // End MONITOR dynamic field statistics
(PID.TID 0000.0001) // =======================================================
 cg2d: Sum(rhs),rhsMax =  -8.47932835057463E-15  2.34545733261254E-06
(PID.TID 0000.0001)                    cg2d_init_res =    1.02122425558396E+00
(PID.TID 0000.0001)                       cg2d_iters =    39
(PID.TID 0000.0001)                         cg2d_res =    7.49388763666661E-08
 cg3d: Sum(rhs),rhsMax =  -7.82880704708333E-14  8.19940565340739E-07
(PID.TID 0000.0001)                    cg3d_init_res =    3.29971121138200E+00
(PID.TID 0000.0001)                       cg3d_iters =    10
(PID.TID 0000.0001)                         cg3d_res =    3.47198061507136E-01
(PID.TID 0000.0001) // =======================================================
(PID.TID 0000.0001) // Begin MONITOR dynamic field statistics
(PID.TID 0000.0001) // =======================================================
(PID.TID 0000.0001) %MON time_tsnumber                =                    14
(PID.TID 0000.0001) %MON time_secondsf                =   1.4000000000000E+00
(PID.TID 0000.0001) %MON dynstat_eta_max              =   6.6355213741291E-08
(PID.TID 0000.0001) %MON dynstat_eta_min              =  -1.0366087691363E-06
(PID.TID 0000.0001) %MON dynstat_eta_mean             =   3.7043516542891E-08
(PID.TID 0000.0001) %MON dynstat_eta_sd               =   1.5397011368145E-07
(PID.TID 0000.0001) %MON dynstat_eta_del2             =   2.7222696252052E-08
(PID.TID 0000.0001) %MON dynstat_uvel_max             =   1.1956970912138E-05
(PID.TID 0000.0001) %MON dynstat_uvel_min             =  -1.2038415412416E-05
(PID.TID 0000.0001) %MON dynstat_uvel_mean            =   1.2428694264486E-11
(PID.TID 0000.0001) %MON dynstat_uvel_sd              =   1.1851759346530E-06
(PID.TID 0000.0001) %MON dynstat_uvel_del2            =   1.3040967270281E-07
(PID.TID 0000.0001) %MON dynstat_vvel_max             =   6.3400297423501E-05
(PID.TID 0000.0001) %MON dynstat_vvel_min             =  -6.4311612997660E-05
(PID.TID 0000.0001) %MON dynstat_vvel_mean            =  -1.9260898757067E-17
(PID.TID 0000.0001) %MON dynstat_vvel_sd              =   5.2197241679637E-06
(PID.TID 0000.0001) %MON dynstat_vvel_del2            =   2.2483176780297E-07
(PID.TID 0000.0001) %MON dynstat_wvel_max             =   2.0912319211328E-05
(PID.TID 0000.0001) %MON dynstat_wvel_min             =  -1.0950691643278E-04
(PID.TID 0000.0001) %MON dynstat_wvel_mean            =   8.3841262426492E-23
(PID.TID 0000.0001) %MON dynstat_wvel_sd              =   1.2383185759773E-05
(PID.TID 0000.0001) %MON dynstat_wvel_del2            =   3.6327378488882E-06
(PID.TID 0000.0001) %MON dynstat_theta_max            =   2.0000968514992E+01
(PID.TID 0000.0001) %MON dynstat_theta_min            =   1.9922638924928E+01
(PID.TID 0000.0001) %MON dynstat_theta_mean           =   1.9998901403078E+01
(PID.TID 0000.0001) %MON dynstat_theta_sd             =   1.0925444840334E-02
(PID.TID 0000.0001) %MON dynstat_theta_del2           =   1.9236640388374E-03
(PID.TID 0000.0001) %MON dynstat_salt_max             =   3.5000000000000E+01
(PID.TID 0000.0001) %MON dynstat_salt_min             =   3.5000000000000E+01
(PID.TID 0000.0001) %MON dynstat_salt_mean            =   3.4999999999986E+01
(PID.TID 0000.0001) %MON dynstat_salt_sd              =   1.4040324458618E-11
(PID.TID 0000.0001) %MON dynstat_salt_del2            =   0.0000000000000E+00
(PID.TID 0000.0001) %MON advcfl_uvel_max              =   2.4201768251112E-04
(PID.TID 0000.0001) %MON advcfl_vvel_max              =   6.4311612997660E-04
(PID.TID 0000.0001) %MON advcfl_wvel_max              =   2.1901383286556E-03
(PID.TID 0000.0001) %MON advcfl_W_hf_max              =   2.1901383286556E-03
(PID.TID 0000.0001) %MON pe_b_mean                    =   8.4836264422285E-13
(PID.TID 0000.0001) %MON ke_max                       =   1.3214316476766E-09
(PID.TID 0000.0001) %MON ke_mean                      =   1.3705864820434E-11
(PID.TID 0000.0001) %MON ke_vol                       =   3.8082386146826E-02
(PID.TID 0000.0001) %MON vort_r_min                   =  -8.8268463634274E-04
(PID.TID 0000.0001) %MON vort_r_max                   =   8.9691342377954E-04
(PID.TID 0000.0001) %MON vort_a_mean                  =   5.0000000000007E-01
(PID.TID 0000.0001) %MON vort_a_sd                    =   5.3236518792440E-05
(PID.TID 0000.0001) %MON vort_p_mean                  =   5.3488372093031E-01
(PID.TID 0000.0001) %MON vort_p_sd                    =   2.2607238923688E-01
(PID.TID 0000.0001) %MON surfExpan_theta_mean         =   0.0000000000000E+00
(PID.TID 0000.0001) %MON surfExpan_salt_mean          =   0.0000000000000E+00
(PID.TID 0000.0001) // =======================================================
(PID.TID 0000.0001) // End MONITOR dynamic field statistics
(PID.TID 0000.0001) // =======================================================
 cg2d: Sum(rhs),rhsMax =   3.86982113020906E-14  2.49657937553187E-06
(PID.TID 0000.0001)                    cg2d_init_res =    9.53217699414115E-01
(PID.TID 0000.0001)                       cg2d_iters =    39
(PID.TID 0000.0001)                         cg2d_res =    7.27702546977710E-08
 cg3d: Sum(rhs),rhsMax =  -1.39662587050893E-13  8.72134224741731E-07
(PID.TID 0000.0001)                    cg3d_init_res =    3.07959940895620E+00
(PID.TID 0000.0001)                       cg3d_iters =    10
(PID.TID 0000.0001)                         cg3d_res =    3.37383091851426E-01
(PID.TID 0000.0001) // =======================================================
(PID.TID 0000.0001) // Begin MONITOR dynamic field statistics
(PID.TID 0000.0001) // =======================================================
(PID.TID 0000.0001) %MON time_tsnumber                =                    15
(PID.TID 0000.0001) %MON time_secondsf                =   1.5000000000000E+00
(PID.TID 0000.0001) %MON dynstat_eta_max              =   7.0700506389302E-08
(PID.TID 0000.0001) %MON dynstat_eta_min              =  -1.1107022384508E-06
(PID.TID 0000.0001) %MON dynstat_eta_mean             =   3.9752478119136E-08
(PID.TID 0000.0001) %MON dynstat_eta_sd               =   1.6504832633265E-07
(PID.TID 0000.0001) %MON dynstat_eta_del2             =   2.8905985743769E-08
(PID.TID 0000.0001) %MON dynstat_uvel_max             =   1.4551359633234E-05
(PID.TID 0000.0001) %MON dynstat_uvel_min             =  -1.4621972464131E-05
(PID.TID 0000.0001) %MON dynstat_uvel_mean            =   1.8554682988962E-11
(PID.TID 0000.0001) %MON dynstat_uvel_sd              =   1.4403776948147E-06
(PID.TID 0000.0001) %MON dynstat_uvel_del2            =   1.4506968364716E-07
(PID.TID 0000.0001) %MON dynstat_vvel_max             =   7.2134027013967E-05
(PID.TID 0000.0001) %MON dynstat_vvel_min             =  -7.3230371129855E-05
(PID.TID 0000.0001) %MON dynstat_vvel_mean            =   4.3908330405334E-17
(PID.TID 0000.0001) %MON dynstat_vvel_sd              =   5.9293423136296E-06
(PID.TID 0000.0001) %MON dynstat_vvel_del2            =   2.4884905039776E-07
(PID.TID 0000.0001) %MON dynstat_wvel_max             =   2.3702399924362E-05
(PID.TID 0000.0001) %MON dynstat_wvel_min             =  -1.2410999003393E-04
(PID.TID 0000.0001) %MON dynstat_wvel_mean            =   1.7560545886960E-22
(PID.TID 0000.0001) %MON dynstat_wvel_sd              =   1.4110845346859E-05
(PID.TID 0000.0001) %MON dynstat_wvel_del2            =   4.0344705578081E-06
(PID.TID 0000.0001) %MON dynstat_theta_max            =   2.0000967114401E+01
(PID.TID 0000.0001) %MON dynstat_theta_min            =   1.9917201985829E+01
(PID.TID 0000.0001) %MON dynstat_theta_mean           =   1.9998787019805E+01
(PID.TID 0000.0001) %MON dynstat_theta_sd             =   1.1689198228143E-02
(PID.TID 0000.0001) %MON dynstat_theta_del2           =   2.0396153916911E-03
(PID.TID 0000.0001) %MON dynstat_salt_max             =   3.5000000000000E+01
(PID.TID 0000.0001) %MON dynstat_salt_min             =   3.5000000000000E+01
(PID.TID 0000.0001) %MON dynstat_salt_mean            =   3.4999999999986E+01
(PID.TID 0000.0001) %MON dynstat_salt_sd              =   1.4040324458618E-11
(PID.TID 0000.0001) %MON dynstat_salt_del2            =   0.0000000000000E+00
(PID.TID 0000.0001) %MON advcfl_uvel_max              =   2.9395695100042E-04
(PID.TID 0000.0001) %MON advcfl_vvel_max              =   7.3230371129855E-04
(PID.TID 0000.0001) %MON advcfl_wvel_max              =   2.4821998006786E-03
(PID.TID 0000.0001) %MON advcfl_W_hf_max              =   2.4821998006786E-03
(PID.TID 0000.0001) %MON pe_b_mean                    =   9.7495195036278E-13
(PID.TID 0000.0001) %MON ke_max                       =   1.7295611427422E-09
(PID.TID 0000.0001) %MON ke_mean                      =   1.7816869081940E-11
(PID.TID 0000.0001) %MON ke_vol                       =   3.8082386146826E-02
(PID.TID 0000.0001) %MON vort_r_min                   =  -1.0608195588964E-03
(PID.TID 0000.0001) %MON vort_r_max                   =   1.0728948591495E-03
(PID.TID 0000.0001) %MON vort_a_mean                  =   5.0000000000006E-01
(PID.TID 0000.0001) %MON vort_a_sd                    =   6.4962190733652E-05
(PID.TID 0000.0001) %MON vort_p_mean                  =   5.3488372093031E-01
(PID.TID 0000.0001) %MON vort_p_sd                    =   2.2607240898646E-01
(PID.TID 0000.0001) %MON surfExpan_theta_mean         =   0.0000000000000E+00
(PID.TID 0000.0001) %MON surfExpan_salt_mean          =   0.0000000000000E+00
(PID.TID 0000.0001) // =======================================================
(PID.TID 0000.0001) // End MONITOR dynamic field statistics
(PID.TID 0000.0001) // =======================================================
 cg2d: Sum(rhs),rhsMax =   5.05567809838681E-14  2.64709996564022E-06
(PID.TID 0000.0001)                    cg2d_init_res =    8.93228673806268E-01
(PID.TID 0000.0001)                       cg2d_iters =    38
(PID.TID 0000.0001)                         cg2d_res =    9.81017553352477E-08
 cg3d: Sum(rhs),rhsMax =  -2.97598751197725E-13  9.24012470950018E-07
(PID.TID 0000.0001)                    cg3d_init_res =    2.88762664961506E+00
(PID.TID 0000.0001)                       cg3d_iters =    10
(PID.TID 0000.0001)                         cg3d_res =    3.04630049686491E-01
(PID.TID 0000.0001) // =======================================================
(PID.TID 0000.0001) // Begin MONITOR dynamic field statistics
(PID.TID 0000.0001) // =======================================================
(PID.TID 0000.0001) %MON time_tsnumber                =                    16
(PID.TID 0000.0001) %MON time_secondsf                =   1.6000000000000E+00
(PID.TID 0000.0001) %MON dynstat_eta_max              =   7.5042256084321E-08
(PID.TID 0000.0001) %MON dynstat_eta_min              =  -1.1845659849290E-06
(PID.TID 0000.0001) %MON dynstat_eta_mean             =   4.2458846381499E-08
(PID.TID 0000.0001) %MON dynstat_eta_sd               =   1.7609381654575E-07
(PID.TID 0000.0001) %MON dynstat_eta_del2             =   3.0582948315362E-08
(PID.TID 0000.0001) %MON dynstat_uvel_max             =   1.7300108407459E-05
(PID.TID 0000.0001) %MON dynstat_uvel_min             =  -1.7416086434994E-05
(PID.TID 0000.0001) %MON dynstat_uvel_mean            =   2.6963885201349E-11
(PID.TID 0000.0001) %MON dynstat_uvel_sd              =   1.7285112928934E-06
(PID.TID 0000.0001) %MON dynstat_uvel_del2            =   1.5695172352848E-07
(PID.TID 0000.0001) %MON dynstat_vvel_max             =   8.1436929252267E-05
(PID.TID 0000.0001) %MON dynstat_vvel_min             =  -8.2711894688825E-05
(PID.TID 0000.0001) %MON dynstat_vvel_mean            =  -1.5301891239108E-17
(PID.TID 0000.0001) %MON dynstat_vvel_sd              =   6.6807932957548E-06
(PID.TID 0000.0001) %MON dynstat_vvel_del2            =   2.7052091793990E-07
(PID.TID 0000.0001) %MON dynstat_wvel_max             =   2.6005328262232E-05
(PID.TID 0000.0001) %MON dynstat_wvel_min             =  -1.3908521714409E-04
(PID.TID 0000.0001) %MON dynstat_wvel_mean            =   3.0314907082225E-22
(PID.TID 0000.0001) %MON dynstat_wvel_sd              =   1.5944338987740E-05
(PID.TID 0000.0001) %MON dynstat_wvel_del2            =   4.3906484671736E-06
(PID.TID 0000.0001) %MON dynstat_theta_max            =   2.0000965713290E+01
(PID.TID 0000.0001) %MON dynstat_theta_min            =   1.9911774390870E+01
(PID.TID 0000.0001) %MON dynstat_theta_mean           =   1.9998672667570E+01
(PID.TID 0000.0001) %MON dynstat_theta_sd             =   1.2450828743606E-02
(PID.TID 0000.0001) %MON dynstat_theta_del2           =   2.1551472739708E-03
(PID.TID 0000.0001) %MON dynstat_salt_max             =   3.5000000000000E+01
(PID.TID 0000.0001) %MON dynstat_salt_min             =   3.5000000000000E+01
(PID.TID 0000.0001) %MON dynstat_salt_mean            =   3.4999999999986E+01
(PID.TID 0000.0001) %MON dynstat_salt_sd              =   1.4040324458618E-11
(PID.TID 0000.0001) %MON dynstat_salt_del2            =   0.0000000000000E+00
(PID.TID 0000.0001) %MON advcfl_uvel_max              =   3.5012920995095E-04
(PID.TID 0000.0001) %MON advcfl_vvel_max              =   8.2711894688825E-04
(PID.TID 0000.0001) %MON advcfl_wvel_max              =   2.7817043428818E-03
(PID.TID 0000.0001) %MON advcfl_W_hf_max              =   2.7817043428818E-03
(PID.TID 0000.0001) %MON pe_b_mean                    =   1.1099435148385E-12
(PID.TID 0000.0001) %MON ke_max                       =   2.2247421834393E-09
(PID.TID 0000.0001) %MON ke_mean                      =   2.2795988833202E-11
(PID.TID 0000.0001) %MON ke_vol                       =   3.8082386146826E-02
(PID.TID 0000.0001) %MON vort_r_min                   =  -1.2643579888259E-03
(PID.TID 0000.0001) %MON vort_r_max                   =   1.2852560692612E-03
(PID.TID 0000.0001) %MON vort_a_mean                  =   5.0000000000007E-01
(PID.TID 0000.0001) %MON vort_a_sd                    =   7.8246518868476E-05
(PID.TID 0000.0001) %MON vort_p_mean                  =   5.3488372093031E-01
(PID.TID 0000.0001) %MON vort_p_sd                    =   2.2607243626168E-01
(PID.TID 0000.0001) %MON surfExpan_theta_mean         =   0.0000000000000E+00
(PID.TID 0000.0001) %MON surfExpan_salt_mean          =   0.0000000000000E+00
(PID.TID 0000.0001) // =======================================================
(PID.TID 0000.0001) // End MONITOR dynamic field statistics
(PID.TID 0000.0001) // =======================================================
 cg2d: Sum(rhs),rhsMax =  -2.78943534937071E-14  2.79700113286517E-06
(PID.TID 0000.0001)                    cg2d_init_res =    8.39928943249524E-01
(PID.TID 0000.0001)                       cg2d_iters =    38
(PID.TID 0000.0001)                         cg2d_res =    9.54372247972668E-08
 cg3d: Sum(rhs),rhsMax =   3.70783265202235E-13  9.75521912231354E-07
(PID.TID 0000.0001)                    cg3d_init_res =    2.71532073480243E+00
(PID.TID 0000.0001)                       cg3d_iters =    10
(PID.TID 0000.0001)                         cg3d_res =    2.94545211218172E-01
(PID.TID 0000.0001) // =======================================================
(PID.TID 0000.0001) // Begin MONITOR dynamic field statistics
(PID.TID 0000.0001) // =======================================================
(PID.TID 0000.0001) %MON time_tsnumber                =                    17
(PID.TID 0000.0001) %MON time_secondsf                =   1.7000000000000E+00
(PID.TID 0000.0001) %MON dynstat_eta_max              =   7.9380250415008E-08
(PID.TID 0000.0001) %MON dynstat_eta_min              =  -1.2581990019446E-06
(PID.TID 0000.0001) %MON dynstat_eta_mean             =   4.5162527154124E-08
(PID.TID 0000.0001) %MON dynstat_eta_sd               =   1.8710644470414E-07
(PID.TID 0000.0001) %MON dynstat_eta_del2             =   3.2254276415738E-08
(PID.TID 0000.0001) %MON dynstat_uvel_max             =   2.0546673658341E-05
(PID.TID 0000.0001) %MON dynstat_uvel_min             =  -2.0652454959713E-05
(PID.TID 0000.0001) %MON dynstat_uvel_mean            =   3.8276873252416E-11
(PID.TID 0000.0001) %MON dynstat_uvel_sd              =   2.0519094802335E-06
(PID.TID 0000.0001) %MON dynstat_uvel_del2            =   1.7353094367428E-07
(PID.TID 0000.0001) %MON dynstat_vvel_max             =   9.1141224679979E-05
(PID.TID 0000.0001) %MON dynstat_vvel_min             =  -9.2629321046192E-05
(PID.TID 0000.0001) %MON dynstat_vvel_mean            =   1.0190777783356E-16
(PID.TID 0000.0001) %MON dynstat_vvel_sd              =   7.4712203877540E-06
(PID.TID 0000.0001) %MON dynstat_vvel_del2            =   2.9562281212415E-07
(PID.TID 0000.0001) %MON dynstat_wvel_max             =   2.8979123279123E-05
(PID.TID 0000.0001) %MON dynstat_wvel_min             =  -1.5505235977685E-04
(PID.TID 0000.0001) %MON dynstat_wvel_mean            =   2.8004291896531E-22
(PID.TID 0000.0001) %MON dynstat_wvel_sd              =   1.7885067254367E-05
(PID.TID 0000.0001) %MON dynstat_wvel_del2            =   4.8116291278766E-06
(PID.TID 0000.0001) %MON dynstat_theta_max            =   2.0000964311840E+01
(PID.TID 0000.0001) %MON dynstat_theta_min            =   1.9906355415059E+01
(PID.TID 0000.0001) %MON dynstat_theta_mean           =   1.9998558346284E+01
(PID.TID 0000.0001) %MON dynstat_theta_sd             =   1.3210344739220E-02
(PID.TID 0000.0001) %MON dynstat_theta_del2           =   2.2702686894801E-03
(PID.TID 0000.0001) %MON dynstat_salt_max             =   3.5000000000000E+01
(PID.TID 0000.0001) %MON dynstat_salt_min             =   3.5000000000000E+01
(PID.TID 0000.0001) %MON dynstat_salt_mean            =   3.4999999999986E+01
(PID.TID 0000.0001) %MON dynstat_salt_sd              =   1.4040324458618E-11
(PID.TID 0000.0001) %MON dynstat_salt_del2            =   0.0000000000000E+00
(PID.TID 0000.0001) %MON advcfl_uvel_max              =   4.1519245816686E-04
(PID.TID 0000.0001) %MON advcfl_vvel_max              =   9.2629321046192E-04
(PID.TID 0000.0001) %MON advcfl_wvel_max              =   3.1010471955369E-03
(PID.TID 0000.0001) %MON advcfl_W_hf_max              =   3.1010471955369E-03
(PID.TID 0000.0001) %MON pe_b_mean                    =   1.2532604991067E-12
(PID.TID 0000.0001) %MON ke_max                       =   2.8180141849683E-09
(PID.TID 0000.0001) %MON ke_mean                      =   2.8746116615764E-11
(PID.TID 0000.0001) %MON ke_vol                       =   3.8082386146826E-02
(PID.TID 0000.0001) %MON vort_r_min                   =  -1.4907203887506E-03
(PID.TID 0000.0001) %MON vort_r_max                   =   1.5088405274651E-03
(PID.TID 0000.0001) %MON vort_a_mean                  =   5.0000000000007E-01
(PID.TID 0000.0001) %MON vort_a_sd                    =   9.3191491303985E-05
(PID.TID 0000.0001) %MON vort_p_mean                  =   5.3488372093032E-01
(PID.TID 0000.0001) %MON vort_p_sd                    =   2.2607247317172E-01
(PID.TID 0000.0001) %MON surfExpan_theta_mean         =   0.0000000000000E+00
(PID.TID 0000.0001) %MON surfExpan_salt_mean          =   0.0000000000000E+00
(PID.TID 0000.0001) // =======================================================
(PID.TID 0000.0001) // End MONITOR dynamic field statistics
(PID.TID 0000.0001) // =======================================================
 cg2d: Sum(rhs),rhsMax =   6.66133814775094E-15  2.94629387860727E-06
(PID.TID 0000.0001)                    cg2d_init_res =    7.92260819886933E-01
(PID.TID 0000.0001)                       cg2d_iters =    38
(PID.TID 0000.0001)                         cg2d_res =    9.26031746917268E-08
 cg3d: Sum(rhs),rhsMax =  -1.08451442271118E-13  1.02669491576057E-06
(PID.TID 0000.0001)                    cg3d_init_res =    2.56276448256334E+00
(PID.TID 0000.0001)                       cg3d_iters =    10
(PID.TID 0000.0001)                         cg3d_res =    2.69588149553122E-01
(PID.TID 0000.0001) // =======================================================
(PID.TID 0000.0001) // Begin MONITOR dynamic field statistics
(PID.TID 0000.0001) // =======================================================
(PID.TID 0000.0001) %MON time_tsnumber                =                    18
(PID.TID 0000.0001) %MON time_secondsf                =   1.8000000000000E+00
(PID.TID 0000.0001) %MON dynstat_eta_max              =   8.3714356157500E-08
(PID.TID 0000.0001) %MON dynstat_eta_min              =  -1.3316009712416E-06
(PID.TID 0000.0001) %MON dynstat_eta_mean             =   4.7863409139843E-08
(PID.TID 0000.0001) %MON dynstat_eta_sd               =   1.9808606854329E-07
(PID.TID 0000.0001) %MON dynstat_eta_del2             =   3.3918290169627E-08
(PID.TID 0000.0001) %MON dynstat_uvel_max             =   2.3990133316010E-05
(PID.TID 0000.0001) %MON dynstat_uvel_min             =  -2.4145039745013E-05
(PID.TID 0000.0001) %MON dynstat_uvel_mean            =   5.3221322167329E-11
(PID.TID 0000.0001) %MON dynstat_uvel_sd              =   2.4118095992050E-06
(PID.TID 0000.0001) %MON dynstat_uvel_del2            =   1.8802405224287E-07
(PID.TID 0000.0001) %MON dynstat_vvel_max             =   1.0139277800380E-04
(PID.TID 0000.0001) %MON dynstat_vvel_min             =  -1.0308392831797E-04
(PID.TID 0000.0001) %MON dynstat_vvel_mean            =  -1.1010591146905E-17
(PID.TID 0000.0001) %MON dynstat_vvel_sd              =   8.3017849458307E-06
(PID.TID 0000.0001) %MON dynstat_vvel_del2            =   3.1870975974986E-07
(PID.TID 0000.0001) %MON dynstat_wvel_max             =   3.1487112035995E-05
(PID.TID 0000.0001) %MON dynstat_wvel_min             =  -1.7176128119327E-04
(PID.TID 0000.0001) %MON dynstat_wvel_mean            =  -4.0281080459628E-22
(PID.TID 0000.0001) %MON dynstat_wvel_sd              =   1.9929750320652E-05
(PID.TID 0000.0001) %MON dynstat_wvel_del2            =   5.1948985716734E-06
(PID.TID 0000.0001) %MON dynstat_theta_max            =   2.0000962910082E+01
(PID.TID 0000.0001) %MON dynstat_theta_min            =   1.9900944231909E+01
(PID.TID 0000.0001) %MON dynstat_theta_mean           =   1.9998444055860E+01
(PID.TID 0000.0001) %MON dynstat_theta_sd             =   1.3967755666027E-02
(PID.TID 0000.0001) %MON dynstat_theta_del2           =   2.3848323930815E-03
(PID.TID 0000.0001) %MON dynstat_salt_max             =   3.5000000000000E+01
(PID.TID 0000.0001) %MON dynstat_salt_min             =   3.5000000000000E+01
(PID.TID 0000.0001) %MON dynstat_salt_mean            =   3.4999999999986E+01
(PID.TID 0000.0001) %MON dynstat_salt_sd              =   1.4040324458618E-11
(PID.TID 0000.0001) %MON dynstat_salt_del2            =   0.0000000000000E+00
(PID.TID 0000.0001) %MON advcfl_uvel_max              =   4.8540662230347E-04
(PID.TID 0000.0001) %MON advcfl_vvel_max              =   1.0308392831797E-03
(PID.TID 0000.0001) %MON advcfl_wvel_max              =   3.4352256238654E-03
(PID.TID 0000.0001) %MON advcfl_W_hf_max              =   3.4352256238654E-03
(PID.TID 0000.0001) %MON pe_b_mean                    =   1.4048257086962E-12
(PID.TID 0000.0001) %MON ke_max                       =   3.5219548019736E-09
(PID.TID 0000.0001) %MON ke_mean                      =   3.5801874114252E-11
(PID.TID 0000.0001) %MON ke_vol                       =   3.8082386146826E-02
(PID.TID 0000.0001) %MON vort_r_min                   =  -1.7417023266393E-03
(PID.TID 0000.0001) %MON vort_r_max                   =   1.7714102562820E-03
(PID.TID 0000.0001) %MON vort_a_mean                  =   5.0000000000007E-01
(PID.TID 0000.0001) %MON vort_a_sd                    =   1.0986913890668E-04
(PID.TID 0000.0001) %MON vort_p_mean                  =   5.3488372093031E-01
(PID.TID 0000.0001) %MON vort_p_sd                    =   2.2607252217112E-01
(PID.TID 0000.0001) %MON surfExpan_theta_mean         =   0.0000000000000E+00
(PID.TID 0000.0001) %MON surfExpan_salt_mean          =   0.0000000000000E+00
(PID.TID 0000.0001) // =======================================================
(PID.TID 0000.0001) // End MONITOR dynamic field statistics
(PID.TID 0000.0001) // =======================================================
 cg2d: Sum(rhs),rhsMax =   6.60617394121488E-14  3.09496486717135E-06
(PID.TID 0000.0001)                    cg2d_init_res =    7.49383928010793E-01
(PID.TID 0000.0001)                       cg2d_iters =    38
(PID.TID 0000.0001)                         cg2d_res =    8.95369710546644E-08
 cg3d: Sum(rhs),rhsMax =  -9.10226755079790E-14  1.07748011677594E-06
(PID.TID 0000.0001)                    cg3d_init_res =    2.42429547498271E+00
(PID.TID 0000.0001)                       cg3d_iters =    10
(PID.TID 0000.0001)                         cg3d_res =    2.60138203419215E-01
(PID.TID 0000.0001) // =======================================================
(PID.TID 0000.0001) // Begin MONITOR dynamic field statistics
(PID.TID 0000.0001) // =======================================================
(PID.TID 0000.0001) %MON time_tsnumber                =                    19
(PID.TID 0000.0001) %MON time_secondsf                =   1.9000000000000E+00
(PID.TID 0000.0001) %MON dynstat_eta_max              =   8.8044132602949E-08
(PID.TID 0000.0001) %MON dynstat_eta_min              =  -1.4047708725340E-06
(PID.TID 0000.0001) %MON dynstat_eta_mean             =   5.0561386338043E-08
(PID.TID 0000.0001) %MON dynstat_eta_sd               =   2.0903255045143E-07
(PID.TID 0000.0001) %MON dynstat_eta_del2             =   3.5573919991839E-08
(PID.TID 0000.0001) %MON dynstat_uvel_max             =   2.7954279434337E-05
(PID.TID 0000.0001) %MON dynstat_uvel_min             =  -2.8096105770840E-05
(PID.TID 0000.0001) %MON dynstat_uvel_mean            =   7.2654086912272E-11
(PID.TID 0000.0001) %MON dynstat_uvel_sd              =   2.8103505903847E-06
(PID.TID 0000.0001) %MON dynstat_uvel_del2            =   2.0695982228594E-07
(PID.TID 0000.0001) %MON dynstat_vvel_max             =   1.1201866167264E-04
(PID.TID 0000.0001) %MON dynstat_vvel_min             =  -1.1394343695625E-04
(PID.TID 0000.0001) %MON dynstat_vvel_mean            =   5.7823089115058E-17
(PID.TID 0000.0001) %MON dynstat_vvel_sd              =   9.1697750878066E-06
(PID.TID 0000.0001) %MON dynstat_vvel_del2            =   3.4490253099404E-07
(PID.TID 0000.0001) %MON dynstat_wvel_max             =   3.4620539520098E-05
(PID.TID 0000.0001) %MON dynstat_wvel_min             =  -1.8930136543092E-04
(PID.TID 0000.0001) %MON dynstat_wvel_mean            =   9.0944751019351E-22
(PID.TID 0000.0001) %MON dynstat_wvel_sd              =   2.2078395080242E-05
(PID.TID 0000.0001) %MON dynstat_wvel_del2            =   5.6338530337870E-06
(PID.TID 0000.0001) %MON dynstat_theta_max            =   2.0000961508186E+01
(PID.TID 0000.0001) %MON dynstat_theta_min            =   1.9895540066471E+01
(PID.TID 0000.0001) %MON dynstat_theta_mean           =   1.9998329796212E+01
(PID.TID 0000.0001) %MON dynstat_theta_sd             =   1.4723071753042E-02
(PID.TID 0000.0001) %MON dynstat_theta_del2           =   2.4988243640255E-03
(PID.TID 0000.0001) %MON dynstat_salt_max             =   3.5000000000000E+01
(PID.TID 0000.0001) %MON dynstat_salt_min             =   3.5000000000000E+01
(PID.TID 0000.0001) %MON dynstat_salt_mean            =   3.4999999999986E+01
(PID.TID 0000.0001) %MON dynstat_salt_sd              =   1.4040324458618E-11
(PID.TID 0000.0001) %MON dynstat_salt_del2            =   0.0000000000000E+00
(PID.TID 0000.0001) %MON advcfl_uvel_max              =   5.6483799348151E-04
(PID.TID 0000.0001) %MON advcfl_vvel_max              =   1.1394343695625E-03
(PID.TID 0000.0001) %MON advcfl_wvel_max              =   3.7860273086184E-03
(PID.TID 0000.0001) %MON advcfl_W_hf_max              =   3.7860273086184E-03
(PID.TID 0000.0001) %MON pe_b_mean                    =   1.5645617509946E-12
(PID.TID 0000.0001) %MON ke_max                       =   4.3483621682996E-09
(PID.TID 0000.0001) %MON ke_mean                      =   4.4080405186249E-11
(PID.TID 0000.0001) %MON ke_vol                       =   3.8082386146826E-02
(PID.TID 0000.0001) %MON vort_r_min                   =  -2.0228994862817E-03
(PID.TID 0000.0001) %MON vort_r_max                   =   2.0486068622039E-03
(PID.TID 0000.0001) %MON vort_a_mean                  =   5.0000000000007E-01
(PID.TID 0000.0001) %MON vort_a_sd                    =   1.2837400031734E-04
(PID.TID 0000.0001) %MON vort_p_mean                  =   5.3488372093031E-01
(PID.TID 0000.0001) %MON vort_p_sd                    =   2.2607258618543E-01
(PID.TID 0000.0001) %MON surfExpan_theta_mean         =   0.0000000000000E+00
(PID.TID 0000.0001) %MON surfExpan_salt_mean          =   0.0000000000000E+00
(PID.TID 0000.0001) // =======================================================
(PID.TID 0000.0001) // End MONITOR dynamic field statistics
(PID.TID 0000.0001) // =======================================================
 cg2d: Sum(rhs),rhsMax =   4.99149332977566E-14  3.24302117718209E-06
(PID.TID 0000.0001)                    cg2d_init_res =    7.10613032042779E-01
(PID.TID 0000.0001)                       cg2d_iters =    38
(PID.TID 0000.0001)                         cg2d_res =    8.68615464007623E-08
 cg3d: Sum(rhs),rhsMax =   5.24771198717744E-14  1.12790970462865E-06
(PID.TID 0000.0001)                    cg3d_init_res =    2.30020929752802E+00
(PID.TID 0000.0001)                       cg3d_iters =    10
(PID.TID 0000.0001)                         cg3d_res =    2.40155012262723E-01
(PID.TID 0000.0001) // =======================================================
(PID.TID 0000.0001) // Begin MONITOR dynamic field statistics
(PID.TID 0000.0001) // =======================================================
(PID.TID 0000.0001) %MON time_tsnumber                =                    20
(PID.TID 0000.0001) %MON time_secondsf                =   2.0000000000000E+00
(PID.TID 0000.0001) %MON dynstat_eta_max              =   9.2369655033055E-08
(PID.TID 0000.0001) %MON dynstat_eta_min              =  -1.4777080372617E-06
(PID.TID 0000.0001) %MON dynstat_eta_mean             =   5.3256334510228E-08
(PID.TID 0000.0001) %MON dynstat_eta_sd               =   2.1994574141769E-07
(PID.TID 0000.0001) %MON dynstat_eta_del2             =   3.7221238094362E-08
(PID.TID 0000.0001) %MON dynstat_uvel_max             =   3.2154645526100E-05
(PID.TID 0000.0001) %MON dynstat_uvel_min             =  -3.2344423574667E-05
(PID.TID 0000.0001) %MON dynstat_uvel_mean            =   9.7560075013985E-11
(PID.TID 0000.0001) %MON dynstat_uvel_sd              =   3.2487890625570E-06
(PID.TID 0000.0001) %MON dynstat_uvel_del2            =   2.2435361203298E-07
(PID.TID 0000.0001) %MON dynstat_vvel_max             =   1.2316890547701E-04
(PID.TID 0000.0001) %MON dynstat_vvel_min             =  -1.2531327157392E-04
(PID.TID 0000.0001) %MON dynstat_vvel_mean            =  -1.9699808611286E-17
(PID.TID 0000.0001) %MON dynstat_vvel_sd              =   1.0076138983257E-05
(PID.TID 0000.0001) %MON dynstat_vvel_del2            =   3.6940512858044E-07
(PID.TID 0000.0001) %MON dynstat_wvel_max             =   3.7294193429184E-05
(PID.TID 0000.0001) %MON dynstat_wvel_min             =  -2.0740949328538E-04
(PID.TID 0000.0001) %MON dynstat_wvel_mean            =   1.2852329536936E-21
(PID.TID 0000.0001) %MON dynstat_wvel_sd              =   2.4328576733749E-05
(PID.TID 0000.0001) %MON dynstat_wvel_del2            =   6.0427283089879E-06
(PID.TID 0000.0001) %MON dynstat_theta_max            =   2.0000960106181E+01
(PID.TID 0000.0001) %MON dynstat_theta_min            =   1.9890142042544E+01
(PID.TID 0000.0001) %MON dynstat_theta_mean           =   1.9998215567254E+01
(PID.TID 0000.0001) %MON dynstat_theta_sd             =   1.5476303781839E-02
(PID.TID 0000.0001) %MON dynstat_theta_del2           =   2.6122496347554E-03
(PID.TID 0000.0001) %MON dynstat_salt_max             =   3.5000000000000E+01
(PID.TID 0000.0001) %MON dynstat_salt_min             =   3.5000000000000E+01
(PID.TID 0000.0001) %MON dynstat_salt_mean            =   3.4999999999986E+01
(PID.TID 0000.0001) %MON dynstat_salt_sd              =   1.4040324458618E-11
(PID.TID 0000.0001) %MON dynstat_salt_del2            =   0.0000000000000E+00
(PID.TID 0000.0001) %MON advcfl_uvel_max              =   6.5024524968836E-04
(PID.TID 0000.0001) %MON advcfl_vvel_max              =   1.2531327157392E-03
(PID.TID 0000.0001) %MON advcfl_wvel_max              =   4.1481898657076E-03
(PID.TID 0000.0001) %MON advcfl_W_hf_max              =   4.1481898657076E-03
(PID.TID 0000.0001) %MON pe_b_mean                    =   1.7323907369964E-12
(PID.TID 0000.0001) %MON ke_max                       =   5.3117497933261E-09
(PID.TID 0000.0001) %MON ke_mean                      =   5.3734135941426E-11
(PID.TID 0000.0001) %MON ke_vol                       =   3.8082386146826E-02
(PID.TID 0000.0001) %MON vort_r_min                   =  -2.3252163219705E-03
(PID.TID 0000.0001) %MON vort_r_max                   =   2.3644996427101E-03
(PID.TID 0000.0001) %MON vort_a_mean                  =   5.0000000000007E-01
(PID.TID 0000.0001) %MON vort_a_sd                    =   1.4877771035454E-04
(PID.TID 0000.0001) %MON vort_p_mean                  =   5.3488372093032E-01
(PID.TID 0000.0001) %MON vort_p_sd                    =   2.2607266856141E-01
(PID.TID 0000.0001) %MON surfExpan_theta_mean         =   0.0000000000000E+00
(PID.TID 0000.0001) %MON surfExpan_salt_mean          =   0.0000000000000E+00
(PID.TID 0000.0001) // =======================================================
(PID.TID 0000.0001) // End MONITOR dynamic field statistics
(PID.TID 0000.0001) // =======================================================
(PID.TID 0000.0001)   Seconds in section "ALL                    [THE_MODEL_MAIN]":
(PID.TID 0000.0001)           User time:  29.7099991
(PID.TID 0000.0001)         System time:  0.5
(PID.TID 0000.0001)     Wall clock time:  30.4230528
(PID.TID 0000.0001)          No. starts: 1
(PID.TID 0000.0001)           No. stops: 1
(PID.TID 0000.0001)   Seconds in section "INITIALISE_FIXED       [THE_MODEL_MAIN]":
(PID.TID 0000.0001)           User time:  1.08000004
(PID.TID 0000.0001)         System time:  0.140000001
(PID.TID 0000.0001)     Wall clock time:  1.31828499
(PID.TID 0000.0001)          No. starts: 1
(PID.TID 0000.0001)           No. stops: 1
(PID.TID 0000.0001)   Seconds in section "THE_MAIN_LOOP          [THE_MODEL_MAIN]":
(PID.TID 0000.0001)           User time:  28.629999
(PID.TID 0000.0001)         System time:  0.359999999
(PID.TID 0000.0001)     Wall clock time:  29.1045971
(PID.TID 0000.0001)          No. starts: 1
(PID.TID 0000.0001)           No. stops: 1
(PID.TID 0000.0001)   Seconds in section "INITIALISE_VARIA    [THE_MAIN_LOOP]":
(PID.TID 0000.0001)           User time:  0.0799999237
(PID.TID 0000.0001)         System time:  0.0300000012
(PID.TID 0000.0001)     Wall clock time:  0.136981964
(PID.TID 0000.0001)          No. starts: 1
(PID.TID 0000.0001)           No. stops: 1
(PID.TID 0000.0001)   Seconds in section "MONITOR             [THE_MAIN_LOOP]":
(PID.TID 0000.0001)           User time:  0.190000057
(PID.TID 0000.0001)         System time:  0.
(PID.TID 0000.0001)     Wall clock time:  0.19771409
(PID.TID 0000.0001)          No. starts: 1
(PID.TID 0000.0001)           No. stops: 1
(PID.TID 0000.0001)   Seconds in section "DO_THE_MODEL_IO     [THE_MAIN_LOOP]":
(PID.TID 0000.0001)           User time:  0.149999976
(PID.TID 0000.0001)         System time:  0.0600000024
(PID.TID 0000.0001)     Wall clock time:  0.229933977
(PID.TID 0000.0001)          No. starts: 1
(PID.TID 0000.0001)           No. stops: 1
(PID.TID 0000.0001)   Seconds in section "MAIN LOOP           [THE_MAIN_LOOP]":
(PID.TID 0000.0001)           User time:  28.2099991
(PID.TID 0000.0001)         System time:  0.269999996
(PID.TID 0000.0001)     Wall clock time:  28.5398149
(PID.TID 0000.0001)          No. starts: 1
(PID.TID 0000.0001)           No. stops: 1
(PID.TID 0000.0001)   Seconds in section "FORWARD_STEP        [THE_MAIN_LOOP]":
(PID.TID 0000.0001)           User time:  28.2099991
(PID.TID 0000.0001)         System time:  0.269999996
(PID.TID 0000.0001)     Wall clock time:  28.539202
(PID.TID 0000.0001)          No. starts: 20
(PID.TID 0000.0001)           No. stops: 20
(PID.TID 0000.0001)   Seconds in section "EXTERNAL_FIELDS_LOAD[FORWARD_STEP]":
(PID.TID 0000.0001)           User time:  0.
(PID.TID 0000.0001)         System time:  0.
(PID.TID 0000.0001)     Wall clock time:  0.000581026077
(PID.TID 0000.0001)          No. starts: 20
(PID.TID 0000.0001)           No. stops: 20
(PID.TID 0000.0001)   Seconds in section "DO_ATMOSPHERIC_PHYS [FORWARD_STEP]":
(PID.TID 0000.0001)           User time:  0.
(PID.TID 0000.0001)         System time:  0.
(PID.TID 0000.0001)     Wall clock time:  0.000577926636
(PID.TID 0000.0001)          No. starts: 20
(PID.TID 0000.0001)           No. stops: 20
(PID.TID 0000.0001)   Seconds in section "DO_OCEANIC_PHYS     [FORWARD_STEP]":
(PID.TID 0000.0001)           User time:  0.0999996662
(PID.TID 0000.0001)         System time:  0.
(PID.TID 0000.0001)     Wall clock time:  0.137283325
(PID.TID 0000.0001)          No. starts: 20
(PID.TID 0000.0001)           No. stops: 20
(PID.TID 0000.0001)   Seconds in section "THERMODYNAMICS      [FORWARD_STEP]":
(PID.TID 0000.0001)           User time:  3.86000133
(PID.TID 0000.0001)         System time:  0.00999999046
(PID.TID 0000.0001)     Wall clock time:  3.85894322
(PID.TID 0000.0001)          No. starts: 20
(PID.TID 0000.0001)           No. stops: 20
(PID.TID 0000.0001)   Seconds in section "DYNAMICS            [FORWARD_STEP]":
(PID.TID 0000.0001)           User time:  5.09000111
(PID.TID 0000.0001)         System time:  0.
(PID.TID 0000.0001)     Wall clock time:  5.14359593
(PID.TID 0000.0001)          No. starts: 20
(PID.TID 0000.0001)           No. stops: 20
(PID.TID 0000.0001)   Seconds in section "CALC_GW          [FORWARD_STEP]":
(PID.TID 0000.0001)           User time:  0.969999313
(PID.TID 0000.0001)         System time:  0.0100000054
(PID.TID 0000.0001)     Wall clock time:  0.971085787
(PID.TID 0000.0001)          No. starts: 20
(PID.TID 0000.0001)           No. stops: 20
(PID.TID 0000.0001)   Seconds in section "SOLVE_FOR_PRESSURE  [FORWARD_STEP]":
(PID.TID 0000.0001)           User time:  12.77
(PID.TID 0000.0001)         System time:  0.0200000107
(PID.TID 0000.0001)     Wall clock time:  12.8065197
(PID.TID 0000.0001)          No. starts: 20
(PID.TID 0000.0001)           No. stops: 20
(PID.TID 0000.0001)   Seconds in section "UV_CORRECTION_STEP  [FORWARD_STEP]":
(PID.TID 0000.0001)           User time:  0.539999723
(PID.TID 0000.0001)         System time:  0.
(PID.TID 0000.0001)     Wall clock time:  0.521173477
(PID.TID 0000.0001)          No. starts: 20
(PID.TID 0000.0001)           No. stops: 20
(PID.TID 0000.0001)   Seconds in section "TS_CORRECTION_STEP  [FORWARD_STEP]":
(PID.TID 0000.0001)           User time:  0.0999999046
(PID.TID 0000.0001)         System time:  0.
(PID.TID 0000.0001)     Wall clock time:  0.12227726
(PID.TID 0000.0001)          No. starts: 20
(PID.TID 0000.0001)           No. stops: 20
(PID.TID 0000.0001)   Seconds in section "BLOCKING_EXCHANGES  [FORWARD_STEP]":
(PID.TID 0000.0001)           User time:  0.120001078
(PID.TID 0000.0001)         System time:  0.00999999046
(PID.TID 0000.0001)     Wall clock time:  0.135647535
(PID.TID 0000.0001)          No. starts: 20
(PID.TID 0000.0001)           No. stops: 20
(PID.TID 0000.0001)   Seconds in section "DO_STATEVARS_DIAGS  [FORWARD_STEP]":
(PID.TID 0000.0001)           User time:  0.
(PID.TID 0000.0001)         System time:  0.
(PID.TID 0000.0001)     Wall clock time:  0.000593423843
(PID.TID 0000.0001)          No. starts: 20
(PID.TID 0000.0001)           No. stops: 20
(PID.TID 0000.0001)   Seconds in section "MONITOR             [FORWARD_STEP]":
(PID.TID 0000.0001)           User time:  3.72999907
(PID.TID 0000.0001)         System time:  0.00999999046
(PID.TID 0000.0001)     Wall clock time:  3.69671202
(PID.TID 0000.0001)          No. starts: 20
(PID.TID 0000.0001)           No. stops: 20
(PID.TID 0000.0001)   Seconds in section "DO_THE_MODEL_IO     [FORWARD_STEP]":
(PID.TID 0000.0001)           User time:  0.389998436
(PID.TID 0000.0001)         System time:  0.0600000024
(PID.TID 0000.0001)     Wall clock time:  0.457732201
(PID.TID 0000.0001)          No. starts: 20
(PID.TID 0000.0001)           No. stops: 20
(PID.TID 0000.0001)   Seconds in section "WRITE_CHECKPOINT    [FORWARD_STEP]":
(PID.TID 0000.0001)           User time:  0.529999733
(PID.TID 0000.0001)         System time:  0.150000006
(PID.TID 0000.0001)     Wall clock time:  0.677571297
(PID.TID 0000.0001)          No. starts: 20
(PID.TID 0000.0001)           No. stops: 20
(PID.TID 0000.0001)   Seconds in section "WRITE_CHECKPOINT       [THE_MODEL_MAIN]":
(PID.TID 0000.0001)           User time:  0.
(PID.TID 0000.0001)         System time:  0.
(PID.TID 0000.0001)     Wall clock time:  3.09944153E-05
(PID.TID 0000.0001)          No. starts: 1
(PID.TID 0000.0001)           No. stops: 1
(PID.TID 0000.0001) // ======================================================
(PID.TID 0000.0001) // Tile <-> Tile communication statistics
(PID.TID 0000.0001) // ======================================================
(PID.TID 0000.0001) // o Tile number: 000001
(PID.TID 0000.0001) //         No. X exchanges =              0
(PID.TID 0000.0001) //            Max. X spins =              0
(PID.TID 0000.0001) //            Min. X spins =     1000000000
(PID.TID 0000.0001) //          Total. X spins =              0
(PID.TID 0000.0001) //            Avg. X spins =       0.00E+00
(PID.TID 0000.0001) //         No. Y exchanges =              0
(PID.TID 0000.0001) //            Max. Y spins =              0
(PID.TID 0000.0001) //            Min. Y spins =     1000000000
(PID.TID 0000.0001) //          Total. Y spins =              0
(PID.TID 0000.0001) //            Avg. Y spins =       0.00E+00
(PID.TID 0000.0001) // o Thread number: 000001
(PID.TID 0000.0001) //            No. barriers =          20754
(PID.TID 0000.0001) //      Max. barrier spins =              1
(PID.TID 0000.0001) //      Min. barrier spins =              1
(PID.TID 0000.0001) //     Total barrier spins =          20754
(PID.TID 0000.0001) //      Avg. barrier spins =       1.00E+00
