(PID.TID 0000.0001) 
(PID.TID 0000.0001) // ======================================================
(PID.TID 0000.0001) //                      MITgcm UV
(PID.TID 0000.0001) //                      =========
(PID.TID 0000.0001) // ======================================================
(PID.TID 0000.0001) // execution environment starting up...
(PID.TID 0000.0001) 
(PID.TID 0000.0001) // MITgcmUV version:  checkpoint58j_post
(PID.TID 0000.0001) // Build user:        jmc
(PID.TID 0000.0001) // Build host:        faulks
(PID.TID 0000.0001) // Build date:        Wed Jul  5 16:10:24 EDT 2006
(PID.TID 0000.0001) 
(PID.TID 0000.0001) // =======================================================
(PID.TID 0000.0001) // Execution Environment parameter file "eedata"
(PID.TID 0000.0001) // =======================================================
(PID.TID 0000.0001) ># Example "eedata" file
(PID.TID 0000.0001) ># Lines beginning "#" are comments
(PID.TID 0000.0001) ># nTx - No. threads per process in X
(PID.TID 0000.0001) ># nTy - No. threads per process in Y
(PID.TID 0000.0001) > &EEPARMS
(PID.TID 0000.0001) > &
(PID.TID 0000.0001) ># Note: Some systems use & as the
(PID.TID 0000.0001) ># namelist terminator. Other systems
(PID.TID 0000.0001) ># use a / character (as shown here).
(PID.TID 0000.0001) 
(PID.TID 0000.0001) // =======================================================
(PID.TID 0000.0001) // Computational Grid Specification ( see files "SIZE.h" )
(PID.TID 0000.0001) //                                  ( and "eedata"       )
(PID.TID 0000.0001) // =======================================================
(PID.TID 0000.0001)      nPx =    1 ; /* No. processes in X */
(PID.TID 0000.0001)      nPy =    1 ; /* No. processes in Y */
(PID.TID 0000.0001)      nSx =    1 ; /* No. tiles in X per process */
(PID.TID 0000.0001)      nSy =    1 ; /* No. tiles in Y per process */
(PID.TID 0000.0001)      sNx =  120 ; /* Tile size in X */
(PID.TID 0000.0001)      sNy =   31 ; /* Tile size in Y */
(PID.TID 0000.0001)      OLx =    3 ; /* Tile overlap distance in X */
(PID.TID 0000.0001)      OLy =    3 ; /* Tile overlap distance in Y */
(PID.TID 0000.0001)      nTx =    1 ; /* No. threads in X per process */
(PID.TID 0000.0001)      nTy =    1 ; /* No. threads in Y per process */
(PID.TID 0000.0001)       Nr =   29 ; /* No. levels in the vertical   */
(PID.TID 0000.0001)       nX =  120 ; /* Total domain size in X ( = nPx*nSx*sNx ) */
(PID.TID 0000.0001)       nY =   31 ; /* Total domain size in Y ( = nPy*nSy*sNy ) */
(PID.TID 0000.0001)   nTiles =    1 ; /* Total no. tiles per process ( = nSx*nSy ) */
(PID.TID 0000.0001)   nProcs =    1 ; /* Total no. processes ( = nPx*nPy ) */
(PID.TID 0000.0001) nThreads =    1 ; /* Total no. threads per process ( = nTx*nTy ) */
(PID.TID 0000.0001) usingMPI =    F ; /* Flag used to control whether MPI is in use */
(PID.TID 0000.0001)                   /*  note: To execute a program with MPI calls */
(PID.TID 0000.0001)                   /*  it must be launched appropriately e.g     */
(PID.TID 0000.0001)                   /*  "mpirun -np 64 ......"                    */
(PID.TID 0000.0001) useCoupler=   F ; /* Flag used to control communications with */
(PID.TID 0000.0001)                   /*  other model components, through a coupler */
(PID.TID 0000.0001) 
(PID.TID 0000.0001) // ======================================================
(PID.TID 0000.0001) // Mapping of tiles to threads
(PID.TID 0000.0001) // ======================================================
(PID.TID 0000.0001) // -o- Thread   1, tiles (   1:   1,   1:   1)
(PID.TID 0000.0001) 
(PID.TID 0000.0001) // ======================================================
(PID.TID 0000.0001) // Tile <-> Tile connectvity table
(PID.TID 0000.0001) // ======================================================
(PID.TID 0000.0001) // Tile number: 000001 (process no. = 000001)
(PID.TID 0000.0001) //        WEST: Tile = 000001, Process = 000001, Comm = put
(PID.TID 0000.0001) //                bi = 000001, bj = 000001
(PID.TID 0000.0001) //        EAST: Tile = 000001, Process = 000001, Comm = put
(PID.TID 0000.0001) //                bi = 000001, bj = 000001
(PID.TID 0000.0001) //       SOUTH: Tile = 000001, Process = 000001, Comm = put
(PID.TID 0000.0001) //                bi = 000001, bj = 000001
(PID.TID 0000.0001) //       NORTH: Tile = 000001, Process = 000001, Comm = put
(PID.TID 0000.0001) //                bi = 000001, bj = 000001
(PID.TID 0000.0001) 
(PID.TID 0000.0001) // =======================================================
(PID.TID 0000.0001) // Model parameter file "data"
(PID.TID 0000.0001) // =======================================================
(PID.TID 0000.0001) ># ====================
(PID.TID 0000.0001) ># | Model parameters |
(PID.TID 0000.0001) ># ====================
(PID.TID 0000.0001) >#
(PID.TID 0000.0001) ># Continuous equation parameters
(PID.TID 0000.0001) > &PARM01
(PID.TID 0000.0001) > tRef=29*20.0,
(PID.TID 0000.0001) > sRef=29*35.0,
(PID.TID 0000.0001) > viscAh=5.0E-6,
(PID.TID 0000.0001) > viscAz=5.0E-6,
(PID.TID 0000.0001) > no_slip_sides=.FALSE.,
(PID.TID 0000.0001) > no_slip_bottom=.FALSE.,
(PID.TID 0000.0001) > diffKhT=2.5E-6,
(PID.TID 0000.0001) > diffKzT=2.5E-6,
(PID.TID 0000.0001) > diffKhS=1.0E-6,
(PID.TID 0000.0001) > diffKzS=1.0E-6,
(PID.TID 0000.0001) > f0=0.5,
(PID.TID 0000.0001) > sBeta =0.,
(PID.TID 0000.0001) > gravity=9.81,
(PID.TID 0000.0001) > rhoConst=1000.0,
(PID.TID 0000.0001) > rhoNil=1000.0,
(PID.TID 0000.0001) ># heatCapacity_Cp=3900.0,
(PID.TID 0000.0001) > rigidLid=.TRUE.,
(PID.TID 0000.0001) > implicitFreeSurface=.FALSE.,
(PID.TID 0000.0001) > eosType='LINEAR',
(PID.TID 0000.0001) > nonHydrostatic=.TRUE.,
(PID.TID 0000.0001) > readBinaryPrec=32,
(PID.TID 0000.0001) > &
(PID.TID 0000.0001) >
(PID.TID 0000.0001) ># Elliptic solver parameters
(PID.TID 0000.0001) > &PARM02
(PID.TID 0000.0001) > cg2dMaxIters=1000,
(PID.TID 0000.0001) > cg2dTargetResidual=1.E-7,
(PID.TID 0000.0001) > cg3dMaxIters=10,
(PID.TID 0000.0001) > cg3dTargetResidual=1.E-9,
(PID.TID 0000.0001) > &
(PID.TID 0000.0001) >
(PID.TID 0000.0001) ># Time stepping parameters
(PID.TID 0000.0001) > &PARM03
(PID.TID 0000.0001) > nIter0=0,
(PID.TID 0000.0001) > nTimeSteps=20,
(PID.TID 0000.0001) ># nTimeSteps=36000000,
(PID.TID 0000.0001) > deltaT=0.1,
(PID.TID 0000.0001) > abEps=0.1,
(PID.TID 0000.0001) > pChkptFreq=2.0,
(PID.TID 0000.0001) > chkptFreq=2.0,
(PID.TID 0000.0001) > dumpFreq=2.0,
(PID.TID 0000.0001) > monitorFreq=0.1,
(PID.TID 0000.0001) ># outputTypesInclusive=.TRUE.,
(PID.TID 0000.0001) > &
(PID.TID 0000.0001) >
(PID.TID 0000.0001) ># Gridding parameters
(PID.TID 0000.0001) > &PARM04
(PID.TID 0000.0001) > usingCartesianGrid=.FALSE.,
(PID.TID 0000.0001) > usingCylindricalGrid=.TRUE.,
(PID.TID 0000.0001) > usingCurvilinearGrid=.FALSE.,
(PID.TID 0000.0001) > dXspacing=3,
(PID.TID 0000.0001) > dYspacing=0.01,
(PID.TID 0000.0001) > delZ=29*0.005,
(PID.TID 0000.0001) > &
(PID.TID 0000.0001) >
(PID.TID 0000.0001) ># Input datasets
(PID.TID 0000.0001) > &PARM05
(PID.TID 0000.0001) > hydrogThetaFile='thetaPol.bin',
(PID.TID 0000.0001) > bathyFile='bathyPol.bin',
(PID.TID 0000.0001) > tCylIn  = 0
(PID.TID 0000.0001) > tCylOut  = 20
(PID.TID 0000.0001) > &
(PID.TID 0000.0001) 
(PID.TID 0000.0001) S/R INI_PARMS ; starts to read PARM01
(PID.TID 0000.0001) S/R INI_PARMS ; read PARM01 : OK
(PID.TID 0000.0001) S/R INI_PARMS ; starts to read PARM02
(PID.TID 0000.0001) S/R INI_PARMS ; read PARM02 : OK
(PID.TID 0000.0001) S/R INI_PARMS ; starts to read PARM03
(PID.TID 0000.0001) S/R INI_PARMS ; read PARM03 : OK
(PID.TID 0000.0001) S/R INI_PARMS ; starts to read PARM04
(PID.TID 0000.0001) S/R INI_PARMS ; read PARM04 : OK
(PID.TID 0000.0001) S/R INI_PARMS ; Cylinder OK
(PID.TID 0000.0001) S/R INI_PARMS ; starts to read PARM05
(PID.TID 0000.0001) S/R INI_PARMS ; read PARM05 : OK
(PID.TID 0000.0001)  PACKAGES_BOOT: opening data.pkg
(PID.TID 0000.0001)  OPEN_COPY_DATA_FILE: opening file data.pkg
(PID.TID 0000.0001) // =======================================================
(PID.TID 0000.0001) // Parameter file "data.pkg"
(PID.TID 0000.0001) // =======================================================
(PID.TID 0000.0001) ># Packages
(PID.TID 0000.0001) > &PACKAGES
(PID.TID 0000.0001) > useMNC=.TRUE.,
(PID.TID 0000.0001) > &
(PID.TID 0000.0001) 
(PID.TID 0000.0001)  PACKAGES_BOOT: finished reading data.pkg
(PID.TID 0000.0001)  MNC_READPARMS: opening file 'data.mnc'
(PID.TID 0000.0001)  OPEN_COPY_DATA_FILE: opening file data.mnc
(PID.TID 0000.0001) // =======================================================
(PID.TID 0000.0001) // Parameter file "data.mnc"
(PID.TID 0000.0001) // =======================================================
(PID.TID 0000.0001) ># Example "data.mnc" file
(PID.TID 0000.0001) ># Lines beginning "#" are comments
(PID.TID 0000.0001) > &MNC_01
(PID.TID 0000.0001) ># mnc_echo_gvtypes=.FALSE.,
(PID.TID 0000.0001) ># mnc_use_indir=.FALSE.,
(PID.TID 0000.0001) > mnc_use_outdir=.TRUE.,
(PID.TID 0000.0001) > mnc_outdir_str='mnc_test_',
(PID.TID 0000.0001) > mnc_outdir_date=.TRUE.,
(PID.TID 0000.0001) > monitor_mnc=.FALSE.,
(PID.TID 0000.0001) > snapshot_mnc=.TRUE.,
(PID.TID 0000.0001) > timeave_mnc=.TRUE.,
(PID.TID 0000.0001) >#pickup_write_mnc=.TRUE.,
(PID.TID 0000.0001) > &
(PID.TID 0000.0001) ># Note: Some systems use & as the
(PID.TID 0000.0001) ># namelist terminator. Other systems
(PID.TID 0000.0001) ># use a / character.
(PID.TID 0000.0001) 
(PID.TID 0000.0001)  MNC_READPARMS: finished reading data.mnc
(PID.TID 0000.0001) SET_PARMS: done
(PID.TID 0000.0001) %MON XC_max                       =   3.5850000000000E+02
(PID.TID 0000.0001) %MON XC_min                       =   1.5000000000000E+00
(PID.TID 0000.0001) %MON XC_mean                      =   1.8000000000000E+02
(PID.TID 0000.0001) %MON XC_sd                        =   1.0391943995230E+02
(PID.TID 0000.0001) %MON XG_max                       =   3.5700000000000E+02
(PID.TID 0000.0001) %MON XG_min                       =   3.0000000000000E+00
(PID.TID 0000.0001) %MON XG_mean                      =   1.8000000000000E+02
(PID.TID 0000.0001) %MON XG_sd                        =   1.0305338422391E+02
(PID.TID 0000.0001) %MON DXC_max                      =   1.5969762655748E-02
(PID.TID 0000.0001) %MON DXC_min                      =   2.6179938779915E-04
(PID.TID 0000.0001) %MON DXC_mean                     =   8.1157810217737E-03
(PID.TID 0000.0001) %MON DXC_sd                       =   4.6832098206938E-03
(PID.TID 0000.0001) %MON DXF_max                      =   1.5969762655748E-02
(PID.TID 0000.0001) %MON DXF_min                      =   2.6179938779915E-04
(PID.TID 0000.0001) %MON DXF_mean                     =   8.1157810217737E-03
(PID.TID 0000.0001) %MON DXF_sd                       =   4.6832098206938E-03
(PID.TID 0000.0001) %MON DXG_max                      =   1.5707963267949E-02
(PID.TID 0000.0001) %MON DXG_min                      =   1.8165981760462E-19
(PID.TID 0000.0001) %MON DXG_mean                     =   7.8539816339745E-03
(PID.TID 0000.0001) %MON DXG_sd                       =   4.6832098206938E-03
(PID.TID 0000.0001) %MON DXV_max                      =   1.5707963267949E-02
(PID.TID 0000.0001) %MON DXV_min                      =   1.8165981760462E-19
(PID.TID 0000.0001) %MON DXV_mean                     =   7.8539816339745E-03
(PID.TID 0000.0001) %MON DXV_sd                       =   4.6832098206938E-03
(PID.TID 0000.0001) %MON YC_max                       =   3.0500000000000E-01
(PID.TID 0000.0001) %MON YC_min                       =   5.0000000000000E-03
(PID.TID 0000.0001) %MON YC_mean                      =   1.5500000000000E-01
(PID.TID 0000.0001) %MON YC_sd                        =   8.9442719099991E-02
(PID.TID 0000.0001) %MON YG_max                       =   3.0000000000000E-01
(PID.TID 0000.0001) %MON YG_min                       =   3.4694469519536E-18
(PID.TID 0000.0001) %MON YG_mean                      =   1.5000000000000E-01
(PID.TID 0000.0001) %MON YG_sd                        =   8.9442719099991E-02
(PID.TID 0000.0001) %MON DYC_max                      =   1.0000000000000E-02
(PID.TID 0000.0001) %MON DYC_min                      =   1.0000000000000E-02
(PID.TID 0000.0001) %MON DYC_mean                     =   1.0000000000000E-02
(PID.TID 0000.0001) %MON DYC_sd                       =   3.1398494915180E-16
(PID.TID 0000.0001) %MON DYF_max                      =   1.0000000000000E-02
(PID.TID 0000.0001) %MON DYF_min                      =   1.0000000000000E-02
(PID.TID 0000.0001) %MON DYF_mean                     =   1.0000000000000E-02
(PID.TID 0000.0001) %MON DYF_sd                       =   3.1398494915180E-16
(PID.TID 0000.0001) %MON DYG_max                      =   1.0000000000000E-02
(PID.TID 0000.0001) %MON DYG_min                      =   1.0000000000000E-02
(PID.TID 0000.0001) %MON DYG_mean                     =   1.0000000000000E-02
(PID.TID 0000.0001) %MON DYG_sd                       =   3.1398494915180E-16
(PID.TID 0000.0001) %MON DYU_max                      =   1.0000000000000E-02
(PID.TID 0000.0001) %MON DYU_min                      =   1.0000000000000E-02
(PID.TID 0000.0001) %MON DYU_mean                     =   1.0000000000000E-02
(PID.TID 0000.0001) %MON DYU_sd                       =   3.1398494915180E-16
(PID.TID 0000.0001) %MON RA_max                       =   1.5969762655748E-04
(PID.TID 0000.0001) %MON RA_min                       =   2.6179938779915E-06
(PID.TID 0000.0001) %MON RA_mean                      =   8.1157810217737E-05
(PID.TID 0000.0001) %MON RA_sd                        =   4.6832098206938E-05
(PID.TID 0000.0001) %MON RAW_max                      =   1.5969762655748E-04
(PID.TID 0000.0001) %MON RAW_min                      =   2.6179938779915E-06
(PID.TID 0000.0001) %MON RAW_mean                     =   8.1157810217737E-05
(PID.TID 0000.0001) %MON RAW_sd                       =   4.6832098206938E-05
(PID.TID 0000.0001) %MON RAS_max                      =   1.5707963267949E-04
(PID.TID 0000.0001) %MON RAS_min                      =   1.8165981760462E-21
(PID.TID 0000.0001) %MON RAS_mean                     =   7.8539816339742E-05
(PID.TID 0000.0001) %MON RAS_sd                       =   4.6832098206938E-05
(PID.TID 0000.0001) %MON RAZ_max                      =   1.5707963267949E-04
(PID.TID 0000.0001) %MON RAZ_min                      =   1.8165981760462E-21
(PID.TID 0000.0001) %MON RAZ_mean                     =   7.8539816339742E-05
(PID.TID 0000.0001) %MON RAZ_sd                       =   4.6832098206938E-05
(PID.TID 0000.0001) %MON AngleCS_max                  =   1.0000000000000E+00
(PID.TID 0000.0001) %MON AngleCS_min                  =   1.0000000000000E+00
(PID.TID 0000.0001) %MON AngleCS_mean                 =   1.0000000000000E+00
(PID.TID 0000.0001) %MON AngleCS_sd                   =   0.0000000000000E+00
(PID.TID 0000.0001) %MON AngleSN_max                  =   0.0000000000000E+00
(PID.TID 0000.0001) %MON AngleSN_min                  =   0.0000000000000E+00
(PID.TID 0000.0001) %MON AngleSN_mean                 =   0.0000000000000E+00
(PID.TID 0000.0001) %MON AngleSN_sd                   =   0.0000000000000E+00
(PID.TID 0000.0001)  MDSREADFIELD: opening global file: bathyPol.bin
(PID.TID 0000.0001) // =======================================================
(PID.TID 0000.0001) // Field Bottom depths (ini_depths) at iteration          1
(PID.TID 0000.0001) // CMIN =         -1.449999958276749E-01
(PID.TID 0000.0001) // CMAX =         -1.449999958276749E-01
(PID.TID 0000.0001) // CINT =          0.000000000000000E+00
(PID.TID 0000.0001) // SYMBOLS (CMIN->CMAX): -abcdefghijklmnopqrstuvwxyz+
(PID.TID 0000.0001) //                  0.0: .
(PID.TID 0000.0001) // RANGE I (Lo:Hi:Step):(  -2: 123:   1)
(PID.TID 0000.0001) // RANGE J (Lo:Hi:Step):(  34:  -2:  -1)
(PID.TID 0000.0001) // RANGE K (Lo:Hi:Step):(   1:   1:   1)
(PID.TID 0000.0001) // =======================================================
(PID.TID 0000.0001) // =======================================================
(PID.TID 0000.0001) // END OF FIELD                                          =
(PID.TID 0000.0001) // =======================================================
(PID.TID 0000.0001) 
(PID.TID 0000.0001) // =======================================================
(PID.TID 0000.0001) // Field Model R_low (ini_masks_etc) at iteration          1
(PID.TID 0000.0001) // CMIN =         -1.450000000000000E-01
(PID.TID 0000.0001) // CMAX =         -1.450000000000000E-01
(PID.TID 0000.0001) // CINT =          0.000000000000000E+00
(PID.TID 0000.0001) // SYMBOLS (CMIN->CMAX): -abcdefghijklmnopqrstuvwxyz+
(PID.TID 0000.0001) //                  0.0: .
(PID.TID 0000.0001) // RANGE I (Lo:Hi:Step):(  -2: 123:   1)
(PID.TID 0000.0001) // RANGE J (Lo:Hi:Step):(  34:  -2:  -1)
(PID.TID 0000.0001) // RANGE K (Lo:Hi:Step):(   1:   1:   1)
(PID.TID 0000.0001) // =======================================================
(PID.TID 0000.0001) // =======================================================
(PID.TID 0000.0001) // END OF FIELD                                          =
(PID.TID 0000.0001) // =======================================================
(PID.TID 0000.0001) 
(PID.TID 0000.0001) // =======================================================
(PID.TID 0000.0001) // Field Model Ro_surf (ini_masks_etc) at iteration          1
(PID.TID 0000.0001) // CMIN =          1.561251128379126E-17
(PID.TID 0000.0001) // CMAX =          1.561251128379126E-17
(PID.TID 0000.0001) // CINT =          0.000000000000000E+00
(PID.TID 0000.0001) // SYMBOLS (CMIN->CMAX): -abcdefghijklmnopqrstuvwxyz+
(PID.TID 0000.0001) //                  0.0: .
(PID.TID 0000.0001) // RANGE I (Lo:Hi:Step):(  -2: 123:   1)
(PID.TID 0000.0001) // RANGE J (Lo:Hi:Step):(  34:  -2:  -1)
(PID.TID 0000.0001) // RANGE K (Lo:Hi:Step):(   1:   1:   1)
(PID.TID 0000.0001) // =======================================================
(PID.TID 0000.0001) // =======================================================
(PID.TID 0000.0001) // END OF FIELD                                          =
(PID.TID 0000.0001) // =======================================================
(PID.TID 0000.0001) 
(PID.TID 0000.0001) // =======================================================
(PID.TID 0000.0001) // Field hFacC at iteration          1
(PID.TID 0000.0001) // CMIN =          1.000000000000000E+00
(PID.TID 0000.0001) // CMAX =          1.000000000000000E+00
(PID.TID 0000.0001) // CINT =          0.000000000000000E+00
(PID.TID 0000.0001) // SYMBOLS (CMIN->CMAX): -abcdefghijklmnopqrstuvwxyz+
(PID.TID 0000.0001) //                  0.0: .
(PID.TID 0000.0001) // RANGE I (Lo:Hi:Step):(  -2: 123:   1)
(PID.TID 0000.0001) // RANGE J (Lo:Hi:Step):(  34:  -2:  -1)
(PID.TID 0000.0001) // RANGE K (Lo:Hi:Step):(   1:   1:   1)
(PID.TID 0000.0001) // =======================================================
(PID.TID 0000.0001) // =======================================================
(PID.TID 0000.0001) // END OF FIELD                                          =
(PID.TID 0000.0001) // =======================================================
(PID.TID 0000.0001) 
(PID.TID 0000.0001) // =======================================================
(PID.TID 0000.0001) // Field hFacW at iteration          1
(PID.TID 0000.0001) // CMIN =          1.000000000000000E+00
(PID.TID 0000.0001) // CMAX =          1.000000000000000E+00
(PID.TID 0000.0001) // CINT =          0.000000000000000E+00
(PID.TID 0000.0001) // SYMBOLS (CMIN->CMAX): -abcdefghijklmnopqrstuvwxyz+
(PID.TID 0000.0001) //                  0.0: .
(PID.TID 0000.0001) // RANGE I (Lo:Hi:Step):(  -2: 123:   1)
(PID.TID 0000.0001) // RANGE J (Lo:Hi:Step):(  34:  -2:  -1)
(PID.TID 0000.0001) // RANGE K (Lo:Hi:Step):(   1:   1:   1)
(PID.TID 0000.0001) // =======================================================
(PID.TID 0000.0001) // =======================================================
(PID.TID 0000.0001) // END OF FIELD                                          =
(PID.TID 0000.0001) // =======================================================
(PID.TID 0000.0001) 
(PID.TID 0000.0001) // =======================================================
(PID.TID 0000.0001) // Field hFacS at iteration          1
(PID.TID 0000.0001) // CMIN =          1.000000000000000E+00
(PID.TID 0000.0001) // CMAX =          1.000000000000000E+00
(PID.TID 0000.0001) // CINT =          0.000000000000000E+00
(PID.TID 0000.0001) // SYMBOLS (CMIN->CMAX): -abcdefghijklmnopqrstuvwxyz+
(PID.TID 0000.0001) //                  0.0: .
(PID.TID 0000.0001) // RANGE I (Lo:Hi:Step):(  -2: 123:   1)
(PID.TID 0000.0001) // RANGE J (Lo:Hi:Step):(  34:  -2:  -1)
(PID.TID 0000.0001) // RANGE K (Lo:Hi:Step):(   1:   1:   1)
(PID.TID 0000.0001) // =======================================================
(PID.TID 0000.0001) // =======================================================
(PID.TID 0000.0001) // END OF FIELD                                          =
(PID.TID 0000.0001) // =======================================================
(PID.TID 0000.0001) 
(PID.TID 0000.0001) 
(PID.TID 0000.0001) // ===================================
(PID.TID 0000.0001) // GAD parameters :
(PID.TID 0000.0001) // ===================================
(PID.TID 0000.0001) tempAdvScheme =   /* Temp. Horiz.Advection scheme selector */
(PID.TID 0000.0001)                       2
(PID.TID 0000.0001)     ;
(PID.TID 0000.0001) tempVertAdvScheme =   /* Temp. Vert. Advection scheme selector */
(PID.TID 0000.0001)                       2
(PID.TID 0000.0001)     ;
(PID.TID 0000.0001) tempMultiDimAdvec =   /* use Muti-Dim Advec method for Temp */
(PID.TID 0000.0001)                   F
(PID.TID 0000.0001)     ;
(PID.TID 0000.0001) AdamsBashforthGt =   /* apply Adams-Bashforth extrapolation on Gt */
(PID.TID 0000.0001)                   T
(PID.TID 0000.0001)     ;
(PID.TID 0000.0001) AdamsBashforth_T =   /* apply Adams-Bashforth extrapolation on Temp */
(PID.TID 0000.0001)                   F
(PID.TID 0000.0001)     ;
(PID.TID 0000.0001) saltAdvScheme =   /* Salt. Horiz.advection scheme selector */
(PID.TID 0000.0001)                       2
(PID.TID 0000.0001)     ;
(PID.TID 0000.0001) saltVertAdvScheme =   /* Salt. Vert. Advection scheme selector */
(PID.TID 0000.0001)                       2
(PID.TID 0000.0001)     ;
(PID.TID 0000.0001) saltMultiDimAdvec =   /* use Muti-Dim Advec method for Salt */
(PID.TID 0000.0001)                   F
(PID.TID 0000.0001)     ;
(PID.TID 0000.0001) AdamsBashforthGs =   /* apply Adams-Bashforth extrapolation on Gs */
(PID.TID 0000.0001)                   T
(PID.TID 0000.0001)     ;
(PID.TID 0000.0001) AdamsBashforth_S =   /* apply Adams-Bashforth extrapolation on Salt */
(PID.TID 0000.0001)                   F
(PID.TID 0000.0001)     ;
(PID.TID 0000.0001) // ===================================
(PID.TID 0000.0001) %MON fCori_max                    =   5.0000000000305E-01
(PID.TID 0000.0001) %MON fCori_min                    =   5.0000000000005E-01
(PID.TID 0000.0001) %MON fCori_mean                   =   5.0000000000155E-01
(PID.TID 0000.0001) %MON fCori_sd                     =   8.9443053802850E-13
(PID.TID 0000.0001) %MON fCoriG_max                   =   5.0000000000300E-01
(PID.TID 0000.0001) %MON fCoriG_min                   =   5.0000000000000E-01
(PID.TID 0000.0001) %MON fCoriG_mean                  =   5.0000000000150E-01
(PID.TID 0000.0001) %MON fCoriG_sd                    =   8.9443906273474E-13
(PID.TID 0000.0001) %MON fCoriCos_max                 =   0.0000000000000E+00
(PID.TID 0000.0001) %MON fCoriCos_min                 =   0.0000000000000E+00
(PID.TID 0000.0001) %MON fCoriCos_mean                =   0.0000000000000E+00
(PID.TID 0000.0001) %MON fCoriCos_sd                  =   0.0000000000000E+00
(PID.TID 0000.0001) INI_CG2D: CG2D normalisation factor =  3.0693721328176142E+00
(PID.TID 0000.0001) 
(PID.TID 0000.0001) // CG3D normalisation factor =          0.3237049690004649704633266E+02
(PID.TID 0000.0001) 
(PID.TID 0000.0001) CONFIG_CHECK: OK
(PID.TID 0000.0001) // =======================================================
(PID.TID 0000.0001) // Model configuration
(PID.TID 0000.0001) // =======================================================
(PID.TID 0000.0001) //
(PID.TID 0000.0001) // "Physical" paramters ( PARM01 in namelist )
(PID.TID 0000.0001) //
(PID.TID 0000.0001) buoyancyRelation = OCEANIC
(PID.TID 0000.0001) fluidIsAir  =  /* fluid major constituent is Air */
(PID.TID 0000.0001)                   F
(PID.TID 0000.0001)     ;
(PID.TID 0000.0001) fluidIsWater=  /* fuild major constituent is Water */
(PID.TID 0000.0001)                   T
(PID.TID 0000.0001)     ;
(PID.TID 0000.0001) usingPCoords =  /* use p (or p*) vertical coordinate */
(PID.TID 0000.0001)                   F
(PID.TID 0000.0001)     ;
(PID.TID 0000.0001) usingZCoords =  /* use z (or z*) vertical coordinate */
(PID.TID 0000.0001)                   T
(PID.TID 0000.0001)     ;
(PID.TID 0000.0001) tRef =   /* Reference temperature profile ( oC or K ) */
(PID.TID 0000.0001)    29 @  2.000000000000000E+01              /* K =  1: 29 */
(PID.TID 0000.0001)     ;
(PID.TID 0000.0001) sRef =   /* Reference salinity profile ( psu ) */
(PID.TID 0000.0001)    29 @  3.500000000000000E+01              /* K =  1: 29 */
(PID.TID 0000.0001)     ;
(PID.TID 0000.0001) viscAh =   /* Lateral eddy viscosity ( m^2/s ) */
(PID.TID 0000.0001)                 5.000000000000000E-06
(PID.TID 0000.0001)     ;
(PID.TID 0000.0001) viscAhMax =   /* Maximum lateral eddy viscosity ( m^2/s ) */
(PID.TID 0000.0001)                 1.000000000000000E+21
(PID.TID 0000.0001)     ;
(PID.TID 0000.0001) viscAhGrid =   /* Grid dependent lateral eddy viscosity ( non-dim. ) */
(PID.TID 0000.0001)                 0.000000000000000E+00
(PID.TID 0000.0001)     ;
(PID.TID 0000.0001) useFullLeith =   /* Use Full Form of Leith Viscosity on/off flag*/
(PID.TID 0000.0001)                   F
(PID.TID 0000.0001)     ;
(PID.TID 0000.0001) useStrainTensionVisc =   /* Use StrainTension Form of Viscous Operator on/off flag*/
(PID.TID 0000.0001)                   F
(PID.TID 0000.0001)     ;
(PID.TID 0000.0001) useAreaViscLength =   /* Use area for visc length instead of geom. mean*/
(PID.TID 0000.0001)                   F
(PID.TID 0000.0001)     ;
(PID.TID 0000.0001) viscC2leith = /* Leith harmonic visc. factor (on grad(vort),non-dim.) */
(PID.TID 0000.0001)                 0.000000000000000E+00
(PID.TID 0000.0001)     ;
(PID.TID 0000.0001) viscC2leithD = /* Leith harmonic viscosity factor (on grad(div),non-dim.) */
(PID.TID 0000.0001)                 0.000000000000000E+00
(PID.TID 0000.0001)     ;
(PID.TID 0000.0001) viscC2smag =   /* Smagorinsky harmonic viscosity factor (non-dim.) */
(PID.TID 0000.0001)                 0.000000000000000E+00
(PID.TID 0000.0001)     ;
(PID.TID 0000.0001) viscA4 =   /* Lateral biharmonic viscosity ( m^4/s ) */
(PID.TID 0000.0001)                 0.000000000000000E+00
(PID.TID 0000.0001)     ;
(PID.TID 0000.0001) viscA4Max =   /* Maximum biharmonic viscosity ( m^2/s ) */
(PID.TID 0000.0001)                 1.000000000000000E+21
(PID.TID 0000.0001)     ;
(PID.TID 0000.0001) viscA4Grid =   /* Grid dependent biharmonic viscosity ( non-dim. ) */
(PID.TID 0000.0001)                 0.000000000000000E+00
(PID.TID 0000.0001)     ;
(PID.TID 0000.0001) viscC4leith = /* Leith biharm viscosity factor (on grad(vort), non-dim.) */
(PID.TID 0000.0001)                 0.000000000000000E+00
(PID.TID 0000.0001)     ;
(PID.TID 0000.0001) viscC4leithD = /* Leith biharm viscosity factor (on grad(div), non-dim.) */
(PID.TID 0000.0001)                 0.000000000000000E+00
(PID.TID 0000.0001)     ;
(PID.TID 0000.0001) viscC4Smag = /* Smagorinsky biharm viscosity factor (non-dim) */
(PID.TID 0000.0001)                 0.000000000000000E+00
(PID.TID 0000.0001)     ;
(PID.TID 0000.0001) no_slip_sides =  /* Viscous BCs: No-slip sides */
(PID.TID 0000.0001)                   F
(PID.TID 0000.0001)     ;
(PID.TID 0000.0001) sideDragFactor = /* side-drag scaling factor (non-dim) */
(PID.TID 0000.0001)                 2.000000000000000E+00
(PID.TID 0000.0001)     ;
(PID.TID 0000.0001) viscAr =   /* Vertical eddy viscosity ( units of r^2/s ) */
(PID.TID 0000.0001)                 5.000000000000000E-06
(PID.TID 0000.0001)     ;
(PID.TID 0000.0001) no_slip_bottom =  /* Viscous BCs: No-slip bottom */
(PID.TID 0000.0001)                   F
(PID.TID 0000.0001)     ;
(PID.TID 0000.0001) bottomDragLinear = /* linear bottom-drag coefficient ( 1/s ) */
(PID.TID 0000.0001)                 0.000000000000000E+00
(PID.TID 0000.0001)     ;
(PID.TID 0000.0001) bottomDragQuadratic = /* quadratic bottom-drag coeff. ( 1/m ) */
(PID.TID 0000.0001)                 0.000000000000000E+00
(PID.TID 0000.0001)     ;
(PID.TID 0000.0001) diffKhT =   /* Laplacian diffusion of heat laterally ( m^2/s ) */
(PID.TID 0000.0001)                 2.500000000000000E-06
(PID.TID 0000.0001)     ;
(PID.TID 0000.0001) diffK4T =   /* Bihaarmonic diffusion of heat laterally ( m^4/s ) */
(PID.TID 0000.0001)                 0.000000000000000E+00
(PID.TID 0000.0001)     ;
(PID.TID 0000.0001) diffKhS =   /* Laplacian diffusion of salt laterally ( m^2/s ) */
(PID.TID 0000.0001)                 1.000000000000000E-06
(PID.TID 0000.0001)     ;
(PID.TID 0000.0001) diffK4S =   /* Bihaarmonic diffusion of salt laterally ( m^4/s ) */
(PID.TID 0000.0001)                 0.000000000000000E+00
(PID.TID 0000.0001)     ;
(PID.TID 0000.0001) diffKrNrT = /* vertical profile of vertical diffusion of Temp ( m^2/s )*/
(PID.TID 0000.0001)    29 @  2.500000000000000E-06              /* K =  1: 29 */
(PID.TID 0000.0001)     ;
(PID.TID 0000.0001) diffKrNrS = /* vertical profile of vertical diffusion of Salt ( m^2/s )*/
(PID.TID 0000.0001)    29 @  1.000000000000000E-06              /* K =  1: 29 */
(PID.TID 0000.0001)     ;
(PID.TID 0000.0001) diffKrBL79surf =   /* Surface diffusion for Bryan and Lewis 1979 ( m^2/s ) */
(PID.TID 0000.0001)                 0.000000000000000E+00
(PID.TID 0000.0001)     ;
(PID.TID 0000.0001) diffKrBL79deep =   /* Deep diffusion for Bryan and Lewis 1979 ( m^2/s ) */
(PID.TID 0000.0001)                 0.000000000000000E+00
(PID.TID 0000.0001)     ;
(PID.TID 0000.0001) diffKrBL79scl =   /* Depth scale for Bryan and Lewis 1979 ( m ) */
(PID.TID 0000.0001)                 2.000000000000000E+02
(PID.TID 0000.0001)     ;
(PID.TID 0000.0001) diffKrBL79Ho =   /* Turning depth for Bryan and Lewis 1979 ( m ) */
(PID.TID 0000.0001)                -2.000000000000000E+03
(PID.TID 0000.0001)     ;
(PID.TID 0000.0001) Equation of State : eosType = LINEAR ;
(PID.TID 0000.0001) tAlpha =   /* Linear EOS thermal expansion coefficient ( 1/oC ) */
(PID.TID 0000.0001)                 2.000000000000000E-04
(PID.TID 0000.0001)     ;
(PID.TID 0000.0001) sBeta =   /* Linear EOS haline contraction coefficient ( 1/psu ) */
(PID.TID 0000.0001)                 0.000000000000000E+00
(PID.TID 0000.0001)     ;
(PID.TID 0000.0001) rhonil =   /* Reference density ( kg/m^3 ) */
(PID.TID 0000.0001)                 1.000000000000000E+03
(PID.TID 0000.0001)     ;
(PID.TID 0000.0001) rhoConst =   /* Reference density ( kg/m^3 ) */
(PID.TID 0000.0001)                 1.000000000000000E+03
(PID.TID 0000.0001)     ;
(PID.TID 0000.0001) rhoConstFresh =   /* Reference density ( kg/m^3 ) */
(PID.TID 0000.0001)                 1.000000000000000E+03
(PID.TID 0000.0001)     ;
(PID.TID 0000.0001) gravity =   /* Gravitational acceleration ( m/s^2 ) */
(PID.TID 0000.0001)                 9.810000000000000E+00
(PID.TID 0000.0001)     ;
(PID.TID 0000.0001) gBaro =   /* Barotropic gravity ( m/s^2 ) */
(PID.TID 0000.0001)                 9.810000000000000E+00
(PID.TID 0000.0001)     ;
(PID.TID 0000.0001) rotationPeriod =   /* Rotation Period ( s ) */
(PID.TID 0000.0001)                 8.616400000000000E+04
(PID.TID 0000.0001)     ;
(PID.TID 0000.0001) omega =   /* Angular velocity ( rad/s ) */
(PID.TID 0000.0001)                 7.292123516990375E-05
(PID.TID 0000.0001)     ;
(PID.TID 0000.0001) f0 =   /* Reference coriolis parameter ( 1/s ) */
(PID.TID 0000.0001)                 5.000000000000000E-01
(PID.TID 0000.0001)     ;
(PID.TID 0000.0001) beta =   /* Beta ( 1/(m.s) ) */
(PID.TID 0000.0001)                 9.999999999999999E-12
(PID.TID 0000.0001)     ;
(PID.TID 0000.0001) freeSurfFac =   /* Implicit free surface factor */
(PID.TID 0000.0001)                 0.000000000000000E+00
(PID.TID 0000.0001)     ;
(PID.TID 0000.0001) implicitFreeSurface =   /* Implicit free surface on/off flag */
(PID.TID 0000.0001)                   F
(PID.TID 0000.0001)     ;
(PID.TID 0000.0001) rigidLid =   /* Rigid lid on/off flag */
(PID.TID 0000.0001)                   T
(PID.TID 0000.0001)     ;
(PID.TID 0000.0001) implicSurfPress =   /* Surface Pressure implicit factor (0-1)*/
(PID.TID 0000.0001)                 1.000000000000000E+00
(PID.TID 0000.0001)     ;
(PID.TID 0000.0001) implicDiv2Dflow =   /* Barot. Flow Div. implicit factor (0-1)*/
(PID.TID 0000.0001)                 1.000000000000000E+00
(PID.TID 0000.0001)     ;
(PID.TID 0000.0001) exactConserv =   /* Exact Volume Conservation on/off flag*/
(PID.TID 0000.0001)                   F
(PID.TID 0000.0001)     ;
(PID.TID 0000.0001) uniformLin_PhiSurf =   /* use uniform Bo_surf on/off flag*/
(PID.TID 0000.0001)                   T
(PID.TID 0000.0001)     ;
(PID.TID 0000.0001) nonlinFreeSurf =   /* Non-linear Free Surf. options (-1,0,1,2,3)*/
(PID.TID 0000.0001)                       0
(PID.TID 0000.0001)     ;
(PID.TID 0000.0001)      -1,0= Off ; 1,2,3= On, 2=+rescale gU,gV, 3=+update cg2d solv.
(PID.TID 0000.0001) hFacInf =   /* lower threshold for hFac (nonlinFreeSurf only)*/
(PID.TID 0000.0001)                 2.000000000000000E-01
(PID.TID 0000.0001)     ;
(PID.TID 0000.0001) hFacSup =   /* upper threshold for hFac (nonlinFreeSurf only)*/
(PID.TID 0000.0001)                 2.000000000000000E+00
(PID.TID 0000.0001)     ;
(PID.TID 0000.0001) select_rStar =   /* r* Coordinate options (not yet implemented)*/
(PID.TID 0000.0001)                       0
(PID.TID 0000.0001)     ;
(PID.TID 0000.0001) useRealFreshWaterFlux =   /* Real Fresh Water Flux on/off flag*/
(PID.TID 0000.0001)                   F
(PID.TID 0000.0001)     ;
(PID.TID 0000.0001) convertFW2Salt = /* convert F.W. Flux to Salt Flux (-1=use local S)(ppt)*/
(PID.TID 0000.0001)                 3.500000000000000E+01
(PID.TID 0000.0001)     ;
(PID.TID 0000.0001) use3Dsolver = /* use 3-D pressure solver on/off flag */
(PID.TID 0000.0001)                   T
(PID.TID 0000.0001)     ;
(PID.TID 0000.0001) nonHydrostatic =  /* Non-Hydrostatic on/off flag */
(PID.TID 0000.0001)                   T
(PID.TID 0000.0001)     ;
(PID.TID 0000.0001) nh_Am2 = /* Non-Hydrostatic terms scaling factor */
(PID.TID 0000.0001)                 1.000000000000000E+00
(PID.TID 0000.0001)     ;
(PID.TID 0000.0001) quasiHydrostatic = /* Quasi-Hydrostatic on/off flag */
(PID.TID 0000.0001)                   F
(PID.TID 0000.0001)     ;
(PID.TID 0000.0001) momStepping =  /* Momentum equation on/off flag */
(PID.TID 0000.0001)                   T
(PID.TID 0000.0001)     ;
(PID.TID 0000.0001) vectorInvariantMomentum= /* Vector-Invariant Momentum on/off */
(PID.TID 0000.0001)                   F
(PID.TID 0000.0001)     ;
(PID.TID 0000.0001) momAdvection =  /* Momentum advection on/off flag */
(PID.TID 0000.0001)                   T
(PID.TID 0000.0001)     ;
(PID.TID 0000.0001) momViscosity =  /* Momentum viscosity on/off flag */
(PID.TID 0000.0001)                   T
(PID.TID 0000.0001)     ;
(PID.TID 0000.0001) momImplVertAdv =/* Momentum implicit vert. advection on/off*/
(PID.TID 0000.0001)                   F
(PID.TID 0000.0001)     ;
(PID.TID 0000.0001) implicitViscosity = /* Implicit viscosity on/off flag */
(PID.TID 0000.0001)                   F
(PID.TID 0000.0001)     ;
(PID.TID 0000.0001) metricTerms =  /* metric-Terms on/off flag */
(PID.TID 0000.0001)                   T
(PID.TID 0000.0001)     ;
(PID.TID 0000.0001) useNHMTerms = /* Non-Hydrostatic Metric-Terms on/off */
(PID.TID 0000.0001)                   F
(PID.TID 0000.0001)     ;
(PID.TID 0000.0001) useCoriolis =  /* Coriolis on/off flag */
(PID.TID 0000.0001)                   T
(PID.TID 0000.0001)     ;
(PID.TID 0000.0001) useCDscheme =  /* CD scheme on/off flag */
(PID.TID 0000.0001)                   F
(PID.TID 0000.0001)     ;
(PID.TID 0000.0001) useJamartWetPoints= /* Coriolis WetPoints method flag */
(PID.TID 0000.0001)                   F
(PID.TID 0000.0001)     ;
(PID.TID 0000.0001) useJamartMomAdv= /* V.I. Non-linear terms Jamart flag */
(PID.TID 0000.0001)                   F
(PID.TID 0000.0001)     ;
(PID.TID 0000.0001) SadournyCoriolis= /* Sadourny Coriolis discr. flag */
(PID.TID 0000.0001)                   F
(PID.TID 0000.0001)     ;
(PID.TID 0000.0001) upwindVorticity= /* Upwind bias vorticity flag */
(PID.TID 0000.0001)                   F
(PID.TID 0000.0001)     ;
(PID.TID 0000.0001) useAbsVorticity= /* Work with f+zeta in Coriolis */
(PID.TID 0000.0001)                   F
(PID.TID 0000.0001)     ;
(PID.TID 0000.0001) highOrderVorticity= /* High order interp. of vort. flag */
(PID.TID 0000.0001)                   F
(PID.TID 0000.0001)     ;
(PID.TID 0000.0001) upwindShear= /* Upwind vertical Shear advection flag */
(PID.TID 0000.0001)                   F
(PID.TID 0000.0001)     ;
(PID.TID 0000.0001) selectKEscheme= /* Kinetic Energy scheme selector */
(PID.TID 0000.0001)                       0
(PID.TID 0000.0001)     ;
(PID.TID 0000.0001) momForcing =  /* Momentum forcing on/off flag */
(PID.TID 0000.0001)                   T
(PID.TID 0000.0001)     ;
(PID.TID 0000.0001) momPressureForcing =  /* Momentum pressure term on/off flag */
(PID.TID 0000.0001)                   T
(PID.TID 0000.0001)     ;
(PID.TID 0000.0001) implicitIntGravWave= /* Implicit Internal Gravity Wave flag */
(PID.TID 0000.0001)                   F
(PID.TID 0000.0001)     ;
(PID.TID 0000.0001) staggerTimeStep =   /* Stagger time stepping on/off flag */
(PID.TID 0000.0001)                   F
(PID.TID 0000.0001)     ;
(PID.TID 0000.0001) multiDimAdvection =   /* enable/disable Multi-Dim Advection */
(PID.TID 0000.0001)                   T
(PID.TID 0000.0001)     ;
(PID.TID 0000.0001) useMultiDimAdvec =   /* Multi-Dim Advection is/is-not used */
(PID.TID 0000.0001)                   F
(PID.TID 0000.0001)     ;
(PID.TID 0000.0001) implicitDiffusion =/* Implicit Diffusion on/off flag */
(PID.TID 0000.0001)                   F
(PID.TID 0000.0001)     ;
(PID.TID 0000.0001) tempStepping =  /* Temperature equation on/off flag */
(PID.TID 0000.0001)                   T
(PID.TID 0000.0001)     ;
(PID.TID 0000.0001) tempAdvection=  /* Temperature advection on/off flag */
(PID.TID 0000.0001)                   T
(PID.TID 0000.0001)     ;
(PID.TID 0000.0001) tempImplVertAdv =/* Temp. implicit vert. advection on/off */
(PID.TID 0000.0001)                   F
(PID.TID 0000.0001)     ;
(PID.TID 0000.0001) tempForcing  =  /* Temperature forcing on/off flag */
(PID.TID 0000.0001)                   T
(PID.TID 0000.0001)     ;
(PID.TID 0000.0001) saltStepping =  /* Salinity equation on/off flag */
(PID.TID 0000.0001)                   T
(PID.TID 0000.0001)     ;
(PID.TID 0000.0001) saltAdvection=  /* Salinity advection on/off flag */
(PID.TID 0000.0001)                   T
(PID.TID 0000.0001)     ;
(PID.TID 0000.0001) saltImplVertAdv =/* Sali. implicit vert. advection on/off */
(PID.TID 0000.0001)                   F
(PID.TID 0000.0001)     ;
(PID.TID 0000.0001) saltForcing  =  /* Salinity forcing on/off flag */
(PID.TID 0000.0001)                   T
(PID.TID 0000.0001)     ;
(PID.TID 0000.0001)  readBinaryPrec = /* Precision used for reading binary files */
(PID.TID 0000.0001)                      32
(PID.TID 0000.0001)     ;
(PID.TID 0000.0001) writeBinaryPrec = /* Precision used for writing binary files */
(PID.TID 0000.0001)                      32
(PID.TID 0000.0001)     ;
(PID.TID 0000.0001)  globalFiles = /* write "global" (=not per tile) files */
(PID.TID 0000.0001)                   F
(PID.TID 0000.0001)     ;
(PID.TID 0000.0001)  useSingleCpuIO = /* only master MPI process does I/O */
(PID.TID 0000.0001)                   F
(PID.TID 0000.0001)     ;
(PID.TID 0000.0001)  debugMode  =  /* Debug Mode on/off flag */
(PID.TID 0000.0001)                   F
(PID.TID 0000.0001)     ;
(PID.TID 0000.0001)    debLevA  =  /* 1rst level of debugging */
(PID.TID 0000.0001)                       1
(PID.TID 0000.0001)     ;
(PID.TID 0000.0001)    debLevB  =  /* 2nd  level of debugging */
(PID.TID 0000.0001)                       2
(PID.TID 0000.0001)     ;
(PID.TID 0000.0001)  debugLevel =  /* select debugging level */
(PID.TID 0000.0001)                       1
(PID.TID 0000.0001)     ;
(PID.TID 0000.0001) //
(PID.TID 0000.0001) // Elliptic solver(s) paramters ( PARM02 in namelist )
(PID.TID 0000.0001) //
(PID.TID 0000.0001) cg2dMaxIters =   /* Upper limit on 2d con. grad iterations  */
(PID.TID 0000.0001)                    1000
(PID.TID 0000.0001)     ;
(PID.TID 0000.0001) cg2dChkResFreq =   /* 2d con. grad convergence test frequency */
(PID.TID 0000.0001)                       1
(PID.TID 0000.0001)     ;
(PID.TID 0000.0001) cg2dTargetResidual =   /* 2d con. grad target residual  */
(PID.TID 0000.0001)                 1.000000000000000E-07
(PID.TID 0000.0001)     ;
(PID.TID 0000.0001) cg2dTargetResWunit =   /* CG2d target residual [W units] */
(PID.TID 0000.0001)                -1.000000000000000E+00
(PID.TID 0000.0001)     ;
(PID.TID 0000.0001) cg2dPreCondFreq =   /* Freq. for updating cg2d preconditioner */
(PID.TID 0000.0001)                       1
(PID.TID 0000.0001)     ;
(PID.TID 0000.0001) //
(PID.TID 0000.0001) // Time stepping paramters ( PARM03 in namelist )
(PID.TID 0000.0001) //
(PID.TID 0000.0001) nIter0 =   /* Run starting timestep number  */
(PID.TID 0000.0001)                       0
(PID.TID 0000.0001)     ;
(PID.TID 0000.0001) nTimeSteps =   /* Number of timesteps */
(PID.TID 0000.0001)                      20
(PID.TID 0000.0001)     ;
(PID.TID 0000.0001) deltaTmom =   /* Momentum equation timestep ( s ) */
(PID.TID 0000.0001)                 1.000000000000000E-01
(PID.TID 0000.0001)     ;
(PID.TID 0000.0001) deltaTfreesurf =   /* FreeSurface equation timestep ( s ) */
(PID.TID 0000.0001)                 1.000000000000000E-01
(PID.TID 0000.0001)     ;
(PID.TID 0000.0001) dTtracerLev =   /* Tracer equation timestep ( s ) */
(PID.TID 0000.0001)    29 @  1.000000000000000E-01              /* K =  1: 29 */
(PID.TID 0000.0001)     ;
(PID.TID 0000.0001) deltaTClock  =   /* Model clock timestep ( s ) */
(PID.TID 0000.0001)                 1.000000000000000E-01
(PID.TID 0000.0001)     ;
(PID.TID 0000.0001) cAdjFreq =   /* Convective adjustment interval ( s ) */
(PID.TID 0000.0001)                 0.000000000000000E+00
(PID.TID 0000.0001)     ;
(PID.TID 0000.0001) momForcingOutAB = /* =1: take Momentum Forcing out of Adams-Bash. stepping */
(PID.TID 0000.0001)                       0
(PID.TID 0000.0001)     ;
(PID.TID 0000.0001) tracForcingOutAB = /* =1: take T,S,pTr Forcing out of Adams-Bash. stepping */
(PID.TID 0000.0001)                       0
(PID.TID 0000.0001)     ;
(PID.TID 0000.0001) momDissip_In_AB = /* put Dissipation Tendency in Adams-Bash. stepping */
(PID.TID 0000.0001)                   T
(PID.TID 0000.0001)     ;
(PID.TID 0000.0001) doAB_onGtGs = /* apply AB on Tendencies (rather than on T,S)*/
(PID.TID 0000.0001)                   T
(PID.TID 0000.0001)     ;
(PID.TID 0000.0001) abEps =   /* Adams-Bashforth-2 stabilizing weight */
(PID.TID 0000.0001)                 1.000000000000000E-01
(PID.TID 0000.0001)     ;
(PID.TID 0000.0001) baseTime =   /* Model base time ( s ). */
(PID.TID 0000.0001)                 0.000000000000000E+00
(PID.TID 0000.0001)     ;
(PID.TID 0000.0001) startTime =   /* Run start time ( s ). */
(PID.TID 0000.0001)                 0.000000000000000E+00
(PID.TID 0000.0001)     ;
(PID.TID 0000.0001) endTime =   /* Integration ending time ( s ). */
(PID.TID 0000.0001)                 2.000000000000000E+00
(PID.TID 0000.0001)     ;
(PID.TID 0000.0001) pChkPtFreq =   /* Permanent restart/checkpoint file interval ( s ). */
(PID.TID 0000.0001)                 2.000000000000000E+00
(PID.TID 0000.0001)     ;
(PID.TID 0000.0001) chkPtFreq =   /* Rolling restart/checkpoint file interval ( s ). */
(PID.TID 0000.0001)                 2.000000000000000E+00
(PID.TID 0000.0001)     ;
(PID.TID 0000.0001) pickup_write_mdsio =   /* Model IO flag. */
(PID.TID 0000.0001)                   F
(PID.TID 0000.0001)     ;
(PID.TID 0000.0001) pickup_read_mdsio =   /* Model IO flag. */
(PID.TID 0000.0001)                   F
(PID.TID 0000.0001)     ;
(PID.TID 0000.0001) pickup_write_mnc =   /* Model IO flag. */
(PID.TID 0000.0001)                   T
(PID.TID 0000.0001)     ;
(PID.TID 0000.0001) pickup_read_mnc =   /* Model IO flag. */
(PID.TID 0000.0001)                   T
(PID.TID 0000.0001)     ;
(PID.TID 0000.0001) pickup_write_immed =   /* Model IO flag. */
(PID.TID 0000.0001)                   F
(PID.TID 0000.0001)     ;
(PID.TID 0000.0001) dumpFreq =   /* Model state write out interval ( s ). */
(PID.TID 0000.0001)                 2.000000000000000E+00
(PID.TID 0000.0001)     ;
(PID.TID 0000.0001) dumpInitAndLast= /* write out Initial & Last iter. model state */
(PID.TID 0000.0001)                   T
(PID.TID 0000.0001)     ;
(PID.TID 0000.0001) snapshot_mdsio =   /* Model IO flag. */
(PID.TID 0000.0001)                   F
(PID.TID 0000.0001)     ;
(PID.TID 0000.0001) snapshot_mnc =   /* Model IO flag. */
(PID.TID 0000.0001)                   T
(PID.TID 0000.0001)     ;
(PID.TID 0000.0001) monitorFreq =   /* Monitor output interval ( s ). */
(PID.TID 0000.0001)                 1.000000000000000E-01
(PID.TID 0000.0001)     ;
(PID.TID 0000.0001) monitor_stdio =   /* Model IO flag. */
(PID.TID 0000.0001)                   T
(PID.TID 0000.0001)     ;
(PID.TID 0000.0001) monitor_mnc =   /* Model IO flag. */
(PID.TID 0000.0001)                   F
(PID.TID 0000.0001)     ;
(PID.TID 0000.0001) externForcingPeriod =   /* forcing period (s) */
(PID.TID 0000.0001)                 0.000000000000000E+00
(PID.TID 0000.0001)     ;
(PID.TID 0000.0001) externForcingCycle =   /* period of the cyle (s). */
(PID.TID 0000.0001)                 0.000000000000000E+00
(PID.TID 0000.0001)     ;
(PID.TID 0000.0001) tauThetaClimRelax =   /* relaxation time scale (s) */
(PID.TID 0000.0001)                 0.000000000000000E+00
(PID.TID 0000.0001)     ;
(PID.TID 0000.0001) tauSaltClimRelax =   /* relaxation time scale (s) */
(PID.TID 0000.0001)                 0.000000000000000E+00
(PID.TID 0000.0001)     ;
(PID.TID 0000.0001) latBandClimRelax =   /* max. Lat. where relaxation */
(PID.TID 0000.0001)                 9.300000000000004E-01
(PID.TID 0000.0001)     ;
(PID.TID 0000.0001) //
(PID.TID 0000.0001) // Gridding paramters ( PARM04 in namelist )
(PID.TID 0000.0001) //
(PID.TID 0000.0001) usingCartesianGrid =   /* Cartesian coordinates flag ( True / False ) */
(PID.TID 0000.0001)                   F
(PID.TID 0000.0001)     ;
(PID.TID 0000.0001) usingSphericalPolarGrid =   /* Spherical coordinates flag ( True / False ) */
(PID.TID 0000.0001)                   F
(PID.TID 0000.0001)     ;
(PID.TID 0000.0001) usingCylindricalGrid =   /* Spherical coordinates flag ( True / False ) */
(PID.TID 0000.0001)                   T
(PID.TID 0000.0001)     ;
(PID.TID 0000.0001) Ro_SeaLevel =   /* r(1) ( units of r ) */
(PID.TID 0000.0001)                 0.000000000000000E+00
(PID.TID 0000.0001)     ;
(PID.TID 0000.0001) rkSign =   /* index orientation relative to vertical coordinate */
(PID.TID 0000.0001)                -1.000000000000000E+00
(PID.TID 0000.0001)     ;
(PID.TID 0000.0001) horiVertRatio =   /* Ratio on units : Horiz - Vertical */
(PID.TID 0000.0001)                 1.000000000000000E+00
(PID.TID 0000.0001)     ;
(PID.TID 0000.0001) drC =   /* C spacing ( units of r ) */
(PID.TID 0000.0001)                 2.500000000000000E-03,      /* K =  1 */
(PID.TID 0000.0001)    28 @  5.000000000000000E-03              /* K =  2: 29 */
(PID.TID 0000.0001)     ;
(PID.TID 0000.0001) drF =   /* W spacing ( units of r ) */
(PID.TID 0000.0001)    29 @  5.000000000000000E-03              /* K =  1: 29 */
(PID.TID 0000.0001)     ;
(PID.TID 0000.0001) delX =   /* U spacing ( m - cartesian, degrees - spherical ) */
(PID.TID 0000.0001)   120 @  3.000000000000000E+00              /* I =  1:120 */
(PID.TID 0000.0001)     ;
(PID.TID 0000.0001) delY =   /* V spacing ( m - cartesian, degrees - spherical ) */
(PID.TID 0000.0001)    31 @  1.000000000000000E-02              /* J =  1: 31 */
(PID.TID 0000.0001)     ;
(PID.TID 0000.0001) phiMin =    /* South edge (ignored - cartesian, degrees - spherical ) */
(PID.TID 0000.0001)                 0.000000000000000E+00
(PID.TID 0000.0001)     ;
(PID.TID 0000.0001) thetaMin =    /* West edge ( ignored - cartesian, degrees - spherical ) */
(PID.TID 0000.0001)                 0.000000000000000E+00
(PID.TID 0000.0001)     ;
(PID.TID 0000.0001) rSphere =    /* Radius ( ignored - cartesian, m - spherical ) */
(PID.TID 0000.0001)                 6.370000000000000E+06
(PID.TID 0000.0001)     ;
(PID.TID 0000.0001) xcoord =   /* P-point X coord ( m - cartesian, degrees - spherical ) */
(PID.TID 0000.0001)                 1.500000000000000E+00,      /* I =  1 */
(PID.TID 0000.0001)                 4.500000000000000E+00,      /* I =  2 */
(PID.TID 0000.0001)                 7.500000000000000E+00,      /* I =  3 */
(PID.TID 0000.0001)                 1.050000000000000E+01,      /* I =  4 */
(PID.TID 0000.0001)                 1.350000000000000E+01,      /* I =  5 */
(PID.TID 0000.0001)                 1.650000000000000E+01,      /* I =  6 */
(PID.TID 0000.0001)                 1.950000000000000E+01,      /* I =  7 */
(PID.TID 0000.0001)                 2.250000000000000E+01,      /* I =  8 */
(PID.TID 0000.0001)                 2.550000000000000E+01,      /* I =  9 */
(PID.TID 0000.0001)                 2.850000000000000E+01,      /* I = 10 */
(PID.TID 0000.0001)                 3.150000000000000E+01,      /* I = 11 */
(PID.TID 0000.0001)                 3.450000000000000E+01,      /* I = 12 */
(PID.TID 0000.0001)                 3.750000000000000E+01,      /* I = 13 */
(PID.TID 0000.0001)                 4.050000000000000E+01,      /* I = 14 */
(PID.TID 0000.0001)                 4.350000000000000E+01,      /* I = 15 */
(PID.TID 0000.0001)                 4.650000000000000E+01,      /* I = 16 */
(PID.TID 0000.0001)                 4.950000000000000E+01,      /* I = 17 */
(PID.TID 0000.0001)                 5.250000000000000E+01,      /* I = 18 */
(PID.TID 0000.0001)                 5.550000000000000E+01,      /* I = 19 */
(PID.TID 0000.0001)                 5.850000000000000E+01,      /* I = 20 */
(PID.TID 0000.0001)                 6.150000000000000E+01,      /* I = 21 */
(PID.TID 0000.0001)                 6.450000000000000E+01,      /* I = 22 */
(PID.TID 0000.0001)                 6.750000000000000E+01,      /* I = 23 */
(PID.TID 0000.0001)                 7.050000000000000E+01,      /* I = 24 */
(PID.TID 0000.0001)                 7.350000000000000E+01,      /* I = 25 */
(PID.TID 0000.0001)                 7.650000000000000E+01,      /* I = 26 */
(PID.TID 0000.0001)                 7.950000000000000E+01,      /* I = 27 */
(PID.TID 0000.0001)                 8.250000000000000E+01,      /* I = 28 */
(PID.TID 0000.0001)                 8.550000000000000E+01,      /* I = 29 */
(PID.TID 0000.0001)                 8.850000000000000E+01,      /* I = 30 */
(PID.TID 0000.0001)                 9.150000000000000E+01,      /* I = 31 */
(PID.TID 0000.0001)                 9.450000000000000E+01,      /* I = 32 */
(PID.TID 0000.0001)                 9.750000000000000E+01,      /* I = 33 */
(PID.TID 0000.0001)                 1.005000000000000E+02,      /* I = 34 */
(PID.TID 0000.0001)                 1.035000000000000E+02,      /* I = 35 */
(PID.TID 0000.0001)                 1.065000000000000E+02,      /* I = 36 */
(PID.TID 0000.0001)                 1.095000000000000E+02,      /* I = 37 */
(PID.TID 0000.0001)                 1.125000000000000E+02,      /* I = 38 */
(PID.TID 0000.0001)                 1.155000000000000E+02,      /* I = 39 */
(PID.TID 0000.0001)                 1.185000000000000E+02,      /* I = 40 */
(PID.TID 0000.0001)                 1.215000000000000E+02,      /* I = 41 */
(PID.TID 0000.0001)                 1.245000000000000E+02,      /* I = 42 */
(PID.TID 0000.0001)                 1.275000000000000E+02,      /* I = 43 */
(PID.TID 0000.0001)                 1.305000000000000E+02,      /* I = 44 */
(PID.TID 0000.0001)                 1.335000000000000E+02,      /* I = 45 */
(PID.TID 0000.0001)                 1.365000000000000E+02,      /* I = 46 */
(PID.TID 0000.0001)                 1.395000000000000E+02,      /* I = 47 */
(PID.TID 0000.0001)                 1.425000000000000E+02,      /* I = 48 */
(PID.TID 0000.0001)                 1.455000000000000E+02,      /* I = 49 */
(PID.TID 0000.0001)                 1.485000000000000E+02,      /* I = 50 */
(PID.TID 0000.0001)                 1.515000000000000E+02,      /* I = 51 */
(PID.TID 0000.0001)                 1.545000000000000E+02,      /* I = 52 */
(PID.TID 0000.0001)                 1.575000000000000E+02,      /* I = 53 */
(PID.TID 0000.0001)                 1.605000000000000E+02,      /* I = 54 */
(PID.TID 0000.0001)                 1.635000000000000E+02,      /* I = 55 */
(PID.TID 0000.0001)                 1.665000000000000E+02,      /* I = 56 */
(PID.TID 0000.0001)                 1.695000000000000E+02,      /* I = 57 */
(PID.TID 0000.0001)                 1.725000000000000E+02,      /* I = 58 */
(PID.TID 0000.0001)                 1.755000000000000E+02,      /* I = 59 */
(PID.TID 0000.0001)                 1.785000000000000E+02,      /* I = 60 */
(PID.TID 0000.0001)                 1.815000000000000E+02,      /* I = 61 */
(PID.TID 0000.0001)                 1.845000000000000E+02,      /* I = 62 */
(PID.TID 0000.0001)                 1.875000000000000E+02,      /* I = 63 */
(PID.TID 0000.0001)                 1.905000000000000E+02,      /* I = 64 */
(PID.TID 0000.0001)                 1.935000000000000E+02,      /* I = 65 */
(PID.TID 0000.0001)                 1.965000000000000E+02,      /* I = 66 */
(PID.TID 0000.0001)                 1.995000000000000E+02,      /* I = 67 */
(PID.TID 0000.0001)                 2.025000000000000E+02,      /* I = 68 */
(PID.TID 0000.0001)                 2.055000000000000E+02,      /* I = 69 */
(PID.TID 0000.0001)                 2.085000000000000E+02,      /* I = 70 */
(PID.TID 0000.0001)                 2.115000000000000E+02,      /* I = 71 */
(PID.TID 0000.0001)                 2.145000000000000E+02,      /* I = 72 */
(PID.TID 0000.0001)                 2.175000000000000E+02,      /* I = 73 */
(PID.TID 0000.0001)                 2.205000000000000E+02,      /* I = 74 */
(PID.TID 0000.0001)                 2.235000000000000E+02,      /* I = 75 */
(PID.TID 0000.0001)                 2.265000000000000E+02,      /* I = 76 */
(PID.TID 0000.0001)                 2.295000000000000E+02,      /* I = 77 */
(PID.TID 0000.0001)                 2.325000000000000E+02,      /* I = 78 */
(PID.TID 0000.0001)                 2.355000000000000E+02,      /* I = 79 */
(PID.TID 0000.0001)                 2.385000000000000E+02,      /* I = 80 */
(PID.TID 0000.0001)                 2.415000000000000E+02,      /* I = 81 */
(PID.TID 0000.0001)                 2.445000000000000E+02,      /* I = 82 */
(PID.TID 0000.0001)                 2.475000000000000E+02,      /* I = 83 */
(PID.TID 0000.0001)                 2.505000000000000E+02,      /* I = 84 */
(PID.TID 0000.0001)                 2.535000000000000E+02,      /* I = 85 */
(PID.TID 0000.0001)                 2.565000000000000E+02,      /* I = 86 */
(PID.TID 0000.0001)                 2.595000000000000E+02,      /* I = 87 */
(PID.TID 0000.0001)                 2.625000000000000E+02,      /* I = 88 */
(PID.TID 0000.0001)                 2.655000000000000E+02,      /* I = 89 */
(PID.TID 0000.0001)                 2.685000000000000E+02,      /* I = 90 */
(PID.TID 0000.0001)                 2.715000000000000E+02,      /* I = 91 */
(PID.TID 0000.0001)                 2.745000000000000E+02,      /* I = 92 */
(PID.TID 0000.0001)                 2.775000000000000E+02,      /* I = 93 */
(PID.TID 0000.0001)                 2.805000000000000E+02,      /* I = 94 */
(PID.TID 0000.0001)                 2.835000000000000E+02,      /* I = 95 */
(PID.TID 0000.0001)                 2.865000000000000E+02,      /* I = 96 */
(PID.TID 0000.0001)                 2.895000000000000E+02,      /* I = 97 */
(PID.TID 0000.0001)                 2.925000000000000E+02,      /* I = 98 */
(PID.TID 0000.0001)                 2.955000000000000E+02,      /* I = 99 */
(PID.TID 0000.0001)                 2.985000000000000E+02,      /* I =100 */
(PID.TID 0000.0001)                 3.015000000000000E+02,      /* I =101 */
(PID.TID 0000.0001)                 3.045000000000000E+02,      /* I =102 */
(PID.TID 0000.0001)                 3.075000000000000E+02,      /* I =103 */
(PID.TID 0000.0001)                 3.105000000000000E+02,      /* I =104 */
(PID.TID 0000.0001)                 3.135000000000000E+02,      /* I =105 */
(PID.TID 0000.0001)                 3.165000000000000E+02,      /* I =106 */
(PID.TID 0000.0001)                 3.195000000000000E+02,      /* I =107 */
(PID.TID 0000.0001)                 3.225000000000000E+02,      /* I =108 */
(PID.TID 0000.0001)                 3.255000000000000E+02,      /* I =109 */
(PID.TID 0000.0001)                 3.285000000000000E+02,      /* I =110 */
(PID.TID 0000.0001)                 3.315000000000000E+02,      /* I =111 */
(PID.TID 0000.0001)                 3.345000000000000E+02,      /* I =112 */
(PID.TID 0000.0001)                 3.375000000000000E+02,      /* I =113 */
(PID.TID 0000.0001)                 3.405000000000000E+02,      /* I =114 */
(PID.TID 0000.0001)                 3.435000000000000E+02,      /* I =115 */
(PID.TID 0000.0001)                 3.465000000000000E+02,      /* I =116 */
(PID.TID 0000.0001)                 3.495000000000000E+02,      /* I =117 */
(PID.TID 0000.0001)                 3.525000000000000E+02,      /* I =118 */
(PID.TID 0000.0001)                 3.555000000000000E+02,      /* I =119 */
(PID.TID 0000.0001)                 3.585000000000000E+02       /* I =120 */
(PID.TID 0000.0001)     ;
(PID.TID 0000.0001) ycoord =   /* P-point Y coord ( m - cartesian, degrees - spherical ) */
(PID.TID 0000.0001)                 5.000000000000004E-03,      /* J =  1 */
(PID.TID 0000.0001)                 1.500000000000000E-02,      /* J =  2 */
(PID.TID 0000.0001)                 2.500000000000000E-02,      /* J =  3 */
(PID.TID 0000.0001)                 3.500000000000000E-02,      /* J =  4 */
(PID.TID 0000.0001)                 4.500000000000001E-02,      /* J =  5 */
(PID.TID 0000.0001)                 5.500000000000001E-02,      /* J =  6 */
(PID.TID 0000.0001)                 6.500000000000000E-02,      /* J =  7 */
(PID.TID 0000.0001)                 7.500000000000001E-02,      /* J =  8 */
(PID.TID 0000.0001)                 8.499999999999999E-02,      /* J =  9 */
(PID.TID 0000.0001)                 9.499999999999999E-02,      /* J = 10 */
(PID.TID 0000.0001)                 1.050000000000000E-01,      /* J = 11 */
(PID.TID 0000.0001)                 1.150000000000000E-01,      /* J = 12 */
(PID.TID 0000.0001)                 1.250000000000000E-01,      /* J = 13 */
(PID.TID 0000.0001)                 1.350000000000000E-01,      /* J = 14 */
(PID.TID 0000.0001)                 1.450000000000000E-01,      /* J = 15 */
(PID.TID 0000.0001)                 1.550000000000000E-01,      /* J = 16 */
(PID.TID 0000.0001)                 1.650000000000000E-01,      /* J = 17 */
(PID.TID 0000.0001)                 1.750000000000000E-01,      /* J = 18 */
(PID.TID 0000.0001)                 1.850000000000000E-01,      /* J = 19 */
(PID.TID 0000.0001)                 1.950000000000000E-01,      /* J = 20 */
(PID.TID 0000.0001)                 2.050000000000000E-01,      /* J = 21 */
(PID.TID 0000.0001)                 2.150000000000001E-01,      /* J = 22 */
(PID.TID 0000.0001)                 2.250000000000001E-01,      /* J = 23 */
(PID.TID 0000.0001)                 2.350000000000001E-01,      /* J = 24 */
(PID.TID 0000.0001)                 2.450000000000001E-01,      /* J = 25 */
(PID.TID 0000.0001)                 2.550000000000001E-01,      /* J = 26 */
(PID.TID 0000.0001)                 2.650000000000001E-01,      /* J = 27 */
(PID.TID 0000.0001)                 2.750000000000001E-01,      /* J = 28 */
(PID.TID 0000.0001)                 2.850000000000001E-01,      /* J = 29 */
(PID.TID 0000.0001)                 2.950000000000001E-01,      /* J = 30 */
(PID.TID 0000.0001)                 3.050000000000001E-01       /* J = 31 */
(PID.TID 0000.0001)     ;
(PID.TID 0000.0001) rcoord =   /* P-point R coordinate (  units of r ) */
(PID.TID 0000.0001)                -2.500000000000000E-03,      /* K =  1 */
(PID.TID 0000.0001)                -7.500000000000000E-03,      /* K =  2 */
(PID.TID 0000.0001)                -1.250000000000000E-02,      /* K =  3 */
(PID.TID 0000.0001)                -1.750000000000000E-02,      /* K =  4 */
(PID.TID 0000.0001)                -2.250000000000000E-02,      /* K =  5 */
(PID.TID 0000.0001)                -2.750000000000000E-02,      /* K =  6 */
(PID.TID 0000.0001)                -3.250000000000000E-02,      /* K =  7 */
(PID.TID 0000.0001)                -3.750000000000000E-02,      /* K =  8 */
(PID.TID 0000.0001)                -4.250000000000000E-02,      /* K =  9 */
(PID.TID 0000.0001)                -4.749999999999999E-02,      /* K = 10 */
(PID.TID 0000.0001)                -5.249999999999999E-02,      /* K = 11 */
(PID.TID 0000.0001)                -5.749999999999999E-02,      /* K = 12 */
(PID.TID 0000.0001)                -6.249999999999999E-02,      /* K = 13 */
(PID.TID 0000.0001)                -6.749999999999999E-02,      /* K = 14 */
(PID.TID 0000.0001)                -7.250000000000000E-02,      /* K = 15 */
(PID.TID 0000.0001)                -7.750000000000000E-02,      /* K = 16 */
(PID.TID 0000.0001)                -8.250000000000000E-02,      /* K = 17 */
(PID.TID 0000.0001)                -8.750000000000001E-02,      /* K = 18 */
(PID.TID 0000.0001)                -9.250000000000001E-02,      /* K = 19 */
(PID.TID 0000.0001)                -9.750000000000002E-02,      /* K = 20 */
(PID.TID 0000.0001)                -1.025000000000000E-01,      /* K = 21 */
(PID.TID 0000.0001)                -1.075000000000000E-01,      /* K = 22 */
(PID.TID 0000.0001)                -1.125000000000000E-01,      /* K = 23 */
(PID.TID 0000.0001)                -1.175000000000000E-01,      /* K = 24 */
(PID.TID 0000.0001)                -1.225000000000000E-01,      /* K = 25 */
(PID.TID 0000.0001)                -1.275000000000000E-01,      /* K = 26 */
(PID.TID 0000.0001)                -1.325000000000000E-01,      /* K = 27 */
(PID.TID 0000.0001)                -1.375000000000000E-01,      /* K = 28 */
(PID.TID 0000.0001)                -1.425000000000000E-01       /* K = 29 */
(PID.TID 0000.0001)     ;
(PID.TID 0000.0001) rF =   /* W-Interf. R coordinate (  units of r ) */
(PID.TID 0000.0001)                 0.000000000000000E+00,      /* K =  1 */
(PID.TID 0000.0001)                -5.000000000000000E-03,      /* K =  2 */
(PID.TID 0000.0001)                -1.000000000000000E-02,      /* K =  3 */
(PID.TID 0000.0001)                -1.500000000000000E-02,      /* K =  4 */
(PID.TID 0000.0001)                -2.000000000000000E-02,      /* K =  5 */
(PID.TID 0000.0001)                -2.500000000000000E-02,      /* K =  6 */
(PID.TID 0000.0001)                -3.000000000000000E-02,      /* K =  7 */
(PID.TID 0000.0001)                -3.500000000000000E-02,      /* K =  8 */
(PID.TID 0000.0001)                -4.000000000000000E-02,      /* K =  9 */
(PID.TID 0000.0001)                -4.500000000000000E-02,      /* K = 10 */
(PID.TID 0000.0001)                -5.000000000000000E-02,      /* K = 11 */
(PID.TID 0000.0001)                -5.499999999999999E-02,      /* K = 12 */
(PID.TID 0000.0001)                -5.999999999999999E-02,      /* K = 13 */
(PID.TID 0000.0001)                -6.499999999999999E-02,      /* K = 14 */
(PID.TID 0000.0001)                -6.999999999999999E-02,      /* K = 15 */
(PID.TID 0000.0001)                -7.500000000000000E-02,      /* K = 16 */
(PID.TID 0000.0001)                -8.000000000000000E-02,      /* K = 17 */
(PID.TID 0000.0001)                -8.500000000000001E-02,      /* K = 18 */
(PID.TID 0000.0001)                -9.000000000000001E-02,      /* K = 19 */
(PID.TID 0000.0001)                -9.500000000000001E-02,      /* K = 20 */
(PID.TID 0000.0001)                -1.000000000000000E-01,      /* K = 21 */
(PID.TID 0000.0001)                -1.050000000000000E-01,      /* K = 22 */
(PID.TID 0000.0001)                -1.100000000000000E-01,      /* K = 23 */
(PID.TID 0000.0001)                -1.150000000000000E-01,      /* K = 24 */
(PID.TID 0000.0001)                -1.200000000000000E-01,      /* K = 25 */
(PID.TID 0000.0001)                -1.250000000000000E-01,      /* K = 26 */
(PID.TID 0000.0001)                -1.300000000000000E-01,      /* K = 27 */
(PID.TID 0000.0001)                -1.350000000000000E-01,      /* K = 28 */
(PID.TID 0000.0001)                -1.400000000000000E-01,      /* K = 29 */
(PID.TID 0000.0001)                -1.450000000000000E-01       /* K = 30 */
(PID.TID 0000.0001)     ;
(PID.TID 0000.0001) dBdrRef = /* Vertical gradient of reference boyancy [(m/s/r)^2)] */
(PID.TID 0000.0001)    29 @  0.000000000000000E+00              /* K =  1: 29 */
(PID.TID 0000.0001)     ;
(PID.TID 0000.0001) dxF =  /* dxF(:,1,:,1) ( m - cartesian, degrees - spherical ) */
(PID.TID 0000.0001)   120 @  2.617993877991496E-04              /* I =  1:120 */
(PID.TID 0000.0001)     ;
(PID.TID 0000.0001) dxF =  /* dxF(1,:,1,:) ( m - cartesian, degrees - spherical ) */
(PID.TID 0000.0001)                 2.617993877991496E-04,      /* J =  1 */
(PID.TID 0000.0001)                 7.853981633974485E-04,      /* J =  2 */
(PID.TID 0000.0001)                 1.308996938995747E-03,      /* J =  3 */
(PID.TID 0000.0001)                 1.832595714594046E-03,      /* J =  4 */
(PID.TID 0000.0001)                 2.356194490192346E-03,      /* J =  5 */
(PID.TID 0000.0001)                 2.879793265790645E-03,      /* J =  6 */
(PID.TID 0000.0001)                 3.403392041388943E-03,      /* J =  7 */
(PID.TID 0000.0001)                 3.926990816987242E-03,      /* J =  8 */
(PID.TID 0000.0001)                 4.450589592585540E-03,      /* J =  9 */
(PID.TID 0000.0001)                 4.974188368183838E-03,      /* J = 10 */
(PID.TID 0000.0001)                 5.497787143782137E-03,      /* J = 11 */
(PID.TID 0000.0001)                 6.021385919380436E-03,      /* J = 12 */
(PID.TID 0000.0001)                 6.544984694978734E-03,      /* J = 13 */
(PID.TID 0000.0001)                 7.068583470577033E-03,      /* J = 14 */
(PID.TID 0000.0001)                 7.592182246175332E-03,      /* J = 15 */
(PID.TID 0000.0001)                 8.115781021773632E-03,      /* J = 16 */
(PID.TID 0000.0001)                 8.639379797371931E-03,      /* J = 17 */
(PID.TID 0000.0001)                 9.162978572970231E-03,      /* J = 18 */
(PID.TID 0000.0001)                 9.686577348568530E-03,      /* J = 19 */
(PID.TID 0000.0001)                 1.021017612416683E-02,      /* J = 20 */
(PID.TID 0000.0001)                 1.073377489976513E-02,      /* J = 21 */
(PID.TID 0000.0001)                 1.125737367536343E-02,      /* J = 22 */
(PID.TID 0000.0001)                 1.178097245096173E-02,      /* J = 23 */
(PID.TID 0000.0001)                 1.230457122656003E-02,      /* J = 24 */
(PID.TID 0000.0001)                 1.282817000215832E-02,      /* J = 25 */
(PID.TID 0000.0001)                 1.335176877775662E-02,      /* J = 26 */
(PID.TID 0000.0001)                 1.387536755335492E-02,      /* J = 27 */
(PID.TID 0000.0001)                 1.439896632895322E-02,      /* J = 28 */
(PID.TID 0000.0001)                 1.492256510455152E-02,      /* J = 29 */
(PID.TID 0000.0001)                 1.544616388014982E-02,      /* J = 30 */
(PID.TID 0000.0001)                 1.596976265574812E-02       /* J = 31 */
(PID.TID 0000.0001)     ;
(PID.TID 0000.0001) dyF =  /* dyF(:,1,:,1) ( m - cartesian, degrees - spherical ) */
(PID.TID 0000.0001)   120 @  1.000000000000000E-02              /* I =  1:120 */
(PID.TID 0000.0001)     ;
(PID.TID 0000.0001) dyF =  /* dyF(1,:,1,:) ( m - cartesian, degrees - spherical ) */
(PID.TID 0000.0001)    31 @  1.000000000000000E-02              /* J =  1: 31 */
(PID.TID 0000.0001)     ;
(PID.TID 0000.0001) dxG =  /* dxG(:,1,:,1) ( m - cartesian, degrees - spherical ) */
(PID.TID 0000.0001)   120 @  1.816598176046163E-19              /* I =  1:120 */
(PID.TID 0000.0001)     ;
(PID.TID 0000.0001) dxG =  /* dxG(1,:,1,:) ( m - cartesian, degrees - spherical ) */
(PID.TID 0000.0001)                 1.816598176046163E-19,      /* J =  1 */
(PID.TID 0000.0001)                 5.235987755982991E-04,      /* J =  2 */
(PID.TID 0000.0001)                 1.047197551196598E-03,      /* J =  3 */
(PID.TID 0000.0001)                 1.570796326794897E-03,      /* J =  4 */
(PID.TID 0000.0001)                 2.094395102393196E-03,      /* J =  5 */
(PID.TID 0000.0001)                 2.617993877991494E-03,      /* J =  6 */
(PID.TID 0000.0001)                 3.141592653589794E-03,      /* J =  7 */
(PID.TID 0000.0001)                 3.665191429188093E-03,      /* J =  8 */
(PID.TID 0000.0001)                 4.188790204786390E-03,      /* J =  9 */
(PID.TID 0000.0001)                 4.712388980384690E-03,      /* J = 10 */
(PID.TID 0000.0001)                 5.235987755982988E-03,      /* J = 11 */
(PID.TID 0000.0001)                 5.759586531581287E-03,      /* J = 12 */
(PID.TID 0000.0001)                 6.283185307179585E-03,      /* J = 13 */
(PID.TID 0000.0001)                 6.806784082777883E-03,      /* J = 14 */
(PID.TID 0000.0001)                 7.330382858376183E-03,      /* J = 15 */
(PID.TID 0000.0001)                 7.853981633974482E-03,      /* J = 16 */
(PID.TID 0000.0001)                 8.377580409572781E-03,      /* J = 17 */
(PID.TID 0000.0001)                 8.901179185171080E-03,      /* J = 18 */
(PID.TID 0000.0001)                 9.424777960769379E-03,      /* J = 19 */
(PID.TID 0000.0001)                 9.948376736367679E-03,      /* J = 20 */
(PID.TID 0000.0001)                 1.047197551196598E-02,      /* J = 21 */
(PID.TID 0000.0001)                 1.099557428756428E-02,      /* J = 22 */
(PID.TID 0000.0001)                 1.151917306316258E-02,      /* J = 23 */
(PID.TID 0000.0001)                 1.204277183876088E-02,      /* J = 24 */
(PID.TID 0000.0001)                 1.256637061435918E-02,      /* J = 25 */
(PID.TID 0000.0001)                 1.308996938995748E-02,      /* J = 26 */
(PID.TID 0000.0001)                 1.361356816555578E-02,      /* J = 27 */
(PID.TID 0000.0001)                 1.413716694115407E-02,      /* J = 28 */
(PID.TID 0000.0001)                 1.466076571675237E-02,      /* J = 29 */
(PID.TID 0000.0001)                 1.518436449235067E-02,      /* J = 30 */
(PID.TID 0000.0001)                 1.570796326794897E-02       /* J = 31 */
(PID.TID 0000.0001)     ;
(PID.TID 0000.0001) dyG =  /* dyG(:,1,:,1) ( m - cartesian, degrees - spherical ) */
(PID.TID 0000.0001)   120 @  1.000000000000000E-02              /* I =  1:120 */
(PID.TID 0000.0001)     ;
(PID.TID 0000.0001) dyG =  /* dyG(1,:,1,:) ( m - cartesian, degrees - spherical ) */
(PID.TID 0000.0001)    31 @  1.000000000000000E-02              /* J =  1: 31 */
(PID.TID 0000.0001)     ;
(PID.TID 0000.0001) dxC =  /* dxC(:,1,:,1) ( m - cartesian, degrees - spherical ) */
(PID.TID 0000.0001)   120 @  2.617993877991496E-04              /* I =  1:120 */
(PID.TID 0000.0001)     ;
(PID.TID 0000.0001) dxC =  /* dxC(1,:,1,:) ( m - cartesian, degrees - spherical ) */
(PID.TID 0000.0001)                 2.617993877991496E-04,      /* J =  1 */
(PID.TID 0000.0001)                 7.853981633974485E-04,      /* J =  2 */
(PID.TID 0000.0001)                 1.308996938995747E-03,      /* J =  3 */
(PID.TID 0000.0001)                 1.832595714594046E-03,      /* J =  4 */
(PID.TID 0000.0001)                 2.356194490192346E-03,      /* J =  5 */
(PID.TID 0000.0001)                 2.879793265790645E-03,      /* J =  6 */
(PID.TID 0000.0001)                 3.403392041388943E-03,      /* J =  7 */
(PID.TID 0000.0001)                 3.926990816987242E-03,      /* J =  8 */
(PID.TID 0000.0001)                 4.450589592585540E-03,      /* J =  9 */
(PID.TID 0000.0001)                 4.974188368183838E-03,      /* J = 10 */
(PID.TID 0000.0001)                 5.497787143782137E-03,      /* J = 11 */
(PID.TID 0000.0001)                 6.021385919380436E-03,      /* J = 12 */
(PID.TID 0000.0001)                 6.544984694978734E-03,      /* J = 13 */
(PID.TID 0000.0001)                 7.068583470577033E-03,      /* J = 14 */
(PID.TID 0000.0001)                 7.592182246175332E-03,      /* J = 15 */
(PID.TID 0000.0001)                 8.115781021773632E-03,      /* J = 16 */
(PID.TID 0000.0001)                 8.639379797371931E-03,      /* J = 17 */
(PID.TID 0000.0001)                 9.162978572970231E-03,      /* J = 18 */
(PID.TID 0000.0001)                 9.686577348568530E-03,      /* J = 19 */
(PID.TID 0000.0001)                 1.021017612416683E-02,      /* J = 20 */
(PID.TID 0000.0001)                 1.073377489976513E-02,      /* J = 21 */
(PID.TID 0000.0001)                 1.125737367536343E-02,      /* J = 22 */
(PID.TID 0000.0001)                 1.178097245096173E-02,      /* J = 23 */
(PID.TID 0000.0001)                 1.230457122656003E-02,      /* J = 24 */
(PID.TID 0000.0001)                 1.282817000215832E-02,      /* J = 25 */
(PID.TID 0000.0001)                 1.335176877775662E-02,      /* J = 26 */
(PID.TID 0000.0001)                 1.387536755335492E-02,      /* J = 27 */
(PID.TID 0000.0001)                 1.439896632895322E-02,      /* J = 28 */
(PID.TID 0000.0001)                 1.492256510455152E-02,      /* J = 29 */
(PID.TID 0000.0001)                 1.544616388014982E-02,      /* J = 30 */
(PID.TID 0000.0001)                 1.596976265574812E-02       /* J = 31 */
(PID.TID 0000.0001)     ;
(PID.TID 0000.0001) dyC =  /* dyC(:,1,:,1) ( m - cartesian, degrees - spherical ) */
(PID.TID 0000.0001)   120 @  1.000000000000000E-02              /* I =  1:120 */
(PID.TID 0000.0001)     ;
(PID.TID 0000.0001) dyC =  /* dyC(1,:,1,:) ( m - cartesian, degrees - spherical ) */
(PID.TID 0000.0001)    31 @  1.000000000000000E-02              /* J =  1: 31 */
(PID.TID 0000.0001)     ;
(PID.TID 0000.0001) dxV =  /* dxV(:,1,:,1) ( m - cartesian, degrees - spherical ) */
(PID.TID 0000.0001)   120 @  1.816598176046163E-19              /* I =  1:120 */
(PID.TID 0000.0001)     ;
(PID.TID 0000.0001) dxV =  /* dxV(1,:,1,:) ( m - cartesian, degrees - spherical ) */
(PID.TID 0000.0001)                 1.816598176046163E-19,      /* J =  1 */
(PID.TID 0000.0001)                 5.235987755982991E-04,      /* J =  2 */
(PID.TID 0000.0001)                 1.047197551196598E-03,      /* J =  3 */
(PID.TID 0000.0001)                 1.570796326794897E-03,      /* J =  4 */
(PID.TID 0000.0001)                 2.094395102393196E-03,      /* J =  5 */
(PID.TID 0000.0001)                 2.617993877991494E-03,      /* J =  6 */
(PID.TID 0000.0001)                 3.141592653589794E-03,      /* J =  7 */
(PID.TID 0000.0001)                 3.665191429188093E-03,      /* J =  8 */
(PID.TID 0000.0001)                 4.188790204786390E-03,      /* J =  9 */
(PID.TID 0000.0001)                 4.712388980384690E-03,      /* J = 10 */
(PID.TID 0000.0001)                 5.235987755982988E-03,      /* J = 11 */
(PID.TID 0000.0001)                 5.759586531581287E-03,      /* J = 12 */
(PID.TID 0000.0001)                 6.283185307179585E-03,      /* J = 13 */
(PID.TID 0000.0001)                 6.806784082777883E-03,      /* J = 14 */
(PID.TID 0000.0001)                 7.330382858376183E-03,      /* J = 15 */
(PID.TID 0000.0001)                 7.853981633974482E-03,      /* J = 16 */
(PID.TID 0000.0001)                 8.377580409572781E-03,      /* J = 17 */
(PID.TID 0000.0001)                 8.901179185171080E-03,      /* J = 18 */
(PID.TID 0000.0001)                 9.424777960769379E-03,      /* J = 19 */
(PID.TID 0000.0001)                 9.948376736367679E-03,      /* J = 20 */
(PID.TID 0000.0001)                 1.047197551196598E-02,      /* J = 21 */
(PID.TID 0000.0001)                 1.099557428756428E-02,      /* J = 22 */
(PID.TID 0000.0001)                 1.151917306316258E-02,      /* J = 23 */
(PID.TID 0000.0001)                 1.204277183876088E-02,      /* J = 24 */
(PID.TID 0000.0001)                 1.256637061435918E-02,      /* J = 25 */
(PID.TID 0000.0001)                 1.308996938995748E-02,      /* J = 26 */
(PID.TID 0000.0001)                 1.361356816555578E-02,      /* J = 27 */
(PID.TID 0000.0001)                 1.413716694115407E-02,      /* J = 28 */
(PID.TID 0000.0001)                 1.466076571675237E-02,      /* J = 29 */
(PID.TID 0000.0001)                 1.518436449235067E-02,      /* J = 30 */
(PID.TID 0000.0001)                 1.570796326794897E-02       /* J = 31 */
(PID.TID 0000.0001)     ;
(PID.TID 0000.0001) dyU =  /* dyU(:,1,:,1) ( m - cartesian, degrees - spherical ) */
(PID.TID 0000.0001)   120 @  1.000000000000000E-02              /* I =  1:120 */
(PID.TID 0000.0001)     ;
(PID.TID 0000.0001) dyU =  /* dyU(1,:,1,:) ( m - cartesian, degrees - spherical ) */
(PID.TID 0000.0001)    31 @  1.000000000000000E-02              /* J =  1: 31 */
(PID.TID 0000.0001)     ;
(PID.TID 0000.0001) rA =  /* rA(:,1,:,1) ( m - cartesian, degrees - spherical ) */
(PID.TID 0000.0001)   120 @  2.617993877991496E-06              /* I =  1:120 */
(PID.TID 0000.0001)     ;
(PID.TID 0000.0001) rA =  /* rA(1,:,1,:) ( m - cartesian, degrees - spherical ) */
(PID.TID 0000.0001)                 2.617993877991496E-06,      /* J =  1 */
(PID.TID 0000.0001)                 7.853981633974485E-06,      /* J =  2 */
(PID.TID 0000.0001)                 1.308996938995747E-05,      /* J =  3 */
(PID.TID 0000.0001)                 1.832595714594046E-05,      /* J =  4 */
(PID.TID 0000.0001)                 2.356194490192346E-05,      /* J =  5 */
(PID.TID 0000.0001)                 2.879793265790645E-05,      /* J =  6 */
(PID.TID 0000.0001)                 3.403392041388943E-05,      /* J =  7 */
(PID.TID 0000.0001)                 3.926990816987242E-05,      /* J =  8 */
(PID.TID 0000.0001)                 4.450589592585540E-05,      /* J =  9 */
(PID.TID 0000.0001)                 4.974188368183839E-05,      /* J = 10 */
(PID.TID 0000.0001)                 5.497787143782137E-05,      /* J = 11 */
(PID.TID 0000.0001)                 6.021385919380436E-05,      /* J = 12 */
(PID.TID 0000.0001)                 6.544984694978734E-05,      /* J = 13 */
(PID.TID 0000.0001)                 7.068583470577033E-05,      /* J = 14 */
(PID.TID 0000.0001)                 7.592182246175332E-05,      /* J = 15 */
(PID.TID 0000.0001)                 8.115781021773632E-05,      /* J = 16 */
(PID.TID 0000.0001)                 8.639379797371931E-05,      /* J = 17 */
(PID.TID 0000.0001)                 9.162978572970230E-05,      /* J = 18 */
(PID.TID 0000.0001)                 9.686577348568531E-05,      /* J = 19 */
(PID.TID 0000.0001)                 1.021017612416683E-04,      /* J = 20 */
(PID.TID 0000.0001)                 1.073377489976513E-04,      /* J = 21 */
(PID.TID 0000.0001)                 1.125737367536343E-04,      /* J = 22 */
(PID.TID 0000.0001)                 1.178097245096173E-04,      /* J = 23 */
(PID.TID 0000.0001)                 1.230457122656003E-04,      /* J = 24 */
(PID.TID 0000.0001)                 1.282817000215832E-04,      /* J = 25 */
(PID.TID 0000.0001)                 1.335176877775662E-04,      /* J = 26 */
(PID.TID 0000.0001)                 1.387536755335492E-04,      /* J = 27 */
(PID.TID 0000.0001)                 1.439896632895322E-04,      /* J = 28 */
(PID.TID 0000.0001)                 1.492256510455152E-04,      /* J = 29 */
(PID.TID 0000.0001)                 1.544616388014982E-04,      /* J = 30 */
(PID.TID 0000.0001)                 1.596976265574812E-04       /* J = 31 */
(PID.TID 0000.0001)     ;
(PID.TID 0000.0001) rAw =  /* rAw(:,1,:,1) ( m - cartesian, degrees - spherical ) */
(PID.TID 0000.0001)   120 @  2.617993877991496E-06              /* I =  1:120 */
(PID.TID 0000.0001)     ;
(PID.TID 0000.0001) rAw =  /* rAw(1,:,1,:) ( m - cartesian, degrees - spherical ) */
(PID.TID 0000.0001)                 2.617993877991496E-06,      /* J =  1 */
(PID.TID 0000.0001)                 7.853981633974485E-06,      /* J =  2 */
(PID.TID 0000.0001)                 1.308996938995747E-05,      /* J =  3 */
(PID.TID 0000.0001)                 1.832595714594046E-05,      /* J =  4 */
(PID.TID 0000.0001)                 2.356194490192346E-05,      /* J =  5 */
(PID.TID 0000.0001)                 2.879793265790645E-05,      /* J =  6 */
(PID.TID 0000.0001)                 3.403392041388943E-05,      /* J =  7 */
(PID.TID 0000.0001)                 3.926990816987242E-05,      /* J =  8 */
(PID.TID 0000.0001)                 4.450589592585540E-05,      /* J =  9 */
(PID.TID 0000.0001)                 4.974188368183839E-05,      /* J = 10 */
(PID.TID 0000.0001)                 5.497787143782137E-05,      /* J = 11 */
(PID.TID 0000.0001)                 6.021385919380436E-05,      /* J = 12 */
(PID.TID 0000.0001)                 6.544984694978734E-05,      /* J = 13 */
(PID.TID 0000.0001)                 7.068583470577033E-05,      /* J = 14 */
(PID.TID 0000.0001)                 7.592182246175332E-05,      /* J = 15 */
(PID.TID 0000.0001)                 8.115781021773632E-05,      /* J = 16 */
(PID.TID 0000.0001)                 8.639379797371931E-05,      /* J = 17 */
(PID.TID 0000.0001)                 9.162978572970230E-05,      /* J = 18 */
(PID.TID 0000.0001)                 9.686577348568531E-05,      /* J = 19 */
(PID.TID 0000.0001)                 1.021017612416683E-04,      /* J = 20 */
(PID.TID 0000.0001)                 1.073377489976513E-04,      /* J = 21 */
(PID.TID 0000.0001)                 1.125737367536343E-04,      /* J = 22 */
(PID.TID 0000.0001)                 1.178097245096173E-04,      /* J = 23 */
(PID.TID 0000.0001)                 1.230457122656003E-04,      /* J = 24 */
(PID.TID 0000.0001)                 1.282817000215832E-04,      /* J = 25 */
(PID.TID 0000.0001)                 1.335176877775662E-04,      /* J = 26 */
(PID.TID 0000.0001)                 1.387536755335492E-04,      /* J = 27 */
(PID.TID 0000.0001)                 1.439896632895322E-04,      /* J = 28 */
(PID.TID 0000.0001)                 1.492256510455152E-04,      /* J = 29 */
(PID.TID 0000.0001)                 1.544616388014982E-04,      /* J = 30 */
(PID.TID 0000.0001)                 1.596976265574812E-04       /* J = 31 */
(PID.TID 0000.0001)     ;
(PID.TID 0000.0001) rAs =  /* rAs(:,1,:,1) ( m - cartesian, degrees - spherical ) */
(PID.TID 0000.0001)   120 @  1.816598176046163E-21              /* I =  1:120 */
(PID.TID 0000.0001)     ;
(PID.TID 0000.0001) rAs =  /* rAs(1,:,1,:) ( m - cartesian, degrees - spherical ) */
(PID.TID 0000.0001)                 1.816598176046163E-21,      /* J =  1 */
(PID.TID 0000.0001)                 5.235987755982991E-06,      /* J =  2 */
(PID.TID 0000.0001)                 1.047197551196598E-05,      /* J =  3 */
(PID.TID 0000.0001)                 1.570796326794897E-05,      /* J =  4 */
(PID.TID 0000.0001)                 2.094395102393196E-05,      /* J =  5 */
(PID.TID 0000.0001)                 2.617993877991494E-05,      /* J =  6 */
(PID.TID 0000.0001)                 3.141592653589794E-05,      /* J =  7 */
(PID.TID 0000.0001)                 3.665191429188093E-05,      /* J =  8 */
(PID.TID 0000.0001)                 4.188790204786391E-05,      /* J =  9 */
(PID.TID 0000.0001)                 4.712388980384690E-05,      /* J = 10 */
(PID.TID 0000.0001)                 5.235987755982988E-05,      /* J = 11 */
(PID.TID 0000.0001)                 5.759586531581287E-05,      /* J = 12 */
(PID.TID 0000.0001)                 6.283185307179586E-05,      /* J = 13 */
(PID.TID 0000.0001)                 6.806784082777883E-05,      /* J = 14 */
(PID.TID 0000.0001)                 7.330382858376182E-05,      /* J = 15 */
(PID.TID 0000.0001)                 7.853981633974481E-05,      /* J = 16 */
(PID.TID 0000.0001)                 8.377580409572782E-05,      /* J = 17 */
(PID.TID 0000.0001)                 8.901179185171081E-05,      /* J = 18 */
(PID.TID 0000.0001)                 9.424777960769380E-05,      /* J = 19 */
(PID.TID 0000.0001)                 9.948376736367679E-05,      /* J = 20 */
(PID.TID 0000.0001)                 1.047197551196598E-04,      /* J = 21 */
(PID.TID 0000.0001)                 1.099557428756428E-04,      /* J = 22 */
(PID.TID 0000.0001)                 1.151917306316258E-04,      /* J = 23 */
(PID.TID 0000.0001)                 1.204277183876088E-04,      /* J = 24 */
(PID.TID 0000.0001)                 1.256637061435918E-04,      /* J = 25 */
(PID.TID 0000.0001)                 1.308996938995748E-04,      /* J = 26 */
(PID.TID 0000.0001)                 1.361356816555577E-04,      /* J = 27 */
(PID.TID 0000.0001)                 1.413716694115407E-04,      /* J = 28 */
(PID.TID 0000.0001)                 1.466076571675237E-04,      /* J = 29 */
(PID.TID 0000.0001)                 1.518436449235067E-04,      /* J = 30 */
(PID.TID 0000.0001)                 1.570796326794897E-04       /* J = 31 */
(PID.TID 0000.0001)     ;
(PID.TID 0000.0001) // =======================================================
(PID.TID 0000.0001) // End of Model config. summary
(PID.TID 0000.0001) // =======================================================
(PID.TID 0000.0001) 
(PID.TID 0000.0001)  MDSREADFIELD: opening global file: thetaPol.bin
(PID.TID 0000.0001) // =======================================================
(PID.TID 0000.0001) // Field Initial Temperature at iteration          1
(PID.TID 0000.0001) // CMIN =          2.000000000000000E+01
(PID.TID 0000.0001) // CMAX =          2.000099945068359E+01
(PID.TID 0000.0001) // CINT =          3.701669198495371E-05
(PID.TID 0000.0001) // SYMBOLS (CMIN->CMAX): -abcdefghijklmnopqrstuvwxyz+
(PID.TID 0000.0001) //                  0.0: .
(PID.TID 0000.0001) // RANGE I (Lo:Hi:Step):(   1: 120:   1)
(PID.TID 0000.0001) // RANGE J (Lo:Hi:Step):(  31:   1:  -1)
(PID.TID 0000.0001) // RANGE K (Lo:Hi:Step):(   1:   1:   1)
(PID.TID 0000.0001) // =======================================================
(PID.TID 0000.0001) K =   1
(PID.TID 0000.0001)                I=10      I=20      I=30      I=40      I=50      I=60      I=70      I=80      I=90      I=100     I=110     I=120
(PID.TID 0000.0001) |--J--|123456789|123456789|123456789|123456789|123456789|123456789|123456789|123456789|123456789|123456789|123456789|123456789|
(PID.TID 0000.0001)     31 ........................................................................................................................
(PID.TID 0000.0001)     30 jqkmeosabgtxgpnovswlxtomhwbjrvvfwtjzbmdwyosmgblmlswfrzuvmwqfgneqryhcrcdjxgpewppnqtnldbvcsglmkhjqmizdfsjypmxvpbrlknorerac
(PID.TID 0000.0001)     29 epwfxnxnicpxjlsfb-ghoxrykpkvcritpwusuyxzrggtrh+zleqiheyzgditnwepcrwduavvzutnwjmfzctwftosbmdphegggmevcp-ucuzmpuokoxyqqwap
(PID.TID 0000.0001)     28 cghwkxhmovssawbyvmoxyhyzmlajzodsfkbgcugskly++-joetmwqvhhjhxiodlbyrhujpxne-azfmeqgrveiexbzduozr+zpcxvokxpfesufaqjteifgqim
(PID.TID 0000.0001)     27 ypypntlzbrwqwgcnon+gfhittzwumigkpx+qqexykfps-igejsdiyzgcxzovutqomkw-raywgoztezucrtfwcesezfefursyfajdtuukdr-pkihs+cdqjptn
(PID.TID 0000.0001)     26 okayagtjfkuudyasuxerekiundtfztfrituaqwliqilodlnxgufsddaxmzmjqgth+vdcyiiujurczkqarvnqnofdcztvnlymnpbytqtmihicpdqubwfpqdma
(PID.TID 0000.0001)     25 +shwlqggfcwvjpfdonktamdluhutdjgdsnhjrvnxnpnvzjnc-rbusnboqdowjqbmchauhalglwugkbeixbarjgtwjokqtg-sutyalixtyllsi+zrfsefuhas
(PID.TID 0000.0001)     24 ktbnftiwqpaicqqsccfeaypiikitbcwtdszeghxkmq+lcnij-huhqi-tyw+wbod+kyeekiuhjnmbcvipolmftahdgniwrgzynksaucekpwcfzjfeqiqjkydo
(PID.TID 0000.0001)     23 mtsytwtmosljuikvmbr-gojcpvpefzmsybyrvdtaeljnqbcwcxkcsluvxgdovfwirrgzhbxnhumy-mxawonanxgr-hsbtumraplyuwhssxsdnlczcnxh+dtq
(PID.TID 0000.0001)     22 bnopfhxuatjexkkzosskxzetsvoiktakutliphwurlty+dlrckqmhno+bfjzbhwyqwvznekthfypvvwmhlbb-jday+jdmudjcpgichezogzzjdruodvtsnbz
(PID.TID 0000.0001)     21 aiuruchvglazywkelmfvnjgwnxsbvkbg+xqvebfelpjmypdkyhvalhcaujvivlzxqmuqchpjfolsem+xntylspdpcgerdtrvdozygjzykmtepasbz+ojevtx
(PID.TID 0000.0001)     20 qduptxvqho-+kydbdqbdfxrjbydhgbjbdndk-dfugcak+w-harq+jtcikmz+fb-corbukbwki-kyzenfmqpzyfnpxnvualivagouiopralnsl-csvkoduyfw
(PID.TID 0000.0001)     19 unhnwhoajydodykwyeonaudfe+gmcwe-qyusstzsrqerbccdjuupjsrbugccfeibpjjgqaukexrc+yfginw+fvnhbomihnvfxxffuqiphmdxzjdawbctxjmd
(PID.TID 0000.0001)     18 mnlokihg+tt+ybouziufnlxjwqujeuyjvbwpnmedfwizfuyqtiymjn-fjonbfrkaohgyabyamgp-rqy-btzcxtwpkldb+ixkeavj+lxzlpb-bplz+crxqjtr
(PID.TID 0000.0001)     17 ypcvcqgxamuonerteaslib-py-pervlennhegnpdivdk-igtykvqexpakqcwhq+iovacuhkjmvwereingydpgkusxltdkzuplapygwnhpfynkpc+vhtsfxgu
(PID.TID 0000.0001)     16 pcnhwxhsqmcvwltgaecot+qcntmxncji+jgoupkysesfnhelv+fyqsgapiznqvwkspbidoyrtzgxlqrsdcwtuboaofynn-hnzg-ooklqrtgzutziunyrcsqo
(PID.TID 0000.0001)     15 djefm+fkqztxj-ts+wp-mneycedptcn-phullwjpfks-lokdegjdpwssqimory-ayytnbbzt-akg-dcclnlagpiwcu-mpi+pz-o-qsqktdzbrvmlvvzpwcya
(PID.TID 0000.0001)     14 tpofinkljg-dtfzntrrvyxtkrxkihq+vyksjuaumcifjvyobwmumibazyaafpxhivjxi+fgzppqowbhqvikfdpjaetdqaoe+yiuuypmvfarbuvyai-pivk-c
(PID.TID 0000.0001)     13 qnuhzrlqfu-wwwu-svjflrscynlwdlhvslyvrpk+dsugmhkzqkmbsslneyzneczot+xxuzhaccmddnrnbwhtatmefanuttgygneeakztkigtujxuswtvrwqp
(PID.TID 0000.0001)     12 dn+wglekflrazoltz+zuvrdjipvvkzjenplkzwdsulzk-qzwvnutqhsaysdakmilgpotcnjgrzldzxu-nta+ahrbwxoksbphqacseonvrulavreacwaxraui
(PID.TID 0000.0001)     11 uklggyoppbg-pawxfoxxlgwihjvrpcvednlwispvywtniendlgmfoymvpgfgvttezputjq-vlwbcuuu+ukfmjawmdtpdcrbv-qgcdslgdbgdxxhfrrnvcsrw
(PID.TID 0000.0001)     10 zzxqtkkjtfpnkzdpjllvntoqlqc-zt-iuebatj+acod-jjuxtxnncsbo-sflrxez-nl-q-vfqxpc-xhzlfytocshtqqvrjlczlcnxfap-tvrkdbgmgtrqrja
(PID.TID 0000.0001)      9 nftks+ifmvfqlbqjzuxdjh+vrqmpishznwddvucrcfvqrwwexmrenptfjczpkxfsjjhnsqnwhcqovyyvhjtlwmzmzzdvvlcvnnlrhqczdtvxmi+cztyzgutp
(PID.TID 0000.0001)      8 ........................................................................................................................
(PID.TID 0000.0001)      7 ........................................................................................................................
(PID.TID 0000.0001)      6 ........................................................................................................................
(PID.TID 0000.0001)      5 ........................................................................................................................
(PID.TID 0000.0001)      4 ........................................................................................................................
(PID.TID 0000.0001)      3 ........................................................................................................................
(PID.TID 0000.0001)      2 ........................................................................................................................
(PID.TID 0000.0001)      1 ........................................................................................................................
(PID.TID 0000.0001) // =======================================================
(PID.TID 0000.0001) // END OF FIELD                                          =
(PID.TID 0000.0001) // =======================================================
(PID.TID 0000.0001) 
(PID.TID 0000.0001) // =======================================================
(PID.TID 0000.0001) // Field Initial Salinity at iteration          1
(PID.TID 0000.0001) // CMIN =          3.500000000000000E+01
(PID.TID 0000.0001) // CMAX =          3.500000000000000E+01
(PID.TID 0000.0001) // CINT =          0.000000000000000E+00
(PID.TID 0000.0001) // SYMBOLS (CMIN->CMAX): -abcdefghijklmnopqrstuvwxyz+
(PID.TID 0000.0001) //                  0.0: .
(PID.TID 0000.0001) // RANGE I (Lo:Hi:Step):(   1: 120:   1)
(PID.TID 0000.0001) // RANGE J (Lo:Hi:Step):(  31:   1:  -1)
(PID.TID 0000.0001) // RANGE K (Lo:Hi:Step):(   1:   1:   1)
(PID.TID 0000.0001) // =======================================================
(PID.TID 0000.0001) // =======================================================
(PID.TID 0000.0001) // END OF FIELD                                          =
(PID.TID 0000.0001) // =======================================================
(PID.TID 0000.0001) 
(PID.TID 0000.0001) Start initial hydrostatic pressure computation
(PID.TID 0000.0001) Pressure is predetermined for buoyancyRelation OCEANIC
(PID.TID 0000.0001) 
(PID.TID 0000.0001) // =======================================================
(PID.TID 0000.0001) // Model current state
(PID.TID 0000.0001) // =======================================================
(PID.TID 0000.0001) 
(PID.TID 0000.0001) // =======================================================
(PID.TID 0000.0001) // Begin MONITOR dynamic field statistics
(PID.TID 0000.0001) // =======================================================
(PID.TID 0000.0001) %MON time_tsnumber                =                     0
(PID.TID 0000.0001) %MON time_secondsf                =   0.0000000000000E+00
(PID.TID 0000.0001) %MON dynstat_eta_max              =   0.0000000000000E+00
(PID.TID 0000.0001) %MON dynstat_eta_min              =   0.0000000000000E+00
(PID.TID 0000.0001) %MON dynstat_eta_mean             =   0.0000000000000E+00
(PID.TID 0000.0001) %MON dynstat_eta_sd               =   0.0000000000000E+00
(PID.TID 0000.0001) %MON dynstat_eta_del2             =   0.0000000000000E+00
(PID.TID 0000.0001) %MON dynstat_uvel_max             =   0.0000000000000E+00
(PID.TID 0000.0001) %MON dynstat_uvel_min             =   0.0000000000000E+00
(PID.TID 0000.0001) %MON dynstat_uvel_mean            =   0.0000000000000E+00
(PID.TID 0000.0001) %MON dynstat_uvel_sd              =   0.0000000000000E+00
(PID.TID 0000.0001) %MON dynstat_uvel_del2            =   0.0000000000000E+00
(PID.TID 0000.0001) %MON dynstat_vvel_max             =   0.0000000000000E+00
(PID.TID 0000.0001) %MON dynstat_vvel_min             =   0.0000000000000E+00
(PID.TID 0000.0001) %MON dynstat_vvel_mean            =   0.0000000000000E+00
(PID.TID 0000.0001) %MON dynstat_vvel_sd              =   0.0000000000000E+00
(PID.TID 0000.0001) %MON dynstat_vvel_del2            =   0.0000000000000E+00
(PID.TID 0000.0001) %MON dynstat_wvel_max             =   0.0000000000000E+00
(PID.TID 0000.0001) %MON dynstat_wvel_min             =   0.0000000000000E+00
(PID.TID 0000.0001) %MON dynstat_wvel_mean            =   0.0000000000000E+00
(PID.TID 0000.0001) %MON dynstat_wvel_sd              =   0.0000000000000E+00
(PID.TID 0000.0001) %MON dynstat_wvel_del2            =   0.0000000000000E+00
(PID.TID 0000.0001) %MON dynstat_theta_max            =   2.0000999450684E+01
(PID.TID 0000.0001) %MON dynstat_theta_min            =   2.0000000000000E+01
(PID.TID 0000.0001) %MON dynstat_theta_mean           =   2.0000506097539E+01
(PID.TID 0000.0001) %MON dynstat_theta_sd             =   2.8863770164391E-04
(PID.TID 0000.0001) %MON dynstat_theta_del2           =   2.7062929037845E-04
(PID.TID 0000.0001) %MON dynstat_salt_max             =   3.5000000000000E+01
(PID.TID 0000.0001) %MON dynstat_salt_min             =   3.5000000000000E+01
(PID.TID 0000.0001) %MON dynstat_salt_mean            =   3.4999999999986E+01
(PID.TID 0000.0001) %MON dynstat_salt_sd              =   1.4040324458618E-11
(PID.TID 0000.0001) %MON dynstat_salt_del2            =   0.0000000000000E+00
(PID.TID 0000.0001) %MON advcfl_uvel_max              =   0.0000000000000E+00
(PID.TID 0000.0001) %MON advcfl_vvel_max              =   0.0000000000000E+00
(PID.TID 0000.0001) %MON advcfl_wvel_max              =   0.0000000000000E+00
(PID.TID 0000.0001) %MON advcfl_W_hf_max              =   0.0000000000000E+00
(PID.TID 0000.0001) %MON pe_b_mean                    =   0.0000000000000E+00
(PID.TID 0000.0001) %MON ke_max                       =   0.0000000000000E+00
(PID.TID 0000.0001) %MON ke_mean                      =   0.0000000000000E+00
(PID.TID 0000.0001) %MON ke_vol                       =   3.8082386146826E-02
(PID.TID 0000.0001) %MON vort_r_min                   =   0.0000000000000E+00
(PID.TID 0000.0001) %MON vort_r_max                   =   0.0000000000000E+00
(PID.TID 0000.0001) %MON vort_a_mean                  =   5.0000000000232E-01
(PID.TID 0000.0001) %MON vort_a_sd                    =  -1.4171996909340E-13
(PID.TID 0000.0001) %MON vort_p_mean                  =   5.3488372093273E-01
(PID.TID 0000.0001) %MON vort_p_sd                    =   2.2607234994521E-01
(PID.TID 0000.0001) %MON surfExpan_theta_mean         =   0.0000000000000E+00
(PID.TID 0000.0001) %MON surfExpan_salt_mean          =   0.0000000000000E+00
(PID.TID 0000.0001) // =======================================================
(PID.TID 0000.0001) // End MONITOR dynamic field statistics
(PID.TID 0000.0001) // =======================================================
 cg2d: Sum(rhs),rhsMax =   2.52575738102223E-15  2.54626495526243E-07
(PID.TID 0000.0001)                    cg2d_init_res =    1.79605131991234E+01
(PID.TID 0000.0001)                       cg2d_iters =   100
(PID.TID 0000.0001)                         cg2d_res =    9.10810452064786E-08
 cg3d: Sum(rhs),rhsMax =  -8.32667268468867E-16  8.94057495890099E-08
(PID.TID 0000.0001)                    cg3d_init_res =    5.78014489203573E+01
(PID.TID 0000.0001)                       cg3d_iters =    10
(PID.TID 0000.0001)                         cg3d_res =    2.29125546074567E-01
(PID.TID 0000.0001) // =======================================================
(PID.TID 0000.0001) // Begin MONITOR dynamic field statistics
(PID.TID 0000.0001) // =======================================================
(PID.TID 0000.0001) %MON time_tsnumber                =                     1
(PID.TID 0000.0001) %MON time_secondsf                =   1.0000000000000E-01
(PID.TID 0000.0001) %MON dynstat_eta_max              =   7.1336480475353E-09
(PID.TID 0000.0001) %MON dynstat_eta_min              =  -7.3583871238598E-09
(PID.TID 0000.0001) %MON dynstat_eta_mean             =  -1.9972474168067E-11
(PID.TID 0000.0001) %MON dynstat_eta_sd               =   4.1852466764881E-09
(PID.TID 0000.0001) %MON dynstat_eta_del2             =   3.9241247104211E-09
(PID.TID 0000.0001) %MON dynstat_uvel_max             =   8.4185990504402E-08
(PID.TID 0000.0001) %MON dynstat_uvel_min             =  -8.4185991550519E-08
(PID.TID 0000.0001) %MON dynstat_uvel_mean            =  -1.2874530181030E-24
(PID.TID 0000.0001) %MON dynstat_uvel_sd              =   8.9282950016598E-09
(PID.TID 0000.0001) %MON dynstat_uvel_del2            =   3.0679360556715E-09
(PID.TID 0000.0001) %MON dynstat_vvel_max             =   8.8720044112141E-08
(PID.TID 0000.0001) %MON dynstat_vvel_min             =  -8.8720049774966E-08
(PID.TID 0000.0001) %MON dynstat_vvel_mean            =  -6.5467573836656E-16
(PID.TID 0000.0001) %MON dynstat_vvel_sd              =   9.1021344232702E-09
(PID.TID 0000.0001) %MON dynstat_vvel_del2            =   2.8578172581190E-09
(PID.TID 0000.0001) %MON dynstat_wvel_max             =   3.3825388664832E-07
(PID.TID 0000.0001) %MON dynstat_wvel_min             =  -2.7219015811268E-07
(PID.TID 0000.0001) %MON dynstat_wvel_mean            =   3.1271322164379E-25
(PID.TID 0000.0001) %MON dynstat_wvel_sd              =   5.8295526636026E-08
(PID.TID 0000.0001) %MON dynstat_wvel_del2            =   5.4489383527925E-08
(PID.TID 0000.0001) %MON dynstat_theta_max            =   2.0000994014334E+01
(PID.TID 0000.0001) %MON dynstat_theta_min            =   1.9994446794576E+01
(PID.TID 0000.0001) %MON dynstat_theta_mean           =   2.0000391250740E+01
(PID.TID 0000.0001) %MON dynstat_theta_sd             =   8.3826057293057E-04
(PID.TID 0000.0001) %MON dynstat_theta_del2           =   3.6945169391937E-04
(PID.TID 0000.0001) %MON dynstat_salt_max             =   3.5000000000000E+01
(PID.TID 0000.0001) %MON dynstat_salt_min             =   3.5000000000000E+01
(PID.TID 0000.0001) %MON dynstat_salt_mean            =   3.4999999999986E+01
(PID.TID 0000.0001) %MON dynstat_salt_sd              =   1.4040324458618E-11
(PID.TID 0000.0001) %MON dynstat_salt_del2            =   0.0000000000000E+00
(PID.TID 0000.0001) %MON advcfl_uvel_max              =   1.8915694156740E-06
(PID.TID 0000.0001) %MON advcfl_vvel_max              =   8.8720049774966E-07
(PID.TID 0000.0001) %MON advcfl_wvel_max              =   6.7650777329665E-06
(PID.TID 0000.0001) %MON advcfl_W_hf_max              =   6.7650777329665E-06
(PID.TID 0000.0001) %MON pe_b_mean                    =   5.9254729512280E-16
(PID.TID 0000.0001) %MON ke_max                       =   3.1694490752185E-15
(PID.TID 0000.0001) %MON ke_mean                      =   7.9398722914794E-17
(PID.TID 0000.0001) %MON ke_vol                       =   3.8082386146826E-02
(PID.TID 0000.0001) %MON vort_r_min                   =  -8.9447614910927E-06
(PID.TID 0000.0001) %MON vort_r_max                   =   8.9447616022426E-06
(PID.TID 0000.0001) %MON vort_a_mean                  =   5.0000000000234E-01
(PID.TID 0000.0001) %MON vort_a_sd                    =  -9.1815444136500E-14
(PID.TID 0000.0001) %MON vort_p_mean                  =   5.3488372093275E-01
(PID.TID 0000.0001) %MON vort_p_sd                    =   2.2607234994618E-01
(PID.TID 0000.0001) %MON surfExpan_theta_mean         =   0.0000000000000E+00
(PID.TID 0000.0001) %MON surfExpan_salt_mean          =   0.0000000000000E+00
(PID.TID 0000.0001) // =======================================================
(PID.TID 0000.0001) // End MONITOR dynamic field statistics
(PID.TID 0000.0001) // =======================================================
 cg2d: Sum(rhs),rhsMax =  -1.59317004033710E-14  5.04382260485890E-07
(PID.TID 0000.0001)                    cg2d_init_res =    8.28764588431135E+00
(PID.TID 0000.0001)                       cg2d_iters =    58
(PID.TID 0000.0001)                         cg2d_res =    9.91534986628005E-08
 cg3d: Sum(rhs),rhsMax =   3.67900154785161E-14  1.77075067441390E-07
(PID.TID 0000.0001)                    cg3d_init_res =    2.66814230368610E+01
(PID.TID 0000.0001)                       cg3d_iters =    10
(PID.TID 0000.0001)                         cg3d_res =    1.59192885199757E+00
(PID.TID 0000.0001) // =======================================================
(PID.TID 0000.0001) // Begin MONITOR dynamic field statistics
(PID.TID 0000.0001) // =======================================================
(PID.TID 0000.0001) %MON time_tsnumber                =                     2
(PID.TID 0000.0001) %MON time_secondsf                =   2.0000000000000E-01
(PID.TID 0000.0001) %MON dynstat_eta_max              =   1.4070631003846E-08
(PID.TID 0000.0001) %MON dynstat_eta_min              =  -1.2984319170393E-07
(PID.TID 0000.0001) %MON dynstat_eta_mean             =   4.3620907496550E-09
(PID.TID 0000.0001) %MON dynstat_eta_sd               =   1.8817998136129E-08
(PID.TID 0000.0001) %MON dynstat_eta_del2             =   6.4420345238844E-09
(PID.TID 0000.0001) %MON dynstat_uvel_max             =   2.5131247740518E-07
(PID.TID 0000.0001) %MON dynstat_uvel_min             =  -2.5030013828784E-07
(PID.TID 0000.0001) %MON dynstat_uvel_mean            =  -4.4554660898145E-17
(PID.TID 0000.0001) %MON dynstat_uvel_sd              =   2.3551773739495E-08
(PID.TID 0000.0001) %MON dynstat_uvel_del2            =   1.7169741103403E-08
(PID.TID 0000.0001) %MON dynstat_vvel_max             =   1.2952636927957E-06
(PID.TID 0000.0001) %MON dynstat_vvel_min             =  -1.2963408280906E-06
(PID.TID 0000.0001) %MON dynstat_vvel_mean            =   1.7066819332300E-16
(PID.TID 0000.0001) %MON dynstat_vvel_sd              =   1.2879640110509E-07
(PID.TID 0000.0001) %MON dynstat_vvel_del2            =   1.6634110474941E-08
(PID.TID 0000.0001) %MON dynstat_wvel_max             =   2.6328714058370E-06
(PID.TID 0000.0001) %MON dynstat_wvel_min             =  -4.4226958932634E-06
(PID.TID 0000.0001) %MON dynstat_wvel_mean            =   2.6750512527134E-24
(PID.TID 0000.0001) %MON dynstat_wvel_sd              =   4.1694314076736E-07
(PID.TID 0000.0001) %MON dynstat_wvel_del2            =   3.1280114544618E-07
(PID.TID 0000.0001) %MON dynstat_theta_max            =   2.0000990530340E+01
(PID.TID 0000.0001) %MON dynstat_theta_min            =   1.9988838963205E+01
(PID.TID 0000.0001) %MON dynstat_theta_mean           =   2.0000276455827E+01
(PID.TID 0000.0001) %MON dynstat_theta_sd             =   1.6064968957935E-03
(PID.TID 0000.0001) %MON dynstat_theta_del2           =   4.9294820475397E-04
(PID.TID 0000.0001) %MON dynstat_salt_max             =   3.5000000000000E+01
(PID.TID 0000.0001) %MON dynstat_salt_min             =   3.5000000000000E+01
(PID.TID 0000.0001) %MON dynstat_salt_mean            =   3.4999999999986E+01
(PID.TID 0000.0001) %MON dynstat_salt_sd              =   1.4040324458618E-11
(PID.TID 0000.0001) %MON dynstat_salt_del2            =   0.0000000000000E+00
(PID.TID 0000.0001) %MON advcfl_uvel_max              =   5.0523313313312E-06
(PID.TID 0000.0001) %MON advcfl_vvel_max              =   1.2963408280906E-05
(PID.TID 0000.0001) %MON advcfl_wvel_max              =   8.8453917865269E-05
(PID.TID 0000.0001) %MON advcfl_W_hf_max              =   8.8453917865269E-05
(PID.TID 0000.0001) %MON pe_b_mean                    =   1.2622590919237E-14
(PID.TID 0000.0001) %MON ke_max                       =   5.1573939707171E-13
(PID.TID 0000.0001) %MON ke_mean                      =   8.1945878342734E-15
(PID.TID 0000.0001) %MON ke_vol                       =   3.8082386146826E-02
(PID.TID 0000.0001) %MON vort_r_min                   =  -2.2812977080229E-05
(PID.TID 0000.0001) %MON vort_r_max                   =   2.3003218273978E-05
(PID.TID 0000.0001) %MON vort_a_mean                  =   5.0000000000219E-01
(PID.TID 0000.0001) %MON vort_a_sd                    =   8.5548759069486E-07
(PID.TID 0000.0001) %MON vort_p_mean                  =   5.3488372093259E-01
(PID.TID 0000.0001) %MON vort_p_sd                    =   2.2607234995281E-01
(PID.TID 0000.0001) %MON surfExpan_theta_mean         =   0.0000000000000E+00
(PID.TID 0000.0001) %MON surfExpan_salt_mean          =   0.0000000000000E+00
(PID.TID 0000.0001) // =======================================================
(PID.TID 0000.0001) // End MONITOR dynamic field statistics
(PID.TID 0000.0001) // =======================================================
 cg2d: Sum(rhs),rhsMax =   9.31199561904350E-15  6.59737231793841E-07
(PID.TID 0000.0001)                    cg2d_init_res =    3.89254515990521E+00
(PID.TID 0000.0001)                       cg2d_iters =    46
(PID.TID 0000.0001)                         cg2d_res =    9.65738913003542E-08
 cg3d: Sum(rhs),rhsMax =  -1.36307631848354E-13  2.31652153825281E-07
(PID.TID 0000.0001)                    cg3d_init_res =    1.25857564049324E+01
(PID.TID 0000.0001)                       cg3d_iters =    10
(PID.TID 0000.0001)                         cg3d_res =    1.23370046921277E+00
(PID.TID 0000.0001) // =======================================================
(PID.TID 0000.0001) // Begin MONITOR dynamic field statistics
(PID.TID 0000.0001) // =======================================================
(PID.TID 0000.0001) %MON time_tsnumber                =                     3
(PID.TID 0000.0001) %MON time_secondsf                =   3.0000000000000E-01
(PID.TID 0000.0001) %MON dynstat_eta_max              =   1.8418512099303E-08
(PID.TID 0000.0001) %MON dynstat_eta_min              =  -2.0653697332031E-07
(PID.TID 0000.0001) %MON dynstat_eta_mean             =   7.0960333960134E-09
(PID.TID 0000.0001) %MON dynstat_eta_sd               =   3.0109362880232E-08
(PID.TID 0000.0001) %MON dynstat_eta_del2             =   8.2222928593417E-09
(PID.TID 0000.0001) %MON dynstat_uvel_max             =   2.9178289115803E-07
(PID.TID 0000.0001) %MON dynstat_uvel_min             =  -2.9459321299985E-07
(PID.TID 0000.0001) %MON dynstat_uvel_mean            =  -1.5735317000480E-17
(PID.TID 0000.0001) %MON dynstat_uvel_sd              =   2.9994517565334E-08
(PID.TID 0000.0001) %MON dynstat_uvel_del2            =   2.1019163089556E-08
(PID.TID 0000.0001) %MON dynstat_vvel_max             =   3.0889099987734E-06
(PID.TID 0000.0001) %MON dynstat_vvel_min             =  -3.0994933430659E-06
(PID.TID 0000.0001) %MON dynstat_vvel_mean            =   1.2228822663150E-17
(PID.TID 0000.0001) %MON dynstat_vvel_sd              =   2.9554378592391E-07
(PID.TID 0000.0001) %MON dynstat_vvel_del2            =   2.4127092575049E-08
(PID.TID 0000.0001) %MON dynstat_wvel_max             =   2.8953868100942E-06
(PID.TID 0000.0001) %MON dynstat_wvel_min             =  -7.8294991505285E-06
(PID.TID 0000.0001) %MON dynstat_wvel_mean            =  -3.4682585833213E-24
(PID.TID 0000.0001) %MON dynstat_wvel_sd              =   7.2360956165255E-07
(PID.TID 0000.0001) %MON dynstat_wvel_del2            =   3.9562560287443E-07
(PID.TID 0000.0001) %MON dynstat_theta_max            =   2.0000987074119E+01
(PID.TID 0000.0001) %MON dynstat_theta_min            =   1.9983246801799E+01
(PID.TID 0000.0001) %MON dynstat_theta_mean           =   2.0000161693097E+01
(PID.TID 0000.0001) %MON dynstat_theta_sd             =   2.3888437601242E-03
(PID.TID 0000.0001) %MON dynstat_theta_del2           =   6.1571469830526E-04
(PID.TID 0000.0001) %MON dynstat_salt_max             =   3.5000000000000E+01
(PID.TID 0000.0001) %MON dynstat_salt_min             =   3.5000000000000E+01
(PID.TID 0000.0001) %MON dynstat_salt_mean            =   3.4999999999986E+01
(PID.TID 0000.0001) %MON dynstat_salt_sd              =   1.4040324458618E-11
(PID.TID 0000.0001) %MON dynstat_salt_del2            =   0.0000000000000E+00
(PID.TID 0000.0001) %MON advcfl_uvel_max              =   6.0630503347571E-06
(PID.TID 0000.0001) %MON advcfl_vvel_max              =   3.0994933430659E-05
(PID.TID 0000.0001) %MON advcfl_wvel_max              =   1.5658998301057E-04
(PID.TID 0000.0001) %MON advcfl_W_hf_max              =   1.5658998301057E-04
(PID.TID 0000.0001) %MON pe_b_mean                    =   3.2370544895634E-14
(PID.TID 0000.0001) %MON ke_max                       =   2.9090523231273E-12
(PID.TID 0000.0001) %MON ke_mean                      =   4.2137760936591E-14
(PID.TID 0000.0001) %MON ke_vol                       =   3.8082386146826E-02
(PID.TID 0000.0001) %MON vort_r_min                   =  -2.8670658014142E-05
(PID.TID 0000.0001) %MON vort_r_max                   =   2.8559833107148E-05
(PID.TID 0000.0001) %MON vort_a_mean                  =   5.0000000000220E-01
(PID.TID 0000.0001) %MON vort_a_sd                    =   1.1347163314278E-06
(PID.TID 0000.0001) %MON vort_p_mean                  =   5.3488372093260E-01
(PID.TID 0000.0001) %MON vort_p_sd                    =   2.2607234995692E-01
(PID.TID 0000.0001) %MON surfExpan_theta_mean         =   0.0000000000000E+00
(PID.TID 0000.0001) %MON surfExpan_salt_mean          =   0.0000000000000E+00
(PID.TID 0000.0001) // =======================================================
(PID.TID 0000.0001) // End MONITOR dynamic field statistics
(PID.TID 0000.0001) // =======================================================
 cg2d: Sum(rhs),rhsMax =  -2.18158824338843E-14  8.14807314416521E-07
(PID.TID 0000.0001)                    cg2d_init_res =    3.13874880861365E+00
(PID.TID 0000.0001)                       cg2d_iters =    57
(PID.TID 0000.0001)                         cg2d_res =    8.93263782377599E-08
 cg3d: Sum(rhs),rhsMax =   1.70155556311613E-13  2.86010795668014E-07
(PID.TID 0000.0001)                    cg3d_init_res =    1.01398517114494E+01
(PID.TID 0000.0001)                       cg3d_iters =    10
(PID.TID 0000.0001)                         cg3d_res =    9.73642522131424E-01
(PID.TID 0000.0001) // =======================================================
(PID.TID 0000.0001) // Begin MONITOR dynamic field statistics
(PID.TID 0000.0001) // =======================================================
(PID.TID 0000.0001) %MON time_tsnumber                =                     4
(PID.TID 0000.0001) %MON time_secondsf                =   4.0000000000000E-01
(PID.TID 0000.0001) %MON dynstat_eta_max              =   2.2765106537170E-08
(PID.TID 0000.0001) %MON dynstat_eta_min              =  -2.8309676018742E-07
(PID.TID 0000.0001) %MON dynstat_eta_mean             =   9.8287581645007E-09
(PID.TID 0000.0001) %MON dynstat_eta_sd               =   4.1477607712259E-08
(PID.TID 0000.0001) %MON dynstat_eta_del2             =   9.9959527463424E-09
(PID.TID 0000.0001) %MON dynstat_uvel_max             =   5.4051433146752E-07
(PID.TID 0000.0001) %MON dynstat_uvel_min             =  -5.4562683414916E-07
(PID.TID 0000.0001) %MON dynstat_uvel_mean            =   3.5947562523556E-15
(PID.TID 0000.0001) %MON dynstat_uvel_sd              =   4.9409407368209E-08
(PID.TID 0000.0001) %MON dynstat_uvel_del2            =   3.1863328969752E-08
(PID.TID 0000.0001) %MON dynstat_vvel_max             =   5.6308106262210E-06
(PID.TID 0000.0001) %MON dynstat_vvel_min             =  -5.6541253255184E-06
(PID.TID 0000.0001) %MON dynstat_vvel_mean            =  -8.7545470388408E-18
(PID.TID 0000.0001) %MON dynstat_vvel_sd              =   5.1417833734724E-07
(PID.TID 0000.0001) %MON dynstat_vvel_del2            =   3.8023692163381E-08
(PID.TID 0000.0001) %MON dynstat_wvel_max             =   4.5407472878881E-06
(PID.TID 0000.0001) %MON dynstat_wvel_min             =  -1.3088731710280E-05
(PID.TID 0000.0001) %MON dynstat_wvel_mean            =  -4.3016658772832E-23
(PID.TID 0000.0001) %MON dynstat_wvel_sd              =   1.2369736101166E-06
(PID.TID 0000.0001) %MON dynstat_wvel_del2            =   6.3151996604716E-07
(PID.TID 0000.0001) %MON dynstat_theta_max            =   2.0000983645169E+01
(PID.TID 0000.0001) %MON dynstat_theta_min            =   1.9977668033535E+01
(PID.TID 0000.0001) %MON dynstat_theta_mean           =   2.0000046962493E+01
(PID.TID 0000.0001) %MON dynstat_theta_sd             =   3.1731480641080E-03
(PID.TID 0000.0001) %MON dynstat_theta_del2           =   7.3774032943813E-04
(PID.TID 0000.0001) %MON dynstat_salt_max             =   3.5000000000000E+01
(PID.TID 0000.0001) %MON dynstat_salt_min             =   3.5000000000000E+01
(PID.TID 0000.0001) %MON dynstat_salt_mean            =   3.4999999999986E+01
(PID.TID 0000.0001) %MON dynstat_salt_sd              =   1.4040324458618E-11
(PID.TID 0000.0001) %MON dynstat_salt_del2            =   0.0000000000000E+00
(PID.TID 0000.0001) %MON advcfl_uvel_max              =   1.0969163082748E-05
(PID.TID 0000.0001) %MON advcfl_vvel_max              =   5.6541253255184E-05
(PID.TID 0000.0001) %MON advcfl_wvel_max              =   2.6177463420561E-04
(PID.TID 0000.0001) %MON advcfl_W_hf_max              =   2.6177463420561E-04
(PID.TID 0000.0001) %MON pe_b_mean                    =   6.1464603325676E-14
(PID.TID 0000.0001) %MON ke_max                       =   9.6125745305875E-12
(PID.TID 0000.0001) %MON ke_mean                      =   1.2740170418957E-13
(PID.TID 0000.0001) %MON ke_vol                       =   3.8082386146826E-02
(PID.TID 0000.0001) %MON vort_r_min                   =  -4.9404686545110E-05
(PID.TID 0000.0001) %MON vort_r_max                   =   4.9858793417645E-05
(PID.TID 0000.0001) %MON vort_a_mean                  =   5.0000000000219E-01
(PID.TID 0000.0001) %MON vort_a_sd                    =   1.9459142218859E-06
(PID.TID 0000.0001) %MON vort_p_mean                  =   5.3488372093259E-01
(PID.TID 0000.0001) %MON vort_p_sd                    =   2.2607234997938E-01
(PID.TID 0000.0001) %MON surfExpan_theta_mean         =   0.0000000000000E+00
(PID.TID 0000.0001) %MON surfExpan_salt_mean          =   0.0000000000000E+00
(PID.TID 0000.0001) // =======================================================
(PID.TID 0000.0001) // End MONITOR dynamic field statistics
(PID.TID 0000.0001) // =======================================================
 cg2d: Sum(rhs),rhsMax =  -7.53147544330091E-14  9.69511582401491E-07
(PID.TID 0000.0001)                    cg2d_init_res =    2.62047915188433E+00
(PID.TID 0000.0001)                       cg2d_iters =    41
(PID.TID 0000.0001)                         cg2d_res =    8.36919206256495E-08
 cg3d: Sum(rhs),rhsMax =  -2.82954215613529E-13  3.40283399170328E-07
(PID.TID 0000.0001)                    cg3d_init_res =    8.44960303637348E+00
(PID.TID 0000.0001)                       cg3d_iters =    10
(PID.TID 0000.0001)                         cg3d_res =    9.26048371607096E-01
(PID.TID 0000.0001) // =======================================================
(PID.TID 0000.0001) // Begin MONITOR dynamic field statistics
(PID.TID 0000.0001) // =======================================================
(PID.TID 0000.0001) %MON time_tsnumber                =                     5
(PID.TID 0000.0001) %MON time_secondsf                =   5.0000000000000E-01
(PID.TID 0000.0001) %MON dynstat_eta_max              =   2.7110436009661E-08
(PID.TID 0000.0001) %MON dynstat_eta_min              =  -3.5947612064315E-07
(PID.TID 0000.0001) %MON dynstat_eta_mean             =   1.2559561190525E-08
(PID.TID 0000.0001) %MON dynstat_eta_sd               =   5.2846892318443E-08
(PID.TID 0000.0001) %MON dynstat_eta_del2             =   1.1758979122561E-08
(PID.TID 0000.0001) %MON dynstat_uvel_max             =   8.5098702476612E-07
(PID.TID 0000.0001) %MON dynstat_uvel_min             =  -8.4978215175072E-07
(PID.TID 0000.0001) %MON dynstat_uvel_mean            =   2.0872622581514E-14
(PID.TID 0000.0001) %MON dynstat_uvel_sd              =   7.6157584064993E-08
(PID.TID 0000.0001) %MON dynstat_uvel_del2            =   4.1074550038263E-08
(PID.TID 0000.0001) %MON dynstat_vvel_max             =   8.7147642642072E-06
(PID.TID 0000.0001) %MON dynstat_vvel_min             =  -8.7686025805463E-06
(PID.TID 0000.0001) %MON dynstat_vvel_mean            =   8.8189648570849E-17
(PID.TID 0000.0001) %MON dynstat_vvel_sd              =   7.7812540595463E-07
(PID.TID 0000.0001) %MON dynstat_vvel_del2            =   5.2852384081232E-08
(PID.TID 0000.0001) %MON dynstat_wvel_max             =   5.7291034885422E-06
(PID.TID 0000.0001) %MON dynstat_wvel_min             =  -1.9478285823431E-05
(PID.TID 0000.0001) %MON dynstat_wvel_mean            =  -2.9417469827494E-23
(PID.TID 0000.0001) %MON dynstat_wvel_sd              =   1.8312503097343E-06
(PID.TID 0000.0001) %MON dynstat_wvel_del2            =   8.5696496192375E-07
(PID.TID 0000.0001) %MON dynstat_theta_max            =   2.0000981080157E+01
(PID.TID 0000.0001) %MON dynstat_theta_min            =   1.9972102817690E+01
(PID.TID 0000.0001) %MON dynstat_theta_mean           =   1.9999932263921E+01
(PID.TID 0000.0001) %MON dynstat_theta_sd             =   3.9568689476170E-03
(PID.TID 0000.0001) %MON dynstat_theta_del2           =   8.5905029554140E-04
(PID.TID 0000.0001) %MON dynstat_salt_max             =   3.5000000000000E+01
(PID.TID 0000.0001) %MON dynstat_salt_min             =   3.5000000000000E+01
(PID.TID 0000.0001) %MON dynstat_salt_mean            =   3.4999999999986E+01
(PID.TID 0000.0001) %MON dynstat_salt_sd              =   1.4040324458618E-11
(PID.TID 0000.0001) %MON dynstat_salt_del2            =   0.0000000000000E+00
(PID.TID 0000.0001) %MON advcfl_uvel_max              =   1.7108057873506E-05
(PID.TID 0000.0001) %MON advcfl_vvel_max              =   8.7686025805463E-05
(PID.TID 0000.0001) %MON advcfl_wvel_max              =   3.8956571646861E-04
(PID.TID 0000.0001) %MON advcfl_W_hf_max              =   3.8956571646861E-04
(PID.TID 0000.0001) %MON pe_b_mean                    =   9.9809531362745E-14
(PID.TID 0000.0001) %MON ke_max                       =   2.3211275500737E-11
(PID.TID 0000.0001) %MON ke_mean                      =   2.9187867278779E-13
(PID.TID 0000.0001) %MON ke_vol                       =   3.8082386146826E-02
(PID.TID 0000.0001) %MON vort_r_min                   =  -7.3555078154940E-05
(PID.TID 0000.0001) %MON vort_r_max                   =   7.3336908943931E-05
(PID.TID 0000.0001) %MON vort_a_mean                  =   5.0000000000220E-01
(PID.TID 0000.0001) %MON vort_a_sd                    =   3.1042555930269E-06
(PID.TID 0000.0001) %MON vort_p_mean                  =   5.3488372093260E-01
(PID.TID 0000.0001) %MON vort_p_sd                    =   2.2607235003908E-01
(PID.TID 0000.0001) %MON surfExpan_theta_mean         =   0.0000000000000E+00
(PID.TID 0000.0001) %MON surfExpan_salt_mean          =   0.0000000000000E+00
(PID.TID 0000.0001) // =======================================================
(PID.TID 0000.0001) // End MONITOR dynamic field statistics
(PID.TID 0000.0001) // =======================================================
 cg2d: Sum(rhs),rhsMax =   2.24126273096203E-14  1.12382115314378E-06
(PID.TID 0000.0001)                    cg2d_init_res =    2.24579213746131E+00
(PID.TID 0000.0001)                       cg2d_iters =    41
(PID.TID 0000.0001)                         cg2d_res =    8.17773505604847E-08
 cg3d: Sum(rhs),rhsMax =  -6.06251160384375E-14  3.94318625346956E-07
(PID.TID 0000.0001)                    cg3d_init_res =    7.25456662926593E+00
(PID.TID 0000.0001)                       cg3d_iters =    10
(PID.TID 0000.0001)                         cg3d_res =    7.18275660011594E-01
(PID.TID 0000.0001) // =======================================================
(PID.TID 0000.0001) // Begin MONITOR dynamic field statistics
(PID.TID 0000.0001) // =======================================================
(PID.TID 0000.0001) %MON time_tsnumber                =                     6
(PID.TID 0000.0001) %MON time_secondsf                =   6.0000000000000E-01
(PID.TID 0000.0001) %MON dynstat_eta_max              =   3.1481885373792E-08
(PID.TID 0000.0001) %MON dynstat_eta_min              =  -4.3562658162705E-07
(PID.TID 0000.0001) %MON dynstat_eta_mean             =   1.5288412924825E-08
(PID.TID 0000.0001) %MON dynstat_eta_sd               =   6.4198813796805E-08
(PID.TID 0000.0001) %MON dynstat_eta_del2             =   1.3511819348003E-08
(PID.TID 0000.0001) %MON dynstat_uvel_max             =   1.2623335281002E-06
(PID.TID 0000.0001) %MON dynstat_uvel_min             =  -1.2736367939657E-06
(PID.TID 0000.0001) %MON dynstat_uvel_mean            =   7.2744100567975E-14
(PID.TID 0000.0001) %MON dynstat_uvel_sd              =   1.1736389386512E-07
(PID.TID 0000.0001) %MON dynstat_uvel_del2            =   4.9517643253251E-08
(PID.TID 0000.0001) %MON dynstat_vvel_max             =   1.2507151292258E-05
(PID.TID 0000.0001) %MON dynstat_vvel_min             =  -1.2592820719953E-05
(PID.TID 0000.0001) %MON dynstat_vvel_mean            =  -1.0141884838181E-17
(PID.TID 0000.0001) %MON dynstat_vvel_sd              =   1.0916363638565E-06
(PID.TID 0000.0001) %MON dynstat_vvel_del2            =   6.8393020232816E-08
(PID.TID 0000.0001) %MON dynstat_wvel_max             =   6.8739234422245E-06
(PID.TID 0000.0001) %MON dynstat_wvel_min             =  -2.5354666584763E-05
(PID.TID 0000.0001) %MON dynstat_wvel_mean            =   2.5228174988714E-23
(PID.TID 0000.0001) %MON dynstat_wvel_sd              =   2.5559287326436E-06
(PID.TID 0000.0001) %MON dynstat_wvel_del2            =   1.0948497192316E-06
(PID.TID 0000.0001) %MON dynstat_theta_max            =   2.0000979689030E+01
(PID.TID 0000.0001) %MON dynstat_theta_min            =   1.9966552677157E+01
(PID.TID 0000.0001) %MON dynstat_theta_mean           =   1.9999817597288E+01
(PID.TID 0000.0001) %MON dynstat_theta_sd             =   4.7391590932053E-03
(PID.TID 0000.0001) %MON dynstat_theta_del2           =   9.7966705488253E-04
(PID.TID 0000.0001) %MON dynstat_salt_max             =   3.5000000000000E+01
(PID.TID 0000.0001) %MON dynstat_salt_min             =   3.5000000000000E+01
(PID.TID 0000.0001) %MON dynstat_salt_mean            =   3.4999999999986E+01
(PID.TID 0000.0001) %MON dynstat_salt_sd              =   1.4040324458618E-11
(PID.TID 0000.0001) %MON dynstat_salt_del2            =   0.0000000000000E+00
(PID.TID 0000.0001) %MON advcfl_uvel_max              =   2.5604916816424E-05
(PID.TID 0000.0001) %MON advcfl_vvel_max              =   1.2592820719953E-04
(PID.TID 0000.0001) %MON advcfl_wvel_max              =   5.0709333169526E-04
(PID.TID 0000.0001) %MON advcfl_W_hf_max              =   5.0709333169526E-04
(PID.TID 0000.0001) %MON pe_b_mean                    =   1.4732669036844E-13
(PID.TID 0000.0001) %MON ke_max                       =   4.7984415331697E-11
(PID.TID 0000.0001) %MON ke_mean                      =   5.7563870926350E-13
(PID.TID 0000.0001) %MON ke_vol                       =   3.8082386146826E-02
(PID.TID 0000.0001) %MON vort_r_min                   =  -1.0933034855418E-04
(PID.TID 0000.0001) %MON vort_r_max                   =   1.1103273029554E-04
(PID.TID 0000.0001) %MON vort_a_mean                  =   5.0000000000220E-01
(PID.TID 0000.0001) %MON vort_a_sd                    =   4.9028556798739E-06
(PID.TID 0000.0001) %MON vort_p_mean                  =   5.3488372093260E-01
(PID.TID 0000.0001) %MON vort_p_sd                    =   2.2607235020247E-01
(PID.TID 0000.0001) %MON surfExpan_theta_mean         =   0.0000000000000E+00
(PID.TID 0000.0001) %MON surfExpan_salt_mean          =   0.0000000000000E+00
(PID.TID 0000.0001) // =======================================================
(PID.TID 0000.0001) // End MONITOR dynamic field statistics
(PID.TID 0000.0001) // =======================================================
 cg2d: Sum(rhs),rhsMax =  -7.41420813632487E-14  1.27772290193708E-06
(PID.TID 0000.0001)                    cg2d_init_res =    1.96231577638983E+00
(PID.TID 0000.0001)                       cg2d_iters =    40
(PID.TID 0000.0001)                         cg2d_res =    9.84330122631969E-08
 cg3d: Sum(rhs),rhsMax =   1.69864122767649E-14  4.48215800393934E-07
(PID.TID 0000.0001)                    cg3d_init_res =    6.32844904147689E+00
(PID.TID 0000.0001)                       cg3d_iters =    10
(PID.TID 0000.0001)                         cg3d_res =    7.19338231926953E-01
(PID.TID 0000.0001) // =======================================================
(PID.TID 0000.0001) // Begin MONITOR dynamic field statistics
(PID.TID 0000.0001) // =======================================================
(PID.TID 0000.0001) %MON time_tsnumber                =                     7
(PID.TID 0000.0001) %MON time_secondsf                =   7.0000000000000E-01
(PID.TID 0000.0001) %MON dynstat_eta_max              =   3.5850801665320E-08
(PID.TID 0000.0001) %MON dynstat_eta_min              =  -5.1154836557512E-07
(PID.TID 0000.0001) %MON dynstat_eta_mean             =   1.8015281859131E-08
(PID.TID 0000.0001) %MON dynstat_eta_sd               =   7.5526127207993E-08
(PID.TID 0000.0001) %MON dynstat_eta_del2             =   1.5255021487308E-08
(PID.TID 0000.0001) %MON dynstat_uvel_max             =   1.9280935565250E-06
(PID.TID 0000.0001) %MON dynstat_uvel_min             =  -1.9294067495018E-06
(PID.TID 0000.0001) %MON dynstat_uvel_mean            =   1.9589188671059E-13
(PID.TID 0000.0001) %MON dynstat_uvel_sd              =   1.7454365893729E-07
(PID.TID 0000.0001) %MON dynstat_uvel_del2            =   6.0915455722149E-08
(PID.TID 0000.0001) %MON dynstat_vvel_max             =   1.6832256580034E-05
(PID.TID 0000.0001) %MON dynstat_vvel_min             =  -1.6974335785362E-05
(PID.TID 0000.0001) %MON dynstat_vvel_mean            =   4.3793770328668E-17
(PID.TID 0000.0001) %MON dynstat_vvel_sd              =   1.4490362534815E-06
(PID.TID 0000.0001) %MON dynstat_vvel_del2            =   8.6523799572300E-08
(PID.TID 0000.0001) %MON dynstat_wvel_max             =   8.9824059767053E-06
(PID.TID 0000.0001) %MON dynstat_wvel_min             =  -3.4423627130336E-05
(PID.TID 0000.0001) %MON dynstat_wvel_mean            =   1.3263424821888E-22
(PID.TID 0000.0001) %MON dynstat_wvel_sd              =   3.3892997435630E-06
(PID.TID 0000.0001) %MON dynstat_wvel_del2            =   1.3932057329285E-06
(PID.TID 0000.0001) %MON dynstat_theta_max            =   2.0000978296376E+01
(PID.TID 0000.0001) %MON dynstat_theta_min            =   1.9961017241705E+01
(PID.TID 0000.0001) %MON dynstat_theta_mean           =   1.9999702962503E+01
(PID.TID 0000.0001) %MON dynstat_theta_sd             =   5.5196621547129E-03
(PID.TID 0000.0001) %MON dynstat_theta_del2           =   1.0996353551141E-03
(PID.TID 0000.0001) %MON dynstat_salt_max             =   3.5000000000000E+01
(PID.TID 0000.0001) %MON dynstat_salt_min             =   3.5000000000000E+01
(PID.TID 0000.0001) %MON dynstat_salt_mean            =   3.4999999999986E+01
(PID.TID 0000.0001) %MON dynstat_salt_sd              =   1.4040324458618E-11
(PID.TID 0000.0001) %MON dynstat_salt_del2            =   0.0000000000000E+00
(PID.TID 0000.0001) %MON advcfl_uvel_max              =   3.8788373231757E-05
(PID.TID 0000.0001) %MON advcfl_vvel_max              =   1.6974335785362E-04
(PID.TID 0000.0001) %MON advcfl_wvel_max              =   6.8847254260672E-04
(PID.TID 0000.0001) %MON advcfl_W_hf_max              =   6.8847254260672E-04
(PID.TID 0000.0001) %MON pe_b_mean                    =   2.0393793421868E-13
(PID.TID 0000.0001) %MON ke_max                       =   8.7739699460047E-11
(PID.TID 0000.0001) %MON ke_mean                      =   1.0173651840278E-12
(PID.TID 0000.0001) %MON ke_vol                       =   3.8082386146826E-02
(PID.TID 0000.0001) %MON vort_r_min                   =  -1.5491624946674E-04
(PID.TID 0000.0001) %MON vort_r_max                   =   1.5504610331582E-04
(PID.TID 0000.0001) %MON vort_a_mean                  =   5.0000000000220E-01
(PID.TID 0000.0001) %MON vort_a_sd                    =   7.4193156921441E-06
(PID.TID 0000.0001) %MON vort_p_mean                  =   5.3488372093259E-01
(PID.TID 0000.0001) %MON vort_p_sd                    =   2.2607235057849E-01
(PID.TID 0000.0001) %MON surfExpan_theta_mean         =   0.0000000000000E+00
(PID.TID 0000.0001) %MON surfExpan_salt_mean          =   0.0000000000000E+00
(PID.TID 0000.0001) // =======================================================
(PID.TID 0000.0001) // End MONITOR dynamic field statistics
(PID.TID 0000.0001) // =======================================================
 cg2d: Sum(rhs),rhsMax =  -5.37417332857615E-14  1.43119530563417E-06
(PID.TID 0000.0001)                    cg2d_init_res =    1.74040957043349E+00
(PID.TID 0000.0001)                       cg2d_iters =    40
(PID.TID 0000.0001)                         cg2d_res =    9.52067850034513E-08
 cg3d: Sum(rhs),rhsMax =   4.00721122950642E-14  5.01860134315336E-07
(PID.TID 0000.0001)                    cg3d_init_res =    5.62107177907824E+00
(PID.TID 0000.0001)                       cg3d_iters =    10
(PID.TID 0000.0001)                         cg3d_res =    5.69266359999562E-01
(PID.TID 0000.0001) // =======================================================
(PID.TID 0000.0001) // Begin MONITOR dynamic field statistics
(PID.TID 0000.0001) // =======================================================
(PID.TID 0000.0001) %MON time_tsnumber                =                     8
(PID.TID 0000.0001) %MON time_secondsf                =   8.0000000000000E-01
(PID.TID 0000.0001) %MON dynstat_eta_max              =   4.0217114927844E-08
(PID.TID 0000.0001) %MON dynstat_eta_min              =  -5.8724192116246E-07
(PID.TID 0000.0001) %MON dynstat_eta_mean             =   2.0740124239933E-08
(PID.TID 0000.0001) %MON dynstat_eta_sd               =   8.6825431707812E-08
(PID.TID 0000.0001) %MON dynstat_eta_del2             =   1.6988994361317E-08
(PID.TID 0000.0001) %MON dynstat_uvel_max             =   2.6042455043099E-06
(PID.TID 0000.0001) %MON dynstat_uvel_min             =  -2.6232326525066E-06
(PID.TID 0000.0001) %MON dynstat_uvel_mean            =   4.4819774737469E-13
(PID.TID 0000.0001) %MON dynstat_uvel_sd              =   2.4901219469809E-07
(PID.TID 0000.0001) %MON dynstat_uvel_del2            =   6.8168536115814E-08
(PID.TID 0000.0001) %MON dynstat_vvel_max             =   2.1824470301858E-05
(PID.TID 0000.0001) %MON dynstat_vvel_min             =  -2.2023605459294E-05
(PID.TID 0000.0001) %MON dynstat_vvel_mean            =   2.4249180662085E-17
(PID.TID 0000.0001) %MON dynstat_vvel_sd              =   1.8545939814514E-06
(PID.TID 0000.0001) %MON dynstat_vvel_del2            =   1.0318955998276E-07
(PID.TID 0000.0001) %MON dynstat_wvel_max             =   1.0121424255345E-05
(PID.TID 0000.0001) %MON dynstat_wvel_min             =  -4.2053326939382E-05
(PID.TID 0000.0001) %MON dynstat_wvel_mean            =  -1.6172391297607E-23
(PID.TID 0000.0001) %MON dynstat_wvel_sd              =   4.3354223850038E-06
(PID.TID 0000.0001) %MON dynstat_wvel_del2            =   1.6470776732373E-06
(PID.TID 0000.0001) %MON dynstat_theta_max            =   2.0000976902293E+01
(PID.TID 0000.0001) %MON dynstat_theta_min            =   1.9955496060374E+01
(PID.TID 0000.0001) %MON dynstat_theta_mean           =   1.9999588359473E+01
(PID.TID 0000.0001) %MON dynstat_theta_sd             =   6.2982069459326E-03
(PID.TID 0000.0001) %MON dynstat_theta_del2           =   1.2189916619036E-03
(PID.TID 0000.0001) %MON dynstat_salt_max             =   3.5000000000000E+01
(PID.TID 0000.0001) %MON dynstat_salt_min             =   3.5000000000000E+01
(PID.TID 0000.0001) %MON dynstat_salt_mean            =   3.4999999999986E+01
(PID.TID 0000.0001) %MON dynstat_salt_sd              =   1.4040324458618E-11
(PID.TID 0000.0001) %MON dynstat_salt_del2            =   0.0000000000000E+00
(PID.TID 0000.0001) %MON advcfl_uvel_max              =   5.2736898129662E-05
(PID.TID 0000.0001) %MON advcfl_vvel_max              =   2.2023605459294E-04
(PID.TID 0000.0001) %MON advcfl_wvel_max              =   8.4106653878765E-04
(PID.TID 0000.0001) %MON advcfl_W_hf_max              =   8.4106653878765E-04
(PID.TID 0000.0001) %MON pe_b_mean                    =   2.6956555124772E-13
(PID.TID 0000.0001) %MON ke_max                       =   1.4832281598210E-10
(PID.TID 0000.0001) %MON ke_mean                      =   1.6725920719344E-12
(PID.TID 0000.0001) %MON ke_vol                       =   3.8082386146826E-02
(PID.TID 0000.0001) %MON vort_r_min                   =  -2.1044022981447E-04
(PID.TID 0000.0001) %MON vort_r_max                   =   2.1384915891187E-04
(PID.TID 0000.0001) %MON vort_a_mean                  =   5.0000000000220E-01
(PID.TID 0000.0001) %MON vort_a_sd                    =   1.0729343100991E-05
(PID.TID 0000.0001) %MON vort_p_mean                  =   5.3488372093260E-01
(PID.TID 0000.0001) %MON vort_p_sd                    =   2.2607235134382E-01
(PID.TID 0000.0001) %MON surfExpan_theta_mean         =   0.0000000000000E+00
(PID.TID 0000.0001) %MON surfExpan_salt_mean          =   0.0000000000000E+00
(PID.TID 0000.0001) // =======================================================
(PID.TID 0000.0001) // End MONITOR dynamic field statistics
(PID.TID 0000.0001) // =======================================================
 cg2d: Sum(rhs),rhsMax =  -5.73568970096971E-14  1.58422884093564E-06
(PID.TID 0000.0001)                    cg2d_init_res =    1.56200787121102E+00
(PID.TID 0000.0001)                       cg2d_iters =    40
(PID.TID 0000.0001)                         cg2d_res =    8.87791504049674E-08
 cg3d: Sum(rhs),rhsMax =  -2.12371786822985E-13  5.55325213509906E-07
(PID.TID 0000.0001)                    cg3d_init_res =    5.03896858048228E+00
(PID.TID 0000.0001)                       cg3d_iters =    10
(PID.TID 0000.0001)                         cg3d_res =    5.71934381860194E-01
(PID.TID 0000.0001) // =======================================================
(PID.TID 0000.0001) // Begin MONITOR dynamic field statistics
(PID.TID 0000.0001) // =======================================================
(PID.TID 0000.0001) %MON time_tsnumber                =                     9
(PID.TID 0000.0001) %MON time_secondsf                =   9.0000000000000E-01
(PID.TID 0000.0001) %MON dynstat_eta_max              =   4.4580751693495E-08
(PID.TID 0000.0001) %MON dynstat_eta_min              =  -6.6270713669637E-07
(PID.TID 0000.0001) %MON dynstat_eta_mean             =   2.3462895574739E-08
(PID.TID 0000.0001) %MON dynstat_eta_sd               =   9.8094938875589E-08
(PID.TID 0000.0001) %MON dynstat_eta_del2             =   1.8714393828783E-08
(PID.TID 0000.0001) %MON dynstat_uvel_max             =   3.6758310113710E-06
(PID.TID 0000.0001) %MON dynstat_uvel_min             =  -3.6841775933921E-06
(PID.TID 0000.0001) %MON dynstat_uvel_mean            =   9.1593125411035E-13
(PID.TID 0000.0001) %MON dynstat_uvel_sd              =   3.4402619115807E-07
(PID.TID 0000.0001) %MON dynstat_uvel_del2            =   8.0025487232378E-08
(PID.TID 0000.0001) %MON dynstat_vvel_max             =   2.7331351131317E-05
(PID.TID 0000.0001) %MON dynstat_vvel_min             =  -2.7616958479544E-05
(PID.TID 0000.0001) %MON dynstat_vvel_mean            =  -4.6423639157914E-18
(PID.TID 0000.0001) %MON dynstat_vvel_sd              =   2.3035150034004E-06
(PID.TID 0000.0001) %MON dynstat_vvel_del2            =   1.2337333737139E-07
(PID.TID 0000.0001) %MON dynstat_wvel_max             =   1.2218539058955E-05
(PID.TID 0000.0001) %MON dynstat_wvel_min             =  -5.2355691439562E-05
(PID.TID 0000.0001) %MON dynstat_wvel_mean            =  -2.0597624847482E-22
(PID.TID 0000.0001) %MON dynstat_wvel_sd              =   5.3970543924909E-06
(PID.TID 0000.0001) %MON dynstat_wvel_del2            =   1.9832044791896E-06
(PID.TID 0000.0001) %MON dynstat_theta_max            =   2.0000975506948E+01
(PID.TID 0000.0001) %MON dynstat_theta_min            =   1.9949988679038E+01
(PID.TID 0000.0001) %MON dynstat_theta_mean           =   1.9999473788108E+01
(PID.TID 0000.0001) %MON dynstat_theta_sd             =   7.0747047563017E-03
(PID.TID 0000.0001) %MON dynstat_theta_del2           =   1.3377318942062E-03
(PID.TID 0000.0001) %MON dynstat_salt_max             =   3.5000000000000E+01
(PID.TID 0000.0001) %MON dynstat_salt_min             =   3.5000000000000E+01
(PID.TID 0000.0001) %MON dynstat_salt_mean            =   3.4999999999986E+01
(PID.TID 0000.0001) %MON dynstat_salt_sd              =   1.4040324458618E-11
(PID.TID 0000.0001) %MON dynstat_salt_del2            =   0.0000000000000E+00
(PID.TID 0000.0001) %MON advcfl_uvel_max              =   7.4065904237905E-05
(PID.TID 0000.0001) %MON advcfl_vvel_max              =   2.7616958479544E-04
(PID.TID 0000.0001) %MON advcfl_wvel_max              =   1.0471138287912E-03
(PID.TID 0000.0001) %MON advcfl_W_hf_max              =   1.0471138287912E-03
(PID.TID 0000.0001) %MON pe_b_mean                    =   3.4413224607658E-13
(PID.TID 0000.0001) %MON ke_max                       =   2.3492679007090E-10
(PID.TID 0000.0001) %MON ke_mean                      =   2.5916726643897E-12
(PID.TID 0000.0001) %MON ke_vol                       =   3.8082386146826E-02
(PID.TID 0000.0001) %MON vort_r_min                   =  -2.8302315441875E-04
(PID.TID 0000.0001) %MON vort_r_max                   =   2.8423384344031E-04
(PID.TID 0000.0001) %MON vort_a_mean                  =   5.0000000000220E-01
(PID.TID 0000.0001) %MON vort_a_sd                    =   1.4975101708779E-05
(PID.TID 0000.0001) %MON vort_p_mean                  =   5.3488372093260E-01
(PID.TID 0000.0001) %MON vort_p_sd                    =   2.2607235277680E-01
(PID.TID 0000.0001) %MON surfExpan_theta_mean         =   0.0000000000000E+00
(PID.TID 0000.0001) %MON surfExpan_salt_mean          =   0.0000000000000E+00
(PID.TID 0000.0001) // =======================================================
(PID.TID 0000.0001) // End MONITOR dynamic field statistics
(PID.TID 0000.0001) // =======================================================
 cg2d: Sum(rhs),rhsMax =   4.37531955110870E-14  1.73680202186778E-06
(PID.TID 0000.0001)                    cg2d_init_res =    1.41549307324987E+00
(PID.TID 0000.0001)                       cg2d_iters =    40
(PID.TID 0000.0001)                         cg2d_res =    7.99262580945202E-08
 cg3d: Sum(rhs),rhsMax =   2.59584020945169E-14  6.08531377447658E-07
(PID.TID 0000.0001)                    cg3d_init_res =    4.57158236641480E+00
(PID.TID 0000.0001)                       cg3d_iters =    10
(PID.TID 0000.0001)                         cg3d_res =    4.71529058623300E-01
(PID.TID 0000.0001) // =======================================================
(PID.TID 0000.0001) // Begin MONITOR dynamic field statistics
(PID.TID 0000.0001) // =======================================================
(PID.TID 0000.0001) %MON time_tsnumber                =                    10
(PID.TID 0000.0001) %MON time_secondsf                =   1.0000000000000E+00
(PID.TID 0000.0001) %MON dynstat_eta_max              =   4.8941614303070E-08
(PID.TID 0000.0001) %MON dynstat_eta_min              =  -7.3794437001703E-07
(PID.TID 0000.0001) %MON dynstat_eta_mean             =   2.6183537844589E-08
(PID.TID 0000.0001) %MON dynstat_eta_sd               =   1.0933361711791E-07
(PID.TID 0000.0001) %MON dynstat_eta_del2             =   2.0430706088671E-08
(PID.TID 0000.0001) %MON dynstat_uvel_max             =   4.7568018052081E-06
(PID.TID 0000.0001) %MON dynstat_uvel_min             =  -4.7901278554463E-06
(PID.TID 0000.0001) %MON dynstat_uvel_mean            =   1.7196707559503E-12
(PID.TID 0000.0001) %MON dynstat_uvel_sd              =   4.6027322216424E-07
(PID.TID 0000.0001) %MON dynstat_uvel_del2            =   8.7119056602632E-08
(PID.TID 0000.0001) %MON dynstat_vvel_max             =   3.3475889792031E-05
(PID.TID 0000.0001) %MON dynstat_vvel_min             =  -3.3847942583756E-05
(PID.TID 0000.0001) %MON dynstat_vvel_mean            =  -5.5110153136043E-19
(PID.TID 0000.0001) %MON dynstat_vvel_sd              =   2.7989556404591E-06
(PID.TID 0000.0001) %MON dynstat_vvel_del2            =   1.4110199397686E-07
(PID.TID 0000.0001) %MON dynstat_wvel_max             =   1.3315883898868E-05
(PID.TID 0000.0001) %MON dynstat_wvel_min             =  -6.1621604587730E-05
(PID.TID 0000.0001) %MON dynstat_wvel_mean            =   1.1153263993821E-22
(PID.TID 0000.0001) %MON dynstat_wvel_sd              =   6.5677760940336E-06
(PID.TID 0000.0001) %MON dynstat_wvel_del2            =   2.2583547561597E-06
(PID.TID 0000.0001) %MON dynstat_theta_max            =   2.0000974110405E+01
(PID.TID 0000.0001) %MON dynstat_theta_min            =   1.9944494552315E+01
(PID.TID 0000.0001) %MON dynstat_theta_mean           =   1.9999359248315E+01
(PID.TID 0000.0001) %MON dynstat_theta_sd             =   7.8491081214987E-03
(PID.TID 0000.0001) %MON dynstat_theta_del2           =   1.4558840142111E-03
(PID.TID 0000.0001) %MON dynstat_salt_max             =   3.5000000000000E+01
(PID.TID 0000.0001) %MON dynstat_salt_min             =   3.5000000000000E+01
(PID.TID 0000.0001) %MON dynstat_salt_mean            =   3.4999999999986E+01
(PID.TID 0000.0001) %MON dynstat_salt_sd              =   1.4040324458618E-11
(PID.TID 0000.0001) %MON dynstat_salt_del2            =   0.0000000000000E+00
(PID.TID 0000.0001) %MON advcfl_uvel_max              =   9.6299687524605E-05
(PID.TID 0000.0001) %MON advcfl_vvel_max              =   3.3847942583756E-04
(PID.TID 0000.0001) %MON advcfl_wvel_max              =   1.2324320917546E-03
(PID.TID 0000.0001) %MON advcfl_W_hf_max              =   1.2324320917546E-03
(PID.TID 0000.0001) %MON pe_b_mean                    =   4.2756098461744E-13
(PID.TID 0000.0001) %MON ke_max                       =   3.5461317875354E-10
(PID.TID 0000.0001) %MON ke_mean                      =   3.8449531336668E-12
(PID.TID 0000.0001) %MON ke_vol                       =   3.8082386146826E-02
(PID.TID 0000.0001) %MON vort_r_min                   =  -3.6616793687582E-04
(PID.TID 0000.0001) %MON vort_r_max                   =   3.7206914901527E-04
(PID.TID 0000.0001) %MON vort_a_mean                  =   5.0000000000219E-01
(PID.TID 0000.0001) %MON vort_a_sd                    =   2.0209618496292E-05
(PID.TID 0000.0001) %MON vort_p_mean                  =   5.3488372093259E-01
(PID.TID 0000.0001) %MON vort_p_sd                    =   2.2607235525659E-01
(PID.TID 0000.0001) %MON surfExpan_theta_mean         =   0.0000000000000E+00
(PID.TID 0000.0001) %MON surfExpan_salt_mean          =   0.0000000000000E+00
(PID.TID 0000.0001) // =======================================================
(PID.TID 0000.0001) // End MONITOR dynamic field statistics
(PID.TID 0000.0001) // =======================================================
 cg2d: Sum(rhs),rhsMax =   2.56426824218892E-14  1.88890964616302E-06
(PID.TID 0000.0001)                    cg2d_init_res =    1.29303407005992E+00
(PID.TID 0000.0001)                       cg2d_iters =    39
(PID.TID 0000.0001)                         cg2d_res =    9.14185240205636E-08
 cg3d: Sum(rhs),rhsMax =   1.49116829994966E-14  6.61514174977659E-07
(PID.TID 0000.0001)                    cg3d_init_res =    4.17303275369184E+00
(PID.TID 0000.0001)                       cg3d_iters =    10
(PID.TID 0000.0001)                         cg3d_res =    4.68318913443152E-01
(PID.TID 0000.0001) // =======================================================
(PID.TID 0000.0001) // Begin MONITOR dynamic field statistics
(PID.TID 0000.0001) // =======================================================
(PID.TID 0000.0001) %MON time_tsnumber                =                    11
(PID.TID 0000.0001) %MON time_secondsf                =   1.1000000000000E+00
(PID.TID 0000.0001) %MON dynstat_eta_max              =   5.3299610147027E-08
(PID.TID 0000.0001) %MON dynstat_eta_min              =  -8.1295322212387E-07
(PID.TID 0000.0001) %MON dynstat_eta_mean             =   2.8901993923786E-08
(PID.TID 0000.0001) %MON dynstat_eta_sd               =   1.2054083610350E-07
(PID.TID 0000.0001) %MON dynstat_eta_del2             =   2.2139102213304E-08
(PID.TID 0000.0001) %MON dynstat_uvel_max             =   6.2578084175940E-06
(PID.TID 0000.0001) %MON dynstat_uvel_min             =  -6.2793395644716E-06
(PID.TID 0000.0001) %MON dynstat_uvel_mean            =   3.0240348872363E-12
(PID.TID 0000.0001) %MON dynstat_uvel_sd              =   6.0093094132331E-07
(PID.TID 0000.0001) %MON dynstat_uvel_del2            =   9.9529090897352E-08
(PID.TID 0000.0001) %MON dynstat_vvel_max             =   4.0109113227793E-05
(PID.TID 0000.0001) %MON dynstat_vvel_min             =  -4.0600377437576E-05
(PID.TID 0000.0001) %MON dynstat_vvel_mean            =   1.2268902926438E-17
(PID.TID 0000.0001) %MON dynstat_vvel_sd              =   3.3369528760363E-06
(PID.TID 0000.0001) %MON dynstat_vvel_del2            =   1.6284999059695E-07
(PID.TID 0000.0001) %MON dynstat_wvel_max             =   1.5449792927666E-05
(PID.TID 0000.0001) %MON dynstat_wvel_min             =  -7.3227912935125E-05
(PID.TID 0000.0001) %MON dynstat_wvel_mean            =  -2.2098513412166E-22
(PID.TID 0000.0001) %MON dynstat_wvel_sd              =   7.8543965734248E-06
(PID.TID 0000.0001) %MON dynstat_wvel_del2            =   2.6225908234267E-06
(PID.TID 0000.0001) %MON dynstat_theta_max            =   2.0000972712851E+01
(PID.TID 0000.0001) %MON dynstat_theta_min            =   1.9939013147895E+01
(PID.TID 0000.0001) %MON dynstat_theta_mean           =   1.9999244740006E+01
(PID.TID 0000.0001) %MON dynstat_theta_sd             =   8.6213920422828E-03
(PID.TID 0000.0001) %MON dynstat_theta_del2           =   1.5734960516781E-03
(PID.TID 0000.0001) %MON dynstat_salt_max             =   3.5000000000000E+01
(PID.TID 0000.0001) %MON dynstat_salt_min             =   3.5000000000000E+01
(PID.TID 0000.0001) %MON dynstat_salt_mean            =   3.4999999999986E+01
(PID.TID 0000.0001) %MON dynstat_salt_sd              =   1.4040324458618E-11
(PID.TID 0000.0001) %MON dynstat_salt_del2            =   0.0000000000000E+00
(PID.TID 0000.0001) %MON advcfl_uvel_max              =   1.2623847549956E-04
(PID.TID 0000.0001) %MON advcfl_vvel_max              =   4.0600377437576E-04
(PID.TID 0000.0001) %MON advcfl_wvel_max              =   1.4645582587025E-03
(PID.TID 0000.0001) %MON advcfl_W_hf_max              =   1.4645582587025E-03
(PID.TID 0000.0001) %MON pe_b_mean                    =   5.1977501625143E-13
(PID.TID 0000.0001) %MON ke_max                       =   5.1461819976534E-10
(PID.TID 0000.0001) %MON ke_mean                      =   5.4951122807278E-12
(PID.TID 0000.0001) %MON ke_vol                       =   3.8082386146826E-02
(PID.TID 0000.0001) %MON vort_r_min                   =  -4.6921213851067E-04
(PID.TID 0000.0001) %MON vort_r_max                   =   4.7256923021989E-04
(PID.TID 0000.0001) %MON vort_a_mean                  =   5.0000000000220E-01
(PID.TID 0000.0001) %MON vort_a_sd                    =   2.6568247024216E-05
(PID.TID 0000.0001) %MON vort_p_mean                  =   5.3488372093260E-01
(PID.TID 0000.0001) %MON vort_p_sd                    =   2.2607235932828E-01
(PID.TID 0000.0001) %MON surfExpan_theta_mean         =   0.0000000000000E+00
(PID.TID 0000.0001) %MON surfExpan_salt_mean          =   0.0000000000000E+00
(PID.TID 0000.0001) // =======================================================
(PID.TID 0000.0001) // End MONITOR dynamic field statistics
(PID.TID 0000.0001) // =======================================================
 cg2d: Sum(rhs),rhsMax =   3.57908147563535E-14  2.04139867153223E-06
(PID.TID 0000.0001)                    cg2d_init_res =    1.18867400061590E+00
(PID.TID 0000.0001)                       cg2d_iters =    39
(PID.TID 0000.0001)                         cg2d_res =    8.35830643709406E-08
 cg3d: Sum(rhs),rhsMax =   9.18883025224915E-14  7.14692498149650E-07
(PID.TID 0000.0001)                    cg3d_init_res =    3.83861396618823E+00
(PID.TID 0000.0001)                       cg3d_iters =    10
(PID.TID 0000.0001)                         cg3d_res =    4.01420532673404E-01
(PID.TID 0000.0001) // =======================================================
(PID.TID 0000.0001) // Begin MONITOR dynamic field statistics
(PID.TID 0000.0001) // =======================================================
(PID.TID 0000.0001) %MON time_tsnumber                =                    12
(PID.TID 0000.0001) %MON time_secondsf                =   1.2000000000000E+00
(PID.TID 0000.0001) %MON dynstat_eta_max              =   5.7654623866927E-08
(PID.TID 0000.0001) %MON dynstat_eta_min              =  -8.8773390777725E-07
(PID.TID 0000.0001) %MON dynstat_eta_mean             =   3.1618192119560E-08
(PID.TID 0000.0001) %MON dynstat_eta_sd               =   1.3171617659166E-07
(PID.TID 0000.0001) %MON dynstat_eta_del2             =   2.3839494218071E-08
(PID.TID 0000.0001) %MON dynstat_uvel_max             =   7.8195769296859E-06
(PID.TID 0000.0001) %MON dynstat_uvel_min             =  -7.8735239194253E-06
(PID.TID 0000.0001) %MON dynstat_uvel_mean            =   5.0434077145770E-12
(PID.TID 0000.0001) %MON dynstat_uvel_sd              =   7.6681466471785E-07
(PID.TID 0000.0001) %MON dynstat_uvel_del2            =   1.0755042269440E-07
(PID.TID 0000.0001) %MON dynstat_vvel_max             =   4.7354348216672E-05
(PID.TID 0000.0001) %MON dynstat_vvel_min             =  -4.7963581861876E-05
(PID.TID 0000.0001) %MON dynstat_vvel_mean            =  -6.2270900640347E-17
(PID.TID 0000.0001) %MON dynstat_vvel_sd              =   3.9198443074507E-06
(PID.TID 0000.0001) %MON dynstat_vvel_del2            =   1.8178595345779E-07
(PID.TID 0000.0001) %MON dynstat_wvel_max             =   1.6565827220955E-05
(PID.TID 0000.0001) %MON dynstat_wvel_min             =  -8.4021082270970E-05
(PID.TID 0000.0001) %MON dynstat_wvel_mean            =  -2.8041700276269E-22
(PID.TID 0000.0001) %MON dynstat_wvel_sd              =   9.2487300386574E-06
(PID.TID 0000.0001) %MON dynstat_wvel_del2            =   2.9238232256983E-06
(PID.TID 0000.0001) %MON dynstat_theta_max            =   2.0000971314327E+01
(PID.TID 0000.0001) %MON dynstat_theta_min            =   1.9933543835926E+01
(PID.TID 0000.0001) %MON dynstat_theta_mean           =   1.9999130263090E+01
(PID.TID 0000.0001) %MON dynstat_theta_sd             =   9.3915445812904E-03
(PID.TID 0000.0001) %MON dynstat_theta_del2           =   1.6905864855475E-03
(PID.TID 0000.0001) %MON dynstat_salt_max             =   3.5000000000000E+01
(PID.TID 0000.0001) %MON dynstat_salt_min             =   3.5000000000000E+01
(PID.TID 0000.0001) %MON dynstat_salt_mean            =   3.4999999999986E+01
(PID.TID 0000.0001) %MON dynstat_salt_sd              =   1.4040324458618E-11
(PID.TID 0000.0001) %MON dynstat_salt_del2            =   0.0000000000000E+00
(PID.TID 0000.0001) %MON advcfl_uvel_max              =   1.5828761069417E-04
(PID.TID 0000.0001) %MON advcfl_vvel_max              =   4.7963581861876E-04
(PID.TID 0000.0001) %MON advcfl_wvel_max              =   1.6804216454194E-03
(PID.TID 0000.0001) %MON advcfl_W_hf_max              =   1.6804216454194E-03
(PID.TID 0000.0001) %MON pe_b_mean                    =   6.2069768569317E-13
(PID.TID 0000.0001) %MON ke_max                       =   7.2263129942189E-10
(PID.TID 0000.0001) %MON ke_mean                      =   7.6273834397448E-12
(PID.TID 0000.0001) %MON ke_vol                       =   3.8082386146826E-02
(PID.TID 0000.0001) %MON vort_r_min                   =  -5.8647595244857E-04
(PID.TID 0000.0001) %MON vort_r_max                   =   5.9584573730179E-04
(PID.TID 0000.0001) %MON vort_a_mean                  =   5.0000000000219E-01
(PID.TID 0000.0001) %MON vort_a_sd                    =   3.4111934656009E-05
(PID.TID 0000.0001) %MON vort_p_mean                  =   5.3488372093259E-01
(PID.TID 0000.0001) %MON vort_p_sd                    =   2.2607236568530E-01
(PID.TID 0000.0001) %MON surfExpan_theta_mean         =   0.0000000000000E+00
(PID.TID 0000.0001) %MON surfExpan_salt_mean          =   0.0000000000000E+00
(PID.TID 0000.0001) // =======================================================
(PID.TID 0000.0001) // End MONITOR dynamic field statistics
(PID.TID 0000.0001) // =======================================================
 cg2d: Sum(rhs),rhsMax =  -6.71129818385907E-14  2.19372466698214E-06
(PID.TID 0000.0001)                    cg2d_init_res =    1.09896598367304E+00
(PID.TID 0000.0001)                       cg2d_iters =    39
(PID.TID 0000.0001)                         cg2d_res =    7.83399726708633E-08
 cg3d: Sum(rhs),rhsMax =   1.91523880088695E-13  7.67553389106258E-07
(PID.TID 0000.0001)                    cg3d_init_res =    3.54768127023007E+00
(PID.TID 0000.0001)                       cg3d_iters =    10
(PID.TID 0000.0001)                         cg3d_res =    3.93795391392355E-01
(PID.TID 0000.0001) // =======================================================
(PID.TID 0000.0001) // Begin MONITOR dynamic field statistics
(PID.TID 0000.0001) // =======================================================
(PID.TID 0000.0001) %MON time_tsnumber                =                    13
(PID.TID 0000.0001) %MON time_secondsf                =   1.3000000000000E+00
(PID.TID 0000.0001) %MON dynstat_eta_max              =   6.2006540059128E-08
(PID.TID 0000.0001) %MON dynstat_eta_min              =  -9.6228578184436E-07
(PID.TID 0000.0001) %MON dynstat_eta_mean             =   3.4332062735845E-08
(PID.TID 0000.0001) %MON dynstat_eta_sd               =   1.4285935021145E-07
(PID.TID 0000.0001) %MON dynstat_eta_del2             =   2.5533700163980E-08
(PID.TID 0000.0001) %MON dynstat_uvel_max             =   9.8294798531619E-06
(PID.TID 0000.0001) %MON dynstat_uvel_min             =  -9.8716005735546E-06
(PID.TID 0000.0001) %MON dynstat_uvel_mean            =   8.0544244513918E-12
(PID.TID 0000.0001) %MON dynstat_uvel_sd              =   9.6079102949784E-07
(PID.TID 0000.0001) %MON dynstat_uvel_del2            =   1.2082954233595E-07
(PID.TID 0000.0001) %MON dynstat_vvel_max             =   5.5058832822669E-05
(PID.TID 0000.0001) %MON dynstat_vvel_min             =  -5.5821021690971E-05
(PID.TID 0000.0001) %MON dynstat_vvel_mean            =   6.9686231034371E-17
(PID.TID 0000.0001) %MON dynstat_vvel_sd              =   4.5442081540122E-06
(PID.TID 0000.0001) %MON dynstat_vvel_del2            =   2.0474640131000E-07
(PID.TID 0000.0001) %MON dynstat_wvel_max             =   1.8884697323965E-05
(PID.TID 0000.0001) %MON dynstat_wvel_min             =  -9.7077076539222E-05
(PID.TID 0000.0001) %MON dynstat_wvel_mean            =  -1.2583667723430E-22
(PID.TID 0000.0001) %MON dynstat_wvel_sd              =   1.0756506487613E-05
(PID.TID 0000.0001) %MON dynstat_wvel_del2            =   3.3076397805209E-06
(PID.TID 0000.0001) %MON dynstat_theta_max            =   2.0000969915030E+01
(PID.TID 0000.0001) %MON dynstat_theta_min            =   1.9928086013467E+01
(PID.TID 0000.0001) %MON dynstat_theta_mean           =   1.9999015817477E+01
(PID.TID 0000.0001) %MON dynstat_theta_sd             =   1.0159561795832E-02
(PID.TID 0000.0001) %MON dynstat_theta_del2           =   1.8073212292866E-03
(PID.TID 0000.0001) %MON dynstat_salt_max             =   3.5000000000000E+01
(PID.TID 0000.0001) %MON dynstat_salt_min             =   3.5000000000000E+01
(PID.TID 0000.0001) %MON dynstat_salt_mean            =   3.4999999999986E+01
(PID.TID 0000.0001) %MON dynstat_salt_sd              =   1.4040324458618E-11
(PID.TID 0000.0001) %MON dynstat_salt_del2            =   0.0000000000000E+00
(PID.TID 0000.0001) %MON advcfl_uvel_max              =   1.9845650873811E-04
(PID.TID 0000.0001) %MON advcfl_vvel_max              =   5.5821021690971E-04
(PID.TID 0000.0001) %MON advcfl_wvel_max              =   1.9415415307844E-03
(PID.TID 0000.0001) %MON advcfl_W_hf_max              =   1.9415415307844E-03
(PID.TID 0000.0001) %MON pe_b_mean                    =   7.3025249205218E-13
(PID.TID 0000.0001) %MON ke_max                       =   9.8760383853734E-10
(PID.TID 0000.0001) %MON ke_mean                      =   1.0317159307730E-11
(PID.TID 0000.0001) %MON ke_vol                       =   3.8082386146826E-02
(PID.TID 0000.0001) %MON vort_r_min                   =  -7.2457538136881E-04
(PID.TID 0000.0001) %MON vort_r_max                   =   7.3143951950365E-04
(PID.TID 0000.0001) %MON vort_a_mean                  =   5.0000000000219E-01
(PID.TID 0000.0001) %MON vort_a_sd                    =   4.2962791530859E-05
(PID.TID 0000.0001) %MON vort_p_mean                  =   5.3488372093259E-01
(PID.TID 0000.0001) %MON vort_p_sd                    =   2.2607237525598E-01
(PID.TID 0000.0001) %MON surfExpan_theta_mean         =   0.0000000000000E+00
(PID.TID 0000.0001) %MON surfExpan_salt_mean          =   0.0000000000000E+00
(PID.TID 0000.0001) // =======================================================
(PID.TID 0000.0001) // End MONITOR dynamic field statistics
(PID.TID 0000.0001) // =======================================================
 cg2d: Sum(rhs),rhsMax =  -1.71702929652184E-14  2.34545752468087E-06
(PID.TID 0000.0001)                    cg2d_init_res =    1.02122422155282E+00
(PID.TID 0000.0001)                       cg2d_iters =    39
(PID.TID 0000.0001)                         cg2d_res =    7.49284873820805E-08
 cg3d: Sum(rhs),rhsMax =   1.92623694772465E-14  8.20125965404817E-07
(PID.TID 0000.0001)                    cg3d_init_res =    3.29901015443495E+00
(PID.TID 0000.0001)                       cg3d_iters =    10
(PID.TID 0000.0001)                         cg3d_res =    3.48035281427442E-01
(PID.TID 0000.0001) // =======================================================
(PID.TID 0000.0001) // Begin MONITOR dynamic field statistics
(PID.TID 0000.0001) // =======================================================
(PID.TID 0000.0001) %MON time_tsnumber                =                    14
(PID.TID 0000.0001) %MON time_secondsf                =   1.4000000000000E+00
(PID.TID 0000.0001) %MON dynstat_eta_max              =   6.6355218572022E-08
(PID.TID 0000.0001) %MON dynstat_eta_min              =  -1.0366089080526E-06
(PID.TID 0000.0001) %MON dynstat_eta_mean             =   3.7043520769698E-08
(PID.TID 0000.0001) %MON dynstat_eta_sd               =   1.5397013474190E-07
(PID.TID 0000.0001) %MON dynstat_eta_del2             =   2.7222697910784E-08
(PID.TID 0000.0001) %MON dynstat_uvel_max             =   1.1947341632433E-05
(PID.TID 0000.0001) %MON dynstat_uvel_min             =  -1.2028945216909E-05
(PID.TID 0000.0001) %MON dynstat_uvel_mean            =   1.2400967691960E-11
(PID.TID 0000.0001) %MON dynstat_uvel_sd              =   1.1838801425464E-06
(PID.TID 0000.0001) %MON dynstat_uvel_del2            =   1.3051378997387E-07
(PID.TID 0000.0001) %MON dynstat_vvel_max             =   6.3352987287845E-05
(PID.TID 0000.0001) %MON dynstat_vvel_min             =  -6.4264717937991E-05
(PID.TID 0000.0001) %MON dynstat_vvel_mean            =  -1.9185638105210E-17
(PID.TID 0000.0001) %MON dynstat_vvel_sd              =   5.2118260763869E-06
(PID.TID 0000.0001) %MON dynstat_vvel_del2            =   2.2501335029504E-07
(PID.TID 0000.0001) %MON dynstat_wvel_max             =   2.0972661087038E-05
(PID.TID 0000.0001) %MON dynstat_wvel_min             =  -1.0939417325786E-04
(PID.TID 0000.0001) %MON dynstat_wvel_mean            =  -3.3916763041400E-22
(PID.TID 0000.0001) %MON dynstat_wvel_sd              =   1.2371033336025E-05
(PID.TID 0000.0001) %MON dynstat_wvel_del2            =   3.6364733152520E-06
(PID.TID 0000.0001) %MON dynstat_theta_max            =   2.0000968514990E+01
(PID.TID 0000.0001) %MON dynstat_theta_min            =   1.9922638976864E+01
(PID.TID 0000.0001) %MON dynstat_theta_mean           =   1.9998901403078E+01
(PID.TID 0000.0001) %MON dynstat_theta_sd             =   1.0925444840480E-02
(PID.TID 0000.0001) %MON dynstat_theta_del2           =   1.9236640368624E-03
(PID.TID 0000.0001) %MON dynstat_salt_max             =   3.5000000000000E+01
(PID.TID 0000.0001) %MON dynstat_salt_min             =   3.5000000000000E+01
(PID.TID 0000.0001) %MON dynstat_salt_mean            =   3.4999999999986E+01
(PID.TID 0000.0001) %MON dynstat_salt_sd              =   1.4040324458618E-11
(PID.TID 0000.0001) %MON dynstat_salt_del2            =   0.0000000000000E+00
(PID.TID 0000.0001) %MON advcfl_uvel_max              =   2.4182729576244E-04
(PID.TID 0000.0001) %MON advcfl_vvel_max              =   6.4264717937991E-04
(PID.TID 0000.0001) %MON advcfl_wvel_max              =   2.1878834651571E-03
(PID.TID 0000.0001) %MON advcfl_W_hf_max              =   2.1878834651571E-03
(PID.TID 0000.0001) %MON pe_b_mean                    =   8.4836287420011E-13
(PID.TID 0000.0001) %MON ke_max                       =   1.3185254985427E-09
(PID.TID 0000.0001) %MON ke_mean                      =   1.3665007733772E-11
(PID.TID 0000.0001) %MON ke_vol                       =   3.8082386146826E-02
(PID.TID 0000.0001) %MON vort_r_min                   =  -8.8217500822904E-04
(PID.TID 0000.0001) %MON vort_r_max                   =   8.9641169699283E-04
(PID.TID 0000.0001) %MON vort_a_mean                  =   5.0000000000219E-01
(PID.TID 0000.0001) %MON vort_a_sd                    =   5.3187485961243E-05
(PID.TID 0000.0001) %MON vort_p_mean                  =   5.3488372093259E-01
(PID.TID 0000.0001) %MON vort_p_sd                    =   2.2607238917467E-01
(PID.TID 0000.0001) %MON surfExpan_theta_mean         =   0.0000000000000E+00
(PID.TID 0000.0001) %MON surfExpan_salt_mean          =   0.0000000000000E+00
(PID.TID 0000.0001) // =======================================================
(PID.TID 0000.0001) // End MONITOR dynamic field statistics
(PID.TID 0000.0001) // =======================================================
 cg2d: Sum(rhs),rhsMax =   3.41116024316079E-14  2.49657962702551E-06
(PID.TID 0000.0001)                    cg2d_init_res =    9.53217662132744E-01
(PID.TID 0000.0001)                       cg2d_iters =    39
(PID.TID 0000.0001)                         cg2d_res =    7.27575751189684E-08
 cg3d: Sum(rhs),rhsMax =   3.53959916932212E-13  8.72346602030407E-07
(PID.TID 0000.0001)                    cg3d_init_res =    3.07886954358553E+00
(PID.TID 0000.0001)                       cg3d_iters =    10
(PID.TID 0000.0001)                         cg3d_res =    3.38467727267979E-01
(PID.TID 0000.0001) // =======================================================
(PID.TID 0000.0001) // Begin MONITOR dynamic field statistics
(PID.TID 0000.0001) // =======================================================
(PID.TID 0000.0001) %MON time_tsnumber                =                    15
(PID.TID 0000.0001) %MON time_secondsf                =   1.5000000000000E+00
(PID.TID 0000.0001) %MON dynstat_eta_max              =   7.0700513345236E-08
(PID.TID 0000.0001) %MON dynstat_eta_min              =  -1.1107024367922E-06
(PID.TID 0000.0001) %MON dynstat_eta_mean             =   3.9752484207092E-08
(PID.TID 0000.0001) %MON dynstat_eta_sd               =   1.6504835636583E-07
(PID.TID 0000.0001) %MON dynstat_eta_del2             =   2.8905988344383E-08
(PID.TID 0000.0001) %MON dynstat_uvel_max             =   1.4538759109210E-05
(PID.TID 0000.0001) %MON dynstat_uvel_min             =  -1.4609428724797E-05
(PID.TID 0000.0001) %MON dynstat_uvel_mean            =   1.8509504876956E-11
(PID.TID 0000.0001) %MON dynstat_uvel_sd              =   1.4386501893389E-06
(PID.TID 0000.0001) %MON dynstat_uvel_del2            =   1.4519240884858E-07
(PID.TID 0000.0001) %MON dynstat_vvel_max             =   7.2076153953634E-05
(PID.TID 0000.0001) %MON dynstat_vvel_min             =  -7.3173208990284E-05
(PID.TID 0000.0001) %MON dynstat_vvel_mean            =   4.3854898118557E-17
(PID.TID 0000.0001) %MON dynstat_vvel_sd              =   5.9196115775546E-06
(PID.TID 0000.0001) %MON dynstat_vvel_del2            =   2.4906339878628E-07
(PID.TID 0000.0001) %MON dynstat_wvel_max             =   2.3774967438433E-05
(PID.TID 0000.0001) %MON dynstat_wvel_min             =  -1.2397605187338E-04
(PID.TID 0000.0001) %MON dynstat_wvel_mean            =   3.3572365368774E-23
(PID.TID 0000.0001) %MON dynstat_wvel_sd              =   1.4095813147191E-05
(PID.TID 0000.0001) %MON dynstat_wvel_del2            =   4.0390685460215E-06
(PID.TID 0000.0001) %MON dynstat_theta_max            =   2.0000967114400E+01
(PID.TID 0000.0001) %MON dynstat_theta_min            =   1.9917202059152E+01
(PID.TID 0000.0001) %MON dynstat_theta_mean           =   1.9998787019805E+01
(PID.TID 0000.0001) %MON dynstat_theta_sd             =   1.1689198228436E-02
(PID.TID 0000.0001) %MON dynstat_theta_del2           =   2.0396153896350E-03
(PID.TID 0000.0001) %MON dynstat_salt_max             =   3.5000000000000E+01
(PID.TID 0000.0001) %MON dynstat_salt_min             =   3.5000000000000E+01
(PID.TID 0000.0001) %MON dynstat_salt_mean            =   3.4999999999986E+01
(PID.TID 0000.0001) %MON dynstat_salt_sd              =   1.4040324458618E-11
(PID.TID 0000.0001) %MON dynstat_salt_del2            =   0.0000000000000E+00
(PID.TID 0000.0001) %MON advcfl_uvel_max              =   2.9370477439580E-04
(PID.TID 0000.0001) %MON advcfl_vvel_max              =   7.3173208990284E-04
(PID.TID 0000.0001) %MON advcfl_wvel_max              =   2.4795210374675E-03
(PID.TID 0000.0001) %MON advcfl_W_hf_max              =   2.4795210374675E-03
(PID.TID 0000.0001) %MON pe_b_mean                    =   9.7495230209779E-13
(PID.TID 0000.0001) %MON ke_max                       =   1.7254863373243E-09
(PID.TID 0000.0001) %MON ke_mean                      =   1.7759353224978E-11
(PID.TID 0000.0001) %MON ke_vol                       =   3.8082386146826E-02
(PID.TID 0000.0001) %MON vort_r_min                   =  -1.0603371442348E-03
(PID.TID 0000.0001) %MON vort_r_max                   =   1.0723845306654E-03
(PID.TID 0000.0001) %MON vort_a_mean                  =   5.0000000000220E-01
(PID.TID 0000.0001) %MON vort_a_sd                    =   6.4897014104557E-05
(PID.TID 0000.0001) %MON vort_p_mean                  =   5.3488372093259E-01
(PID.TID 0000.0001) %MON vort_p_sd                    =   2.2607240888475E-01
(PID.TID 0000.0001) %MON surfExpan_theta_mean         =   0.0000000000000E+00
(PID.TID 0000.0001) %MON surfExpan_salt_mean          =   0.0000000000000E+00
(PID.TID 0000.0001) // =======================================================
(PID.TID 0000.0001) // End MONITOR dynamic field statistics
(PID.TID 0000.0001) // =======================================================
 cg2d: Sum(rhs),rhsMax =  -1.18204057653060E-14  2.64710034838054E-06
(PID.TID 0000.0001)                    cg2d_init_res =    8.93228612082000E-01
(PID.TID 0000.0001)                       cg2d_iters =    38
(PID.TID 0000.0001)                         cg2d_res =    9.80826383309495E-08
 cg3d: Sum(rhs),rhsMax =   3.10827752425524E-14  9.24256402519930E-07
(PID.TID 0000.0001)                    cg3d_init_res =    2.88690643220962E+00
(PID.TID 0000.0001)                       cg3d_iters =    10
(PID.TID 0000.0001)                         cg3d_res =    3.05518638990097E-01
(PID.TID 0000.0001) // =======================================================
(PID.TID 0000.0001) // Begin MONITOR dynamic field statistics
(PID.TID 0000.0001) // =======================================================
(PID.TID 0000.0001) %MON time_tsnumber                =                    16
(PID.TID 0000.0001) %MON time_secondsf                =   1.6000000000000E+00
(PID.TID 0000.0001) %MON dynstat_eta_max              =   7.5042265502404E-08
(PID.TID 0000.0001) %MON dynstat_eta_min              =  -1.1845662610028E-06
(PID.TID 0000.0001) %MON dynstat_eta_mean             =   4.2458854904867E-08
(PID.TID 0000.0001) %MON dynstat_eta_sd               =   1.7609385825944E-07
(PID.TID 0000.0001) %MON dynstat_eta_del2             =   3.0582952079316E-08
(PID.TID 0000.0001) %MON dynstat_uvel_max             =   1.7283061915472E-05
(PID.TID 0000.0001) %MON dynstat_uvel_min             =  -1.7399302300273E-05
(PID.TID 0000.0001) %MON dynstat_uvel_mean            =   2.6892744482392E-11
(PID.TID 0000.0001) %MON dynstat_uvel_sd              =   1.7262522421796E-06
(PID.TID 0000.0001) %MON dynstat_uvel_del2            =   1.5706031474604E-07
(PID.TID 0000.0001) %MON dynstat_vvel_max             =   8.1367372892076E-05
(PID.TID 0000.0001) %MON dynstat_vvel_min             =  -8.2643341064006E-05
(PID.TID 0000.0001) %MON dynstat_vvel_mean            =  -1.5847644619941E-17
(PID.TID 0000.0001) %MON dynstat_vvel_sd              =   6.6689821178857E-06
(PID.TID 0000.0001) %MON dynstat_vvel_del2            =   2.7074793316179E-07
(PID.TID 0000.0001) %MON dynstat_wvel_max             =   2.6092282460726E-05
(PID.TID 0000.0001) %MON dynstat_wvel_min             =  -1.3890901881558E-04
(PID.TID 0000.0001) %MON dynstat_wvel_mean            =   2.0232047999531E-22
(PID.TID 0000.0001) %MON dynstat_wvel_sd              =   1.5925970912286E-05
(PID.TID 0000.0001) %MON dynstat_wvel_del2            =   4.3955772538461E-06
(PID.TID 0000.0001) %MON dynstat_theta_max            =   2.0000965713288E+01
(PID.TID 0000.0001) %MON dynstat_theta_min            =   1.9911774491893E+01
(PID.TID 0000.0001) %MON dynstat_theta_mean           =   1.9998672667570E+01
(PID.TID 0000.0001) %MON dynstat_theta_sd             =   1.2450828744150E-02
(PID.TID 0000.0001) %MON dynstat_theta_del2           =   2.1551472696210E-03
(PID.TID 0000.0001) %MON dynstat_salt_max             =   3.5000000000000E+01
(PID.TID 0000.0001) %MON dynstat_salt_min             =   3.5000000000000E+01
(PID.TID 0000.0001) %MON dynstat_salt_mean            =   3.4999999999986E+01
(PID.TID 0000.0001) %MON dynstat_salt_sd              =   1.4040324458618E-11
(PID.TID 0000.0001) %MON dynstat_salt_del2            =   0.0000000000000E+00
(PID.TID 0000.0001) %MON advcfl_uvel_max              =   3.4979178536066E-04
(PID.TID 0000.0001) %MON advcfl_vvel_max              =   8.2643341064006E-04
(PID.TID 0000.0001) %MON advcfl_wvel_max              =   2.7781803763115E-03
(PID.TID 0000.0001) %MON advcfl_W_hf_max              =   2.7781803763115E-03
(PID.TID 0000.0001) %MON pe_b_mean                    =   1.1099440362851E-12
(PID.TID 0000.0001) %MON ke_max                       =   2.2191620390638E-09
(PID.TID 0000.0001) %MON ke_mean                      =   2.2716831862676E-11
(PID.TID 0000.0001) %MON ke_vol                       =   3.8082386146826E-02
(PID.TID 0000.0001) %MON vort_r_min                   =  -1.2635421670170E-03
(PID.TID 0000.0001) %MON vort_r_max                   =   1.2844536711185E-03
(PID.TID 0000.0001) %MON vort_a_mean                  =   5.0000000000219E-01
(PID.TID 0000.0001) %MON vort_a_sd                    =   7.8161592986518E-05
(PID.TID 0000.0001) %MON vort_p_mean                  =   5.3488372093259E-01
(PID.TID 0000.0001) %MON vort_p_sd                    =   2.2607243610122E-01
(PID.TID 0000.0001) %MON surfExpan_theta_mean         =   0.0000000000000E+00
(PID.TID 0000.0001) %MON surfExpan_salt_mean          =   0.0000000000000E+00
(PID.TID 0000.0001) // =======================================================
(PID.TID 0000.0001) // End MONITOR dynamic field statistics
(PID.TID 0000.0001) // =======================================================
 cg2d: Sum(rhs),rhsMax =   2.55385990133306E-14  2.79700163160584E-06
(PID.TID 0000.0001)                    cg2d_init_res =    8.39928870607338E-01
(PID.TID 0000.0001)                       cg2d_iters =    38
(PID.TID 0000.0001)                         cg2d_res =    9.54132489511708E-08
 cg3d: Sum(rhs),rhsMax =  -3.40172334745148E-13  9.75796876390099E-07
(PID.TID 0000.0001)                    cg3d_init_res =    2.71457713963415E+00
(PID.TID 0000.0001)                       cg3d_iters =    10
(PID.TID 0000.0001)                         cg3d_res =    2.95648293299512E-01
(PID.TID 0000.0001) // =======================================================
(PID.TID 0000.0001) // Begin MONITOR dynamic field statistics
(PID.TID 0000.0001) // =======================================================
(PID.TID 0000.0001) %MON time_tsnumber                =                    17
(PID.TID 0000.0001) %MON time_secondsf                =   1.7000000000000E+00
(PID.TID 0000.0001) %MON dynstat_eta_max              =   7.9380263049198E-08
(PID.TID 0000.0001) %MON dynstat_eta_min              =  -1.2581993775643E-06
(PID.TID 0000.0001) %MON dynstat_eta_mean             =   4.5162538816914E-08
(PID.TID 0000.0001) %MON dynstat_eta_sd               =   1.8710650136101E-07
(PID.TID 0000.0001) %MON dynstat_eta_del2             =   3.2254281785377E-08
(PID.TID 0000.0001) %MON dynstat_uvel_max             =   2.0525097239536E-05
(PID.TID 0000.0001) %MON dynstat_uvel_min             =  -2.0631008548703E-05
(PID.TID 0000.0001) %MON dynstat_uvel_mean            =   3.8168133339831E-11
(PID.TID 0000.0001) %MON dynstat_uvel_sd              =   2.0490123481388E-06
(PID.TID 0000.0001) %MON dynstat_uvel_del2            =   1.7365127084881E-07
(PID.TID 0000.0001) %MON dynstat_vvel_max             =   9.1058275933762E-05
(PID.TID 0000.0001) %MON dynstat_vvel_min             =  -9.2547901210259E-05
(PID.TID 0000.0001) %MON dynstat_vvel_mean            =   1.0229311614322E-16
(PID.TID 0000.0001) %MON dynstat_vvel_sd              =   7.4570595051137E-06
(PID.TID 0000.0001) %MON dynstat_vvel_del2            =   2.9588070665113E-07
(PID.TID 0000.0001) %MON dynstat_wvel_max             =   2.9081320320923E-05
(PID.TID 0000.0001) %MON dynstat_wvel_min             =  -1.5484090754423E-04
(PID.TID 0000.0001) %MON dynstat_wvel_mean            =  -6.2132415843659E-22
(PID.TID 0000.0001) %MON dynstat_wvel_sd              =   1.7862983789938E-05
(PID.TID 0000.0001) %MON dynstat_wvel_del2            =   4.8175207447044E-06
(PID.TID 0000.0001) %MON dynstat_theta_max            =   2.0000964311837E+01
(PID.TID 0000.0001) %MON dynstat_theta_min            =   1.9906355551380E+01
(PID.TID 0000.0001) %MON dynstat_theta_mean           =   1.9998558346284E+01
(PID.TID 0000.0001) %MON dynstat_theta_sd             =   1.3210344740169E-02
(PID.TID 0000.0001) %MON dynstat_theta_del2           =   2.2702686925009E-03
(PID.TID 0000.0001) %MON dynstat_salt_max             =   3.5000000000000E+01
(PID.TID 0000.0001) %MON dynstat_salt_min             =   3.5000000000000E+01
(PID.TID 0000.0001) %MON dynstat_salt_mean            =   3.4999999999986E+01
(PID.TID 0000.0001) %MON dynstat_salt_sd              =   1.4040324458618E-11
(PID.TID 0000.0001) %MON dynstat_salt_del2            =   0.0000000000000E+00
(PID.TID 0000.0001) %MON advcfl_uvel_max              =   4.1476130418913E-04
(PID.TID 0000.0001) %MON advcfl_vvel_max              =   9.2547901210259E-04
(PID.TID 0000.0001) %MON advcfl_wvel_max              =   3.0968181508846E-03
(PID.TID 0000.0001) %MON advcfl_W_hf_max              =   3.0968181508846E-03
(PID.TID 0000.0001) %MON pe_b_mean                    =   1.2532612519456E-12
(PID.TID 0000.0001) %MON ke_max                       =   2.8105123616281E-09
(PID.TID 0000.0001) %MON ke_mean                      =   2.8639281841199E-11
(PID.TID 0000.0001) %MON ke_vol                       =   3.8082386146826E-02
(PID.TID 0000.0001) %MON vort_r_min                   =  -1.4897894461017E-03
(PID.TID 0000.0001) %MON vort_r_max                   =   1.5078147679404E-03
(PID.TID 0000.0001) %MON vort_a_mean                  =   5.0000000000219E-01
(PID.TID 0000.0001) %MON vort_a_sd                    =   9.3082821063273E-05
(PID.TID 0000.0001) %MON vort_p_mean                  =   5.3488372093259E-01
(PID.TID 0000.0001) %MON vort_p_sd                    =   2.2607247292650E-01
(PID.TID 0000.0001) %MON surfExpan_theta_mean         =   0.0000000000000E+00
(PID.TID 0000.0001) %MON surfExpan_salt_mean          =   0.0000000000000E+00
(PID.TID 0000.0001) // =======================================================
(PID.TID 0000.0001) // End MONITOR dynamic field statistics
(PID.TID 0000.0001) // =======================================================
 cg2d: Sum(rhs),rhsMax =  -6.08228745146988E-14  2.94629460968794E-06
(PID.TID 0000.0001)                    cg2d_init_res =    7.92260709045923E-01
(PID.TID 0000.0001)                       cg2d_iters =    38
(PID.TID 0000.0001)                         cg2d_res =    9.25742774647014E-08
 cg3d: Sum(rhs),rhsMax =   4.14598910758457E-14  1.02700538254818E-06
(PID.TID 0000.0001)                    cg3d_init_res =    2.56203086725299E+00
(PID.TID 0000.0001)                       cg3d_iters =    10
(PID.TID 0000.0001)                         cg3d_res =    2.70524445751796E-01
(PID.TID 0000.0001) // =======================================================
(PID.TID 0000.0001) // Begin MONITOR dynamic field statistics
(PID.TID 0000.0001) // =======================================================
(PID.TID 0000.0001) %MON time_tsnumber                =                    18
(PID.TID 0000.0001) %MON time_secondsf                =   1.8000000000000E+00
(PID.TID 0000.0001) %MON dynstat_eta_max              =   8.3714371878901E-08
(PID.TID 0000.0001) %MON dynstat_eta_min              =  -1.3316014724024E-06
(PID.TID 0000.0001) %MON dynstat_eta_mean             =   4.7863424772730E-08
(PID.TID 0000.0001) %MON dynstat_eta_sd               =   1.9808614399215E-07
(PID.TID 0000.0001) %MON dynstat_eta_del2             =   3.3918297318004E-08
(PID.TID 0000.0001) %MON dynstat_uvel_max             =   2.3962312072074E-05
(PID.TID 0000.0001) %MON dynstat_uvel_min             =  -2.4117641806599E-05
(PID.TID 0000.0001) %MON dynstat_uvel_mean            =   5.3059376429865E-11
(PID.TID 0000.0001) %MON dynstat_uvel_sd              =   2.4081489701272E-06
(PID.TID 0000.0001) %MON dynstat_uvel_del2            =   1.8812205113035E-07
(PID.TID 0000.0001) %MON dynstat_vvel_max             =   1.0129521678965E-04
(PID.TID 0000.0001) %MON dynstat_vvel_min             =  -1.0298843631959E-04
(PID.TID 0000.0001) %MON dynstat_vvel_mean            =  -1.0738433116926E-17
(PID.TID 0000.0001) %MON dynstat_vvel_sd              =   8.2849995579510E-06
(PID.TID 0000.0001) %MON dynstat_vvel_del2            =   3.1897945949295E-07
(PID.TID 0000.0001) %MON dynstat_wvel_max             =   3.1606946411056E-05
(PID.TID 0000.0001) %MON dynstat_wvel_min             =  -1.7151949869738E-04
(PID.TID 0000.0001) %MON dynstat_wvel_mean            =   7.0385279461334E-22
(PID.TID 0000.0001) %MON dynstat_wvel_sd              =   1.9903458854665E-05
(PID.TID 0000.0001) %MON dynstat_wvel_del2            =   5.2011163800507E-06
(PID.TID 0000.0001) %MON dynstat_theta_max            =   2.0000962910078E+01
(PID.TID 0000.0001) %MON dynstat_theta_min            =   1.9900944412518E+01
(PID.TID 0000.0001) %MON dynstat_theta_mean           =   1.9998444055860E+01
(PID.TID 0000.0001) %MON dynstat_theta_sd             =   1.3967755667610E-02
(PID.TID 0000.0001) %MON dynstat_theta_del2           =   2.3848323978270E-03
(PID.TID 0000.0001) %MON dynstat_salt_max             =   3.5000000000000E+01
(PID.TID 0000.0001) %MON dynstat_salt_min             =   3.5000000000000E+01
(PID.TID 0000.0001) %MON dynstat_salt_mean            =   3.4999999999986E+01
(PID.TID 0000.0001) %MON dynstat_salt_sd              =   1.4040324458618E-11
(PID.TID 0000.0001) %MON dynstat_salt_del2            =   0.0000000000000E+00
(PID.TID 0000.0001) %MON advcfl_uvel_max              =   4.8485582011452E-04
(PID.TID 0000.0001) %MON advcfl_vvel_max              =   1.0298843631959E-03
(PID.TID 0000.0001) %MON advcfl_wvel_max              =   3.4303899739477E-03
(PID.TID 0000.0001) %MON advcfl_W_hf_max              =   3.4303899739477E-03
(PID.TID 0000.0001) %MON pe_b_mean                    =   1.4048267704505E-12
(PID.TID 0000.0001) %MON ke_max                       =   3.5120555843245E-09
(PID.TID 0000.0001) %MON ke_mean                      =   3.5660171895746E-11
(PID.TID 0000.0001) %MON ke_vol                       =   3.8082386146826E-02
(PID.TID 0000.0001) %MON vort_r_min                   =  -1.7404438709267E-03
(PID.TID 0000.0001) %MON vort_r_max                   =   1.7701731243429E-03
(PID.TID 0000.0001) %MON vort_a_mean                  =   5.0000000000220E-01
(PID.TID 0000.0001) %MON vort_a_sd                    =   1.0973206477915E-04
(PID.TID 0000.0001) %MON vort_p_mean                  =   5.3488372093259E-01
(PID.TID 0000.0001) %MON vort_p_sd                    =   2.2607252180596E-01
(PID.TID 0000.0001) %MON surfExpan_theta_mean         =   0.0000000000000E+00
(PID.TID 0000.0001) %MON surfExpan_salt_mean          =   0.0000000000000E+00
(PID.TID 0000.0001) // =======================================================
(PID.TID 0000.0001) // End MONITOR dynamic field statistics
(PID.TID 0000.0001) // =======================================================
 cg2d: Sum(rhs),rhsMax =   4.56579218877096E-15  3.09496583813849E-06
(PID.TID 0000.0001)                    cg2d_init_res =    7.49383788194891E-01
(PID.TID 0000.0001)                       cg2d_iters =    38
(PID.TID 0000.0001)                         cg2d_res =    8.95045744415052E-08
 cg3d: Sum(rhs),rhsMax =   5.79709891201929E-14  1.07782578721445E-06
(PID.TID 0000.0001)                    cg3d_init_res =    2.42354174292152E+00
(PID.TID 0000.0001)                       cg3d_iters =    10
(PID.TID 0000.0001)                         cg3d_res =    2.61260501809955E-01
(PID.TID 0000.0001) // =======================================================
(PID.TID 0000.0001) // Begin MONITOR dynamic field statistics
(PID.TID 0000.0001) // =======================================================
(PID.TID 0000.0001) %MON time_tsnumber                =                    19
(PID.TID 0000.0001) %MON time_secondsf                =   1.9000000000000E+00
(PID.TID 0000.0001) %MON dynstat_eta_max              =   8.8044151776574E-08
(PID.TID 0000.0001) %MON dynstat_eta_min              =  -1.4047715304856E-06
(PID.TID 0000.0001) %MON dynstat_eta_mean             =   5.0561406933639E-08
(PID.TID 0000.0001) %MON dynstat_eta_sd               =   2.0903264921895E-07
(PID.TID 0000.0001) %MON dynstat_eta_del2             =   3.5573929302660E-08
(PID.TID 0000.0001) %MON dynstat_uvel_max             =   2.7919981977066E-05
(PID.TID 0000.0001) %MON dynstat_uvel_min             =  -2.8062067858254E-05
(PID.TID 0000.0001) %MON dynstat_uvel_mean            =   7.2418396391659E-11
(PID.TID 0000.0001) %MON dynstat_uvel_sd              =   2.8057921033465E-06
(PID.TID 0000.0001) %MON dynstat_uvel_del2            =   2.0705919879219E-07
(PID.TID 0000.0001) %MON dynstat_vvel_max             =   1.1190457894665E-04
(PID.TID 0000.0001) %MON dynstat_vvel_min             =  -1.1383228083604E-04
(PID.TID 0000.0001) %MON dynstat_vvel_mean            =   5.7807960084664E-17
(PID.TID 0000.0001) %MON dynstat_vvel_sd              =   9.1500701338784E-06
(PID.TID 0000.0001) %MON dynstat_vvel_del2            =   3.4520109777626E-07
(PID.TID 0000.0001) %MON dynstat_wvel_max             =   3.4758801062064E-05
(PID.TID 0000.0001) %MON dynstat_wvel_min             =  -1.8901787956305E-04
(PID.TID 0000.0001) %MON dynstat_wvel_mean            =   1.2582453630577E-22
(PID.TID 0000.0001) %MON dynstat_wvel_sd              =   2.2047466834242E-05
(PID.TID 0000.0001) %MON dynstat_wvel_del2            =   5.6411094738443E-06
(PID.TID 0000.0001) %MON dynstat_theta_max            =   2.0000961508181E+01
(PID.TID 0000.0001) %MON dynstat_theta_min            =   1.9895540301897E+01
(PID.TID 0000.0001) %MON dynstat_theta_mean           =   1.9998329796213E+01
(PID.TID 0000.0001) %MON dynstat_theta_sd             =   1.4723071755580E-02
(PID.TID 0000.0001) %MON dynstat_theta_del2           =   2.4988243712176E-03
(PID.TID 0000.0001) %MON dynstat_salt_max             =   3.5000000000000E+01
(PID.TID 0000.0001) %MON dynstat_salt_min             =   3.5000000000000E+01
(PID.TID 0000.0001) %MON dynstat_salt_mean            =   3.4999999999986E+01
(PID.TID 0000.0001) %MON dynstat_salt_sd              =   1.4040324458618E-11
(PID.TID 0000.0001) %MON dynstat_salt_del2            =   0.0000000000000E+00
(PID.TID 0000.0001) %MON advcfl_uvel_max              =   5.6415370269742E-04
(PID.TID 0000.0001) %MON advcfl_vvel_max              =   1.1383228083604E-03
(PID.TID 0000.0001) %MON advcfl_wvel_max              =   3.7803575912610E-03
(PID.TID 0000.0001) %MON advcfl_W_hf_max              =   3.7803575912610E-03
(PID.TID 0000.0001) %MON pe_b_mean                    =   1.5645632182307E-12
(PID.TID 0000.0001) %MON ke_max                       =   4.3354840854401E-09
(PID.TID 0000.0001) %MON ke_mean                      =   4.3895313133319E-11
(PID.TID 0000.0001) %MON ke_vol                       =   3.8082386146826E-02
(PID.TID 0000.0001) %MON vort_r_min                   =  -2.0214631666794E-03
(PID.TID 0000.0001) %MON vort_r_max                   =   2.0471205363765E-03
(PID.TID 0000.0001) %MON vort_a_mean                  =   5.0000000000220E-01
(PID.TID 0000.0001) %MON vort_a_sd                    =   1.2820366771934E-04
(PID.TID 0000.0001) %MON vort_p_mean                  =   5.3488372093259E-01
(PID.TID 0000.0001) %MON vort_p_sd                    =   2.2607258565452E-01
(PID.TID 0000.0001) %MON surfExpan_theta_mean         =   0.0000000000000E+00
(PID.TID 0000.0001) %MON surfExpan_salt_mean          =   0.0000000000000E+00
(PID.TID 0000.0001) // =======================================================
(PID.TID 0000.0001) // End MONITOR dynamic field statistics
(PID.TID 0000.0001) // =======================================================
 cg2d: Sum(rhs),rhsMax =   1.52967916111635E-14  3.24302259479404E-06
(PID.TID 0000.0001)                    cg2d_init_res =    7.10612824378535E-01
(PID.TID 0000.0001)                       cg2d_iters =    38
(PID.TID 0000.0001)                         cg2d_res =    8.68241337646381E-08
 cg3d: Sum(rhs),rhsMax =  -6.80098338756707E-14  1.12829490305902E-06
(PID.TID 0000.0001)                    cg3d_init_res =    2.29946575571581E+00
(PID.TID 0000.0001)                       cg3d_iters =    10
(PID.TID 0000.0001)                         cg3d_res =    2.41132151696775E-01
(PID.TID 0000.0001) // =======================================================
(PID.TID 0000.0001) // Begin MONITOR dynamic field statistics
(PID.TID 0000.0001) // =======================================================
(PID.TID 0000.0001) %MON time_tsnumber                =                    20
(PID.TID 0000.0001) %MON time_secondsf                =   2.0000000000000E+00
(PID.TID 0000.0001) %MON dynstat_eta_max              =   9.2369675828588E-08
(PID.TID 0000.0001) %MON dynstat_eta_min              =  -1.4777088883831E-06
(PID.TID 0000.0001) %MON dynstat_eta_mean             =   5.3256361221544E-08
(PID.TID 0000.0001) %MON dynstat_eta_sd               =   2.1994586874020E-07
(PID.TID 0000.0001) %MON dynstat_eta_del2             =   3.7221250213547E-08
(PID.TID 0000.0001) %MON dynstat_uvel_max             =   3.2111883126047E-05
(PID.TID 0000.0001) %MON dynstat_uvel_min             =  -3.2302311418724E-05
(PID.TID 0000.0001) %MON dynstat_uvel_mean            =   9.7224014511444E-11
(PID.TID 0000.0001) %MON dynstat_uvel_sd              =   3.2431790969971E-06
(PID.TID 0000.0001) %MON dynstat_uvel_del2            =   2.2441838247941E-07
(PID.TID 0000.0001) %MON dynstat_vvel_max             =   1.2303700041075E-04
(PID.TID 0000.0001) %MON dynstat_vvel_min             =  -1.2518519131764E-04
(PID.TID 0000.0001) %MON dynstat_vvel_mean            =  -1.9729561916514E-17
(PID.TID 0000.0001) %MON dynstat_vvel_sd              =   1.0053214895384E-05
(PID.TID 0000.0001) %MON dynstat_vvel_del2            =   3.6971519030549E-07
(PID.TID 0000.0001) %MON dynstat_wvel_max             =   3.7453378444195E-05
(PID.TID 0000.0001) %MON dynstat_wvel_min             =  -2.0708665916919E-04
(PID.TID 0000.0001) %MON dynstat_wvel_mean            =   2.1900886075543E-21
(PID.TID 0000.0001) %MON dynstat_wvel_sd              =   2.4292484191306E-05
(PID.TID 0000.0001) %MON dynstat_wvel_del2            =   6.0502553908787E-06
(PID.TID 0000.0001) %MON dynstat_theta_max            =   2.0000960106176E+01
(PID.TID 0000.0001) %MON dynstat_theta_min            =   1.9890142345055E+01
(PID.TID 0000.0001) %MON dynstat_theta_mean           =   1.9998215567254E+01
(PID.TID 0000.0001) %MON dynstat_theta_sd             =   1.5476303785783E-02
(PID.TID 0000.0001) %MON dynstat_theta_del2           =   2.6122496455207E-03
(PID.TID 0000.0001) %MON dynstat_salt_max             =   3.5000000000000E+01
(PID.TID 0000.0001) %MON dynstat_salt_min             =   3.5000000000000E+01
(PID.TID 0000.0001) %MON dynstat_salt_mean            =   3.4999999999986E+01
(PID.TID 0000.0001) %MON dynstat_salt_sd              =   1.4040324458618E-11
(PID.TID 0000.0001) %MON dynstat_salt_del2            =   0.0000000000000E+00
(PID.TID 0000.0001) %MON advcfl_uvel_max              =   6.4939863607374E-04
(PID.TID 0000.0001) %MON advcfl_vvel_max              =   1.2518519131764E-03
(PID.TID 0000.0001) %MON advcfl_wvel_max              =   4.1417331833839E-03
(PID.TID 0000.0001) %MON advcfl_W_hf_max              =   4.1417331833839E-03
(PID.TID 0000.0001) %MON pe_b_mean                    =   1.7323927278582E-12
(PID.TID 0000.0001) %MON ke_max                       =   5.2952472501309E-09
(PID.TID 0000.0001) %MON ke_mean                      =   5.3495689977493E-11
(PID.TID 0000.0001) %MON ke_vol                       =   3.8082386146826E-02
(PID.TID 0000.0001) %MON vort_r_min                   =  -2.3234015481730E-03
(PID.TID 0000.0001) %MON vort_r_max                   =   2.3626535558090E-03
(PID.TID 0000.0001) %MON vort_a_mean                  =   5.0000000000220E-01
(PID.TID 0000.0001) %MON vort_a_sd                    =   1.4856847048443E-04
(PID.TID 0000.0001) %MON vort_p_mean                  =   5.3488372093259E-01
(PID.TID 0000.0001) %MON vort_p_sd                    =   2.2607266780502E-01
(PID.TID 0000.0001) %MON surfExpan_theta_mean         =   0.0000000000000E+00
(PID.TID 0000.0001) %MON surfExpan_salt_mean          =   0.0000000000000E+00
(PID.TID 0000.0001) // =======================================================
(PID.TID 0000.0001) // End MONITOR dynamic field statistics
(PID.TID 0000.0001) // =======================================================
(PID.TID 0000.0001)   Seconds in section "ALL                    [THE_MODEL_MAIN]":
(PID.TID 0000.0001)           User time:  40.0439114
(PID.TID 0000.0001)         System time:  0.408937998
(PID.TID 0000.0001)     Wall clock time:  60.6610529
(PID.TID 0000.0001)          No. starts: 1
(PID.TID 0000.0001)           No. stops: 1
(PID.TID 0000.0001)   Seconds in section "INITIALISE_FIXED       [THE_MODEL_MAIN]":
(PID.TID 0000.0001)           User time:  1.56876204
(PID.TID 0000.0001)         System time:  0.128980004
(PID.TID 0000.0001)     Wall clock time:  3.27002287
(PID.TID 0000.0001)          No. starts: 1
(PID.TID 0000.0001)           No. stops: 1
(PID.TID 0000.0001)   Seconds in section "THE_MAIN_LOOP          [THE_MODEL_MAIN]":
(PID.TID 0000.0001)           User time:  38.4741499
(PID.TID 0000.0001)         System time:  0.279957995
(PID.TID 0000.0001)     Wall clock time:  57.390821
(PID.TID 0000.0001)          No. starts: 1
(PID.TID 0000.0001)           No. stops: 1
(PID.TID 0000.0001)   Seconds in section "INITIALISE_VARIA    [THE_MAIN_LOOP]":
(PID.TID 0000.0001)           User time:  0.124980927
(PID.TID 0000.0001)         System time:  0.0389949977
(PID.TID 0000.0001)     Wall clock time:  0.692363977
(PID.TID 0000.0001)          No. starts: 1
(PID.TID 0000.0001)           No. stops: 1
(PID.TID 0000.0001)   Seconds in section "MAIN LOOP           [THE_MAIN_LOOP]":
(PID.TID 0000.0001)           User time:  38.0222189
(PID.TID 0000.0001)         System time:  0.196970001
(PID.TID 0000.0001)     Wall clock time:  55.9349229
(PID.TID 0000.0001)          No. starts: 1
(PID.TID 0000.0001)           No. stops: 1
(PID.TID 0000.0001)   Seconds in section "FORWARD_STEP        [THE_MAIN_LOOP]":
(PID.TID 0000.0001)           User time:  38.0222189
(PID.TID 0000.0001)         System time:  0.196970001
(PID.TID 0000.0001)     Wall clock time:  55.9340942
(PID.TID 0000.0001)          No. starts: 20
(PID.TID 0000.0001)           No. stops: 20
(PID.TID 0000.0001)   Seconds in section "LOAD_FIELDS_DRIVER  [FORWARD_STEP]":
(PID.TID 0000.0001)           User time:  0.00699472427
(PID.TID 0000.0001)         System time:  0.
(PID.TID 0000.0001)     Wall clock time:  0.0133652687
(PID.TID 0000.0001)          No. starts: 20
(PID.TID 0000.0001)           No. stops: 20
(PID.TID 0000.0001)   Seconds in section "EXTERNAL_FLDS_LOAD [LOAD_FLDS_DRIVER]":
(PID.TID 0000.0001)           User time:  0.00399637222
(PID.TID 0000.0001)         System time:  0.
(PID.TID 0000.0001)     Wall clock time:  0.0117366314
(PID.TID 0000.0001)          No. starts: 20
(PID.TID 0000.0001)           No. stops: 20
(PID.TID 0000.0001)   Seconds in section "DO_ATMOSPHERIC_PHYS [FORWARD_STEP]":
(PID.TID 0000.0001)           User time:  0.
(PID.TID 0000.0001)         System time:  0.
(PID.TID 0000.0001)     Wall clock time:  0.000783205032
(PID.TID 0000.0001)          No. starts: 20
(PID.TID 0000.0001)           No. stops: 20
(PID.TID 0000.0001)   Seconds in section "DO_OCEANIC_PHYS     [FORWARD_STEP]":
(PID.TID 0000.0001)           User time:  0.156976223
(PID.TID 0000.0001)         System time:  0.00599898398
(PID.TID 0000.0001)     Wall clock time:  0.25399828
(PID.TID 0000.0001)          No. starts: 20
(PID.TID 0000.0001)           No. stops: 20
(PID.TID 0000.0001)   Seconds in section "THERMODYNAMICS      [FORWARD_STEP]":
(PID.TID 0000.0001)           User time:  4.89625144
(PID.TID 0000.0001)         System time:  0.00500001013
(PID.TID 0000.0001)     Wall clock time:  7.14730263
(PID.TID 0000.0001)          No. starts: 20
(PID.TID 0000.0001)           No. stops: 20
(PID.TID 0000.0001)   Seconds in section "DYNAMICS            [FORWARD_STEP]":
(PID.TID 0000.0001)           User time:  11.5902488
(PID.TID 0000.0001)         System time:  0.0259979963
(PID.TID 0000.0001)     Wall clock time:  17.2335365
(PID.TID 0000.0001)          No. starts: 20
(PID.TID 0000.0001)           No. stops: 20
(PID.TID 0000.0001)   Seconds in section "CALC_GW          [DYNAMICS]":
(PID.TID 0000.0001)           User time:  3.0545435
(PID.TID 0000.0001)         System time:  0.00599999726
(PID.TID 0000.0001)     Wall clock time:  4.65076828
(PID.TID 0000.0001)          No. starts: 20
(PID.TID 0000.0001)           No. stops: 20
(PID.TID 0000.0001)   Seconds in section "SOLVE_FOR_PRESSURE  [FORWARD_STEP]":
(PID.TID 0000.0001)           User time:  15.7356031
(PID.TID 0000.0001)         System time:  0.0199960321
(PID.TID 0000.0001)     Wall clock time:  22.6996243
(PID.TID 0000.0001)          No. starts: 20
(PID.TID 0000.0001)           No. stops: 20
(PID.TID 0000.0001)   Seconds in section "CG3D   [SOLVE_FOR_PRESSURE]":
(PID.TID 0000.0001)           User time:  13.1040063
(PID.TID 0000.0001)         System time:  0.0149990171
(PID.TID 0000.0001)     Wall clock time:  18.6020155
(PID.TID 0000.0001)          No. starts: 20
(PID.TID 0000.0001)           No. stops: 20
(PID.TID 0000.0001)   Seconds in section "MOM_CORRECTION_STEP [FORWARD_STEP]":
(PID.TID 0000.0001)           User time:  0.691892624
(PID.TID 0000.0001)         System time:  0.
(PID.TID 0000.0001)     Wall clock time:  0.963621855
(PID.TID 0000.0001)          No. starts: 20
(PID.TID 0000.0001)           No. stops: 20
(PID.TID 0000.0001)   Seconds in section "TRC_CORRECTION_STEP [FORWARD_STEP]":
(PID.TID 0000.0001)           User time:  0.134981632
(PID.TID 0000.0001)         System time:  0.
(PID.TID 0000.0001)     Wall clock time:  0.239370584
(PID.TID 0000.0001)          No. starts: 20
(PID.TID 0000.0001)           No. stops: 20
(PID.TID 0000.0001)   Seconds in section "BLOCKING_EXCHANGES  [FORWARD_STEP]":
(PID.TID 0000.0001)           User time:  0.197965384
(PID.TID 0000.0001)         System time:  0.000999987125
(PID.TID 0000.0001)     Wall clock time:  0.200778723
(PID.TID 0000.0001)          No. starts: 20
(PID.TID 0000.0001)           No. stops: 20
(PID.TID 0000.0001)   Seconds in section "DO_STATEVARS_TAVE   [FORWARD_STEP]":
(PID.TID 0000.0001)           User time:  0.00100040436
(PID.TID 0000.0001)         System time:  0.
(PID.TID 0000.0001)     Wall clock time:  0.000719308853
(PID.TID 0000.0001)          No. starts: 20
(PID.TID 0000.0001)           No. stops: 20
(PID.TID 0000.0001)   Seconds in section "MONITOR             [FORWARD_STEP]":
(PID.TID 0000.0001)           User time:  4.07638001
(PID.TID 0000.0001)         System time:  0.0029989779
(PID.TID 0000.0001)     Wall clock time:  5.87869883
(PID.TID 0000.0001)          No. starts: 20
(PID.TID 0000.0001)           No. stops: 20
(PID.TID 0000.0001)   Seconds in section "DO_THE_MODEL_IO     [FORWARD_STEP]":
(PID.TID 0000.0001)           User time:  0.135978699
(PID.TID 0000.0001)         System time:  0.0189970136
(PID.TID 0000.0001)     Wall clock time:  0.158964634
(PID.TID 0000.0001)          No. starts: 20
(PID.TID 0000.0001)           No. stops: 20
(PID.TID 0000.0001)   Seconds in section "WRITE_CHECKPOINT    [FORWARD_STEP]":
(PID.TID 0000.0001)           User time:  0.386940002
(PID.TID 0000.0001)         System time:  0.112982988
(PID.TID 0000.0001)     Wall clock time:  1.1170094
(PID.TID 0000.0001)          No. starts: 20
(PID.TID 0000.0001)           No. stops: 20
(PID.TID 0000.0001)   Seconds in section "WRITE_CHECKPOINT       [THE_MODEL_MAIN]":
(PID.TID 0000.0001)           User time:  0.
(PID.TID 0000.0001)         System time:  0.
(PID.TID 0000.0001)     Wall clock time:  3.60012054E-05
(PID.TID 0000.0001)          No. starts: 1
(PID.TID 0000.0001)           No. stops: 1
(PID.TID 0000.0001) // ======================================================
(PID.TID 0000.0001) // Tile <-> Tile communication statistics
(PID.TID 0000.0001) // ======================================================
(PID.TID 0000.0001) // o Tile number: 000001
(PID.TID 0000.0001) //         No. X exchanges =              0
(PID.TID 0000.0001) //            Max. X spins =              0
(PID.TID 0000.0001) //            Min. X spins =     1000000000
(PID.TID 0000.0001) //          Total. X spins =              0
(PID.TID 0000.0001) //            Avg. X spins =       0.00E+00
(PID.TID 0000.0001) //         No. Y exchanges =              0
(PID.TID 0000.0001) //            Max. Y spins =              0
(PID.TID 0000.0001) //            Min. Y spins =     1000000000
(PID.TID 0000.0001) //          Total. Y spins =              0
(PID.TID 0000.0001) //            Avg. Y spins =       0.00E+00
(PID.TID 0000.0001) // o Thread number: 000001
(PID.TID 0000.0001) //            No. barriers =          20122
(PID.TID 0000.0001) //      Max. barrier spins =              1
(PID.TID 0000.0001) //      Min. barrier spins =              1
(PID.TID 0000.0001) //     Total barrier spins =          20122
(PID.TID 0000.0001) //      Avg. barrier spins =       1.00E+00
