(PID.TID 0000.0001) 
(PID.TID 0000.0001) // ======================================================
(PID.TID 0000.0001) //                      MITgcm UV
(PID.TID 0000.0001) //                      =========
(PID.TID 0000.0001) // ======================================================
(PID.TID 0000.0001) // execution environment starting up...
(PID.TID 0000.0001) 
(PID.TID 0000.0001) 
(PID.TID 0000.0001) // =======================================================
(PID.TID 0000.0001) // Execution Environment parameter file "eedata"
(PID.TID 0000.0001) // =======================================================
(PID.TID 0000.0001) ># Example "eedata" file
(PID.TID 0000.0001) ># Lines beginning "#" are comments
(PID.TID 0000.0001) ># nTx - No. threads per process in X
(PID.TID 0000.0001) ># nTy - No. threads per process in Y
(PID.TID 0000.0001) > &EEPARMS
(PID.TID 0000.0001) > &
(PID.TID 0000.0001) ># Note: Some systems use & as the
(PID.TID 0000.0001) ># namelist terminator. Other systems
(PID.TID 0000.0001) ># use a / character (as shown here).
(PID.TID 0000.0001) 
(PID.TID 0000.0001) // =======================================================
(PID.TID 0000.0001) // Computational Grid Specification ( see files "SIZE.h" )
(PID.TID 0000.0001) //                                  ( and "eedata"       )
(PID.TID 0000.0001) // =======================================================
(PID.TID 0000.0001)      nPx =    1 ; /* No. processes in X */
(PID.TID 0000.0001)      nPy =    1 ; /* No. processes in Y */
(PID.TID 0000.0001)      nSx =    1 ; /* No. tiles in X per process */
(PID.TID 0000.0001)      nSy =    1 ; /* No. tiles in Y per process */
(PID.TID 0000.0001)      sNx =  120 ; /* Tile size in X */
(PID.TID 0000.0001)      sNy =   31 ; /* Tile size in Y */
(PID.TID 0000.0001)      OLx =    3 ; /* Tile overlap distance in X */
(PID.TID 0000.0001)      OLy =    3 ; /* Tile overlap distance in Y */
(PID.TID 0000.0001)      nTx =    1 ; /* No. threads in X per process */
(PID.TID 0000.0001)      nTy =    1 ; /* No. threads in Y per process */
(PID.TID 0000.0001)       Nr =   29 ; /* No. levels in the vertical   */
(PID.TID 0000.0001)       nX =  120 ; /* Total domain size in X ( = nPx*nSx*sNx ) */
(PID.TID 0000.0001)       nY =   31 ; /* Total domain size in Y ( = nPy*nSy*sNy ) */
(PID.TID 0000.0001)   nTiles =    1 ; /* Total no. tiles per process ( = nSx*nSy ) */
(PID.TID 0000.0001)   nProcs =    1 ; /* Total no. processes ( = nPx*nPy ) */
(PID.TID 0000.0001) nThreads =    1 ; /* Total no. threads per process ( = nTx*nTy ) */
(PID.TID 0000.0001) usingMPI =    F ; /* Flag used to control whether MPI is in use */
(PID.TID 0000.0001)                   /*  note: To execute a program with MPI calls */
(PID.TID 0000.0001)                   /*  it must be launched appropriately e.g     */
(PID.TID 0000.0001)                   /*  "mpirun -np 64 ......"                    */
(PID.TID 0000.0001) useCoupler=   F ; /* Flag used to control communications with */
(PID.TID 0000.0001)                   /*  other model components, through a coupler */
(PID.TID 0000.0001) 
(PID.TID 0000.0001) // ======================================================
(PID.TID 0000.0001) // Mapping of tiles to threads
(PID.TID 0000.0001) // ======================================================
(PID.TID 0000.0001) // -o- Thread   1, tiles (   1:   1,   1:   1)
(PID.TID 0000.0001) 
(PID.TID 0000.0001) // ======================================================
(PID.TID 0000.0001) // Tile <-> Tile connectvity table
(PID.TID 0000.0001) // ======================================================
(PID.TID 0000.0001) // Tile number: 000001 (process no. = 000001)
(PID.TID 0000.0001) //        WEST: Tile = 000001, Process = 000001, Comm = put
(PID.TID 0000.0001) //                bi = 000001, bj = 000001
(PID.TID 0000.0001) //        EAST: Tile = 000001, Process = 000001, Comm = put
(PID.TID 0000.0001) //                bi = 000001, bj = 000001
(PID.TID 0000.0001) //       SOUTH: Tile = 000001, Process = 000001, Comm = put
(PID.TID 0000.0001) //                bi = 000001, bj = 000001
(PID.TID 0000.0001) //       NORTH: Tile = 000001, Process = 000001, Comm = put
(PID.TID 0000.0001) //                bi = 000001, bj = 000001
(PID.TID 0000.0001) 
(PID.TID 0000.0001) // =======================================================
(PID.TID 0000.0001) // Model parameter file "data"
(PID.TID 0000.0001) // =======================================================
(PID.TID 0000.0001) ># ====================
(PID.TID 0000.0001) ># | Model parameters |
(PID.TID 0000.0001) ># ====================
(PID.TID 0000.0001) >#
(PID.TID 0000.0001) ># Continuous equation parameters
(PID.TID 0000.0001) > &PARM01
(PID.TID 0000.0001) > tRef=29*20.0,
(PID.TID 0000.0001) > sRef=29*35.0,
(PID.TID 0000.0001) > viscAh=5.0E-6,
(PID.TID 0000.0001) > viscAz=5.0E-6,
(PID.TID 0000.0001) > no_slip_sides=.FALSE.,
(PID.TID 0000.0001) > no_slip_bottom=.FALSE.,
(PID.TID 0000.0001) > diffKhT=2.5E-6,
(PID.TID 0000.0001) > diffKzT=2.5E-6,
(PID.TID 0000.0001) > diffKhS=1.0E-6,
(PID.TID 0000.0001) > diffKzS=1.0E-6,
(PID.TID 0000.0001) > f0=0.5,
(PID.TID 0000.0001) > sBeta =0.,
(PID.TID 0000.0001) > gravity=9.81,
(PID.TID 0000.0001) > rhoConst=1000.0,
(PID.TID 0000.0001) > rhoNil=1000.0,
(PID.TID 0000.0001) ># heatCapacity_Cp=3900.0,
(PID.TID 0000.0001) > rigidLid=.TRUE.,
(PID.TID 0000.0001) > implicitFreeSurface=.FALSE.,
(PID.TID 0000.0001) > eosType='LINEAR',
(PID.TID 0000.0001) > nonHydrostatic=.TRUE.,
(PID.TID 0000.0001) > readBinaryPrec=32,
(PID.TID 0000.0001) > &
(PID.TID 0000.0001) >
(PID.TID 0000.0001) ># Elliptic solver parameters
(PID.TID 0000.0001) > &PARM02
(PID.TID 0000.0001) > cg2dMaxIters=1000,
(PID.TID 0000.0001) > cg2dTargetResidual=1.E-7,
(PID.TID 0000.0001) > cg3dMaxIters=10,
(PID.TID 0000.0001) > cg3dTargetResidual=1.E-9,
(PID.TID 0000.0001) > &
(PID.TID 0000.0001) >
(PID.TID 0000.0001) ># Time stepping parameters
(PID.TID 0000.0001) > &PARM03
(PID.TID 0000.0001) > nIter0=0,
(PID.TID 0000.0001) > nTimeSteps=20,
(PID.TID 0000.0001) ># nTimeSteps=36000000,
(PID.TID 0000.0001) > deltaT=0.1,
(PID.TID 0000.0001) > abEps=0.1,
(PID.TID 0000.0001) > pChkptFreq=1.0,
(PID.TID 0000.0001) > chkptFreq=1.0,
(PID.TID 0000.0001) > dumpFreq=1.0,
(PID.TID 0000.0001) > monitorFreq=0.1,
(PID.TID 0000.0001) > outputTypesInclusive=.TRUE.,
(PID.TID 0000.0001) > &
(PID.TID 0000.0001) >
(PID.TID 0000.0001) ># Gridding parameters
(PID.TID 0000.0001) > &PARM04
(PID.TID 0000.0001) > usingCartesianGrid=.FALSE.,
(PID.TID 0000.0001) > usingCylindricalGrid=.TRUE.,
(PID.TID 0000.0001) > usingCurvilinearGrid=.FALSE.,
(PID.TID 0000.0001) > dXspacing=3,
(PID.TID 0000.0001) > dYspacing=0.01,
(PID.TID 0000.0001) > delZ=29*0.005,
(PID.TID 0000.0001) > &
(PID.TID 0000.0001) >
(PID.TID 0000.0001) ># Input datasets
(PID.TID 0000.0001) > &PARM05
(PID.TID 0000.0001) > hydrogThetaFile='thetaPol.bin',
(PID.TID 0000.0001) > bathyFile='bathyPol.bin',
(PID.TID 0000.0001) > tCylIn  = 0
(PID.TID 0000.0001) > tCylOut  = 20
(PID.TID 0000.0001) > &
(PID.TID 0000.0001) 
(PID.TID 0000.0001) S/R INI_PARMS ; starts to read PARM01
(PID.TID 0000.0001) S/R INI_PARMS ; read PARM01 : OK
(PID.TID 0000.0001) S/R INI_PARMS ; starts to read PARM02
(PID.TID 0000.0001) S/R INI_PARMS ; read PARM02 : OK
(PID.TID 0000.0001) S/R INI_PARMS ; starts to read PARM03
(PID.TID 0000.0001) S/R INI_PARMS ; read PARM03 : OK
(PID.TID 0000.0001) S/R INI_PARMS ; starts to read PARM04
(PID.TID 0000.0001) S/R INI_PARMS ; read PARM04 : OK
(PID.TID 0000.0001) S/R INI_PARMS ; Cylinder OK
(PID.TID 0000.0001) S/R INI_PARMS ; starts to read PARM05
(PID.TID 0000.0001) S/R INI_PARMS ; read PARM05 : OK
(PID.TID 0000.0001)  PACKAGES_BOOT: opening data.pkg
(PID.TID 0000.0001)  OPEN_COPY_DATA_FILE: opening file data.pkg
(PID.TID 0000.0001) // =======================================================
(PID.TID 0000.0001) // Parameter file "data.pkg"
(PID.TID 0000.0001) // =======================================================
(PID.TID 0000.0001) ># Packages
(PID.TID 0000.0001) > &PACKAGES
(PID.TID 0000.0001) > useMNC=.TRUE.,
(PID.TID 0000.0001) > &
(PID.TID 0000.0001) 
(PID.TID 0000.0001)  PACKAGES_BOOT: finished reading data.pkg
(PID.TID 0000.0001)  MNC_READPARMS: opening file 'data.mnc'
(PID.TID 0000.0001) // =======================================================
(PID.TID 0000.0001) // Parameter file "data.mnc"
(PID.TID 0000.0001) // =======================================================
(PID.TID 0000.0001) ># Example "data.mnc" file
(PID.TID 0000.0001) ># Lines beginning "#" are comments
(PID.TID 0000.0001) > &MNC_01
(PID.TID 0000.0001) ># mnc_echo_gvtypes=.FALSE.,
(PID.TID 0000.0001) ># mnc_use_indir=.FALSE.,
(PID.TID 0000.0001) > mnc_use_outdir=.TRUE.,
(PID.TID 0000.0001) > mnc_outdir_str='mnc_test_',
(PID.TID 0000.0001) > mnc_outdir_date=.TRUE.,
(PID.TID 0000.0001) ># monitor_mnc=.FALSE.,
(PID.TID 0000.0001) > snapshot_mnc=.TRUE.,
(PID.TID 0000.0001) > timeave_mnc=.TRUE.,
(PID.TID 0000.0001) >#pickup_write_mnc=.TRUE.,
(PID.TID 0000.0001) > &
(PID.TID 0000.0001) ># Note: Some systems use & as the
(PID.TID 0000.0001) ># namelist terminator. Other systems
(PID.TID 0000.0001) ># use a / character.
(PID.TID 0000.0001) 
(PID.TID 0000.0001)  MNC_READPARMS: finished reading data.mnc
(PID.TID 0000.0001) %MON XC_max                       =   3.5850000000000E+02
(PID.TID 0000.0001) %MON XC_min                       =   1.5000000000000E+00
(PID.TID 0000.0001) %MON XC_mean                      =   1.8000000000000E+02
(PID.TID 0000.0001) %MON XC_sd                        =   1.0391943995230E+02
(PID.TID 0000.0001) %MON XG_max                       =   3.5700000000000E+02
(PID.TID 0000.0001) %MON XG_min                       =   3.0000000000000E+00
(PID.TID 0000.0001) %MON XG_mean                      =   1.8000000000000E+02
(PID.TID 0000.0001) %MON XG_sd                        =   1.0305338422391E+02
(PID.TID 0000.0001) %MON DXC_max                      =   1.5969762655748E-02
(PID.TID 0000.0001) %MON DXC_min                      =   2.6179938779915E-04
(PID.TID 0000.0001) %MON DXC_mean                     =   8.1157810217737E-03
(PID.TID 0000.0001) %MON DXC_sd                       =   4.6832098206938E-03
(PID.TID 0000.0001) %MON DXF_max                      =   1.5969762655748E-02
(PID.TID 0000.0001) %MON DXF_min                      =   2.6179938779915E-04
(PID.TID 0000.0001) %MON DXF_mean                     =   8.1157810217737E-03
(PID.TID 0000.0001) %MON DXF_sd                       =   4.6832098206938E-03
(PID.TID 0000.0001) %MON DXG_max                      =   1.5707963267949E-02
(PID.TID 0000.0001) %MON DXG_min                      =   1.8165981760462E-19
(PID.TID 0000.0001) %MON DXG_mean                     =   7.8539816339745E-03
(PID.TID 0000.0001) %MON DXG_sd                       =   4.6832098206938E-03
(PID.TID 0000.0001) %MON DXV_max                      =   1.5707963267949E-02
(PID.TID 0000.0001) %MON DXV_min                      =   1.8165981760462E-19
(PID.TID 0000.0001) %MON DXV_mean                     =   7.8539816339745E-03
(PID.TID 0000.0001) %MON DXV_sd                       =   4.6832098206938E-03
(PID.TID 0000.0001) %MON YC_max                       =   3.0500000000000E-01
(PID.TID 0000.0001) %MON YC_min                       =   5.0000000000000E-03
(PID.TID 0000.0001) %MON YC_mean                      =   1.5500000000000E-01
(PID.TID 0000.0001) %MON YC_sd                        =   8.9442719099991E-02
(PID.TID 0000.0001) %MON YG_max                       =   3.0000000000000E-01
(PID.TID 0000.0001) %MON YG_min                       =   3.4694469519536E-18
(PID.TID 0000.0001) %MON YG_mean                      =   1.5000000000000E-01
(PID.TID 0000.0001) %MON YG_sd                        =   8.9442719099991E-02
(PID.TID 0000.0001) %MON DYC_max                      =   1.0000000000000E-02
(PID.TID 0000.0001) %MON DYC_min                      =   1.0000000000000E-02
(PID.TID 0000.0001) %MON DYC_mean                     =   1.0000000000000E-02
(PID.TID 0000.0001) %MON DYC_sd                       =   3.1398494915180E-16
(PID.TID 0000.0001) %MON DYF_max                      =   1.0000000000000E-02
(PID.TID 0000.0001) %MON DYF_min                      =   1.0000000000000E-02
(PID.TID 0000.0001) %MON DYF_mean                     =   1.0000000000000E-02
(PID.TID 0000.0001) %MON DYF_sd                       =   3.1398494915180E-16
(PID.TID 0000.0001) %MON DYG_max                      =   1.0000000000000E-02
(PID.TID 0000.0001) %MON DYG_min                      =   1.0000000000000E-02
(PID.TID 0000.0001) %MON DYG_mean                     =   1.0000000000000E-02
(PID.TID 0000.0001) %MON DYG_sd                       =   3.1398494915180E-16
(PID.TID 0000.0001) %MON DYU_max                      =   1.0000000000000E-02
(PID.TID 0000.0001) %MON DYU_min                      =   1.0000000000000E-02
(PID.TID 0000.0001) %MON DYU_mean                     =   1.0000000000000E-02
(PID.TID 0000.0001) %MON DYU_sd                       =   3.1398494915180E-16
(PID.TID 0000.0001) %MON RA_max                       =   1.5969762655748E-04
(PID.TID 0000.0001) %MON RA_min                       =   2.6179938779915E-06
(PID.TID 0000.0001) %MON RA_mean                      =   8.1157810217737E-05
(PID.TID 0000.0001) %MON RA_sd                        =   4.6832098206938E-05
(PID.TID 0000.0001) %MON RAW_max                      =   1.5969762655748E-04
(PID.TID 0000.0001) %MON RAW_min                      =   2.6179938779915E-06
(PID.TID 0000.0001) %MON RAW_mean                     =   8.1157810217737E-05
(PID.TID 0000.0001) %MON RAW_sd                       =   4.6832098206938E-05
(PID.TID 0000.0001) %MON RAS_max                      =   1.5707963267949E-04
(PID.TID 0000.0001) %MON RAS_min                      =   1.8165981760462E-21
(PID.TID 0000.0001) %MON RAS_mean                     =   7.8539816339742E-05
(PID.TID 0000.0001) %MON RAS_sd                       =   4.6832098206938E-05
(PID.TID 0000.0001) %MON RAZ_max                      =   1.5707963267949E-04
(PID.TID 0000.0001) %MON RAZ_min                      =   1.8165981760462E-21
(PID.TID 0000.0001) %MON RAZ_mean                     =   7.8539816339742E-05
(PID.TID 0000.0001) %MON RAZ_sd                       =   4.6832098206938E-05
(PID.TID 0000.0001)  MDSREADFIELD: opening global file: bathyPol.bin
(PID.TID 0000.0001) // =======================================================
(PID.TID 0000.0001) // Field Model R_low (ini_masks_etc) at iteration          1
(PID.TID 0000.0001) // CMIN =         -1.450000000000000E-01
(PID.TID 0000.0001) // CMAX =         -1.450000000000000E-01
(PID.TID 0000.0001) // CINT =          0.000000000000000E+00
(PID.TID 0000.0001) // SYMBOLS (CMIN->CMAX): -abcdefghijklmnopqrstuvwxyz+
(PID.TID 0000.0001) //                  0.0: .
(PID.TID 0000.0001) // RANGE I (Lo:Hi:Step):(  -2: 123:   1)
(PID.TID 0000.0001) // RANGE J (Lo:Hi:Step):(  34:  -2:  -1)
(PID.TID 0000.0001) // RANGE K (Lo:Hi:Step):(   1:   1:   1)
(PID.TID 0000.0001) // =======================================================
(PID.TID 0000.0001) // =======================================================
(PID.TID 0000.0001) // END OF FIELD                                          =
(PID.TID 0000.0001) // =======================================================
(PID.TID 0000.0001) 
(PID.TID 0000.0001) // =======================================================
(PID.TID 0000.0001) // Field Model Ro_surf (ini_masks_etc) at iteration          1
(PID.TID 0000.0001) // CMIN =          1.561251128379126E-17
(PID.TID 0000.0001) // CMAX =          1.561251128379126E-17
(PID.TID 0000.0001) // CINT =          0.000000000000000E+00
(PID.TID 0000.0001) // SYMBOLS (CMIN->CMAX): -abcdefghijklmnopqrstuvwxyz+
(PID.TID 0000.0001) //                  0.0: .
(PID.TID 0000.0001) // RANGE I (Lo:Hi:Step):(  -2: 123:   1)
(PID.TID 0000.0001) // RANGE J (Lo:Hi:Step):(  34:  -2:  -1)
(PID.TID 0000.0001) // RANGE K (Lo:Hi:Step):(   1:   1:   1)
(PID.TID 0000.0001) // =======================================================
(PID.TID 0000.0001) // =======================================================
(PID.TID 0000.0001) // END OF FIELD                                          =
(PID.TID 0000.0001) // =======================================================
(PID.TID 0000.0001) 
(PID.TID 0000.0001) // =======================================================
(PID.TID 0000.0001) // Field hFacC at iteration          1
(PID.TID 0000.0001) // CMIN =          1.000000000000000E+00
(PID.TID 0000.0001) // CMAX =          1.000000000000000E+00
(PID.TID 0000.0001) // CINT =          0.000000000000000E+00
(PID.TID 0000.0001) // SYMBOLS (CMIN->CMAX): -abcdefghijklmnopqrstuvwxyz+
(PID.TID 0000.0001) //                  0.0: .
(PID.TID 0000.0001) // RANGE I (Lo:Hi:Step):(  -2: 123:   1)
(PID.TID 0000.0001) // RANGE J (Lo:Hi:Step):(  34:  -2:  -1)
(PID.TID 0000.0001) // RANGE K (Lo:Hi:Step):(   1:   1:   1)
(PID.TID 0000.0001) // =======================================================
(PID.TID 0000.0001) // =======================================================
(PID.TID 0000.0001) // END OF FIELD                                          =
(PID.TID 0000.0001) // =======================================================
(PID.TID 0000.0001) 
(PID.TID 0000.0001) // =======================================================
(PID.TID 0000.0001) // Field hFacW at iteration          1
(PID.TID 0000.0001) // CMIN =          1.000000000000000E+00
(PID.TID 0000.0001) // CMAX =          1.000000000000000E+00
(PID.TID 0000.0001) // CINT =          0.000000000000000E+00
(PID.TID 0000.0001) // SYMBOLS (CMIN->CMAX): -abcdefghijklmnopqrstuvwxyz+
(PID.TID 0000.0001) //                  0.0: .
(PID.TID 0000.0001) // RANGE I (Lo:Hi:Step):(  -2: 123:   1)
(PID.TID 0000.0001) // RANGE J (Lo:Hi:Step):(  34:  -2:  -1)
(PID.TID 0000.0001) // RANGE K (Lo:Hi:Step):(   1:   1:   1)
(PID.TID 0000.0001) // =======================================================
(PID.TID 0000.0001) // =======================================================
(PID.TID 0000.0001) // END OF FIELD                                          =
(PID.TID 0000.0001) // =======================================================
(PID.TID 0000.0001) 
(PID.TID 0000.0001) // =======================================================
(PID.TID 0000.0001) // Field hFacS at iteration          1
(PID.TID 0000.0001) // CMIN =          1.000000000000000E+00
(PID.TID 0000.0001) // CMAX =          1.000000000000000E+00
(PID.TID 0000.0001) // CINT =          0.000000000000000E+00
(PID.TID 0000.0001) // SYMBOLS (CMIN->CMAX): -abcdefghijklmnopqrstuvwxyz+
(PID.TID 0000.0001) //                  0.0: .
(PID.TID 0000.0001) // RANGE I (Lo:Hi:Step):(  -2: 123:   1)
(PID.TID 0000.0001) // RANGE J (Lo:Hi:Step):(  34:  -2:  -1)
(PID.TID 0000.0001) // RANGE K (Lo:Hi:Step):(   1:   1:   1)
(PID.TID 0000.0001) // =======================================================
(PID.TID 0000.0001) // =======================================================
(PID.TID 0000.0001) // END OF FIELD                                          =
(PID.TID 0000.0001) // =======================================================
(PID.TID 0000.0001) 
(PID.TID 0000.0001) 
(PID.TID 0000.0001) // ===================================
(PID.TID 0000.0001) // GAD parameters :
(PID.TID 0000.0001) // ===================================
(PID.TID 0000.0001) tempAdvScheme =   /* Temp. Horiz.Advection scheme selector */
(PID.TID 0000.0001)                       2
(PID.TID 0000.0001)     ;
(PID.TID 0000.0001) tempVertAdvScheme =   /* Temp. Vert. Advection scheme selector */
(PID.TID 0000.0001)                       2
(PID.TID 0000.0001)     ;
(PID.TID 0000.0001) tempMultiDimAdvec =   /* use Muti-Dim Advec method for Temp */
(PID.TID 0000.0001)                   F
(PID.TID 0000.0001)     ;
(PID.TID 0000.0001) tempAdamsBashforth =   /* use Adams-Bashforth time-stepping for Temp */
(PID.TID 0000.0001)                   T
(PID.TID 0000.0001)     ;
(PID.TID 0000.0001) saltAdvScheme =   /* Salt. Horiz.advection scheme selector */
(PID.TID 0000.0001)                       2
(PID.TID 0000.0001)     ;
(PID.TID 0000.0001) saltVertAdvScheme =   /* Salt. Vert. Advection scheme selector */
(PID.TID 0000.0001)                       2
(PID.TID 0000.0001)     ;
(PID.TID 0000.0001) saltMultiDimAdvec =   /* use Muti-Dim Advec method for Salt */
(PID.TID 0000.0001)                   F
(PID.TID 0000.0001)     ;
(PID.TID 0000.0001) saltAdamsBashforth =   /* use Adams-Bashforth time-stepping for Salt */
(PID.TID 0000.0001)                   T
(PID.TID 0000.0001)     ;
(PID.TID 0000.0001) // ===================================
(PID.TID 0000.0001) %MON fCori_max                    =   5.0000000000305E-01
(PID.TID 0000.0001) %MON fCori_min                    =   5.0000000000005E-01
(PID.TID 0000.0001) %MON fCori_mean                   =   5.0000000000155E-01
(PID.TID 0000.0001) %MON fCori_sd                     =   8.9443053802850E-13
(PID.TID 0000.0001) %MON fCoriG_max                   =   5.0000000000300E-01
(PID.TID 0000.0001) %MON fCoriG_min                   =   5.0000000000000E-01
(PID.TID 0000.0001) %MON fCoriG_mean                  =   5.0000000000150E-01
(PID.TID 0000.0001) %MON fCoriG_sd                    =   8.9443906273474E-13
(PID.TID 0000.0001) %MON fCoriCos_max                 =   0.0000000000000E+00
(PID.TID 0000.0001) %MON fCoriCos_min                 =   0.0000000000000E+00
(PID.TID 0000.0001) %MON fCoriCos_mean                =   0.0000000000000E+00
(PID.TID 0000.0001) %MON fCoriCos_sd                  =   0.0000000000000E+00
(PID.TID 0000.0001) // CG2D normalisation factor =          0.3069372132817614229338687E+01
(PID.TID 0000.0001) 
(PID.TID 0000.0001) // CG3D normalisation factor =          0.3237049690004649704633266E+02
(PID.TID 0000.0001) 
(PID.TID 0000.0001) CONFIG_CHECK: OK
(PID.TID 0000.0001) // =======================================================
(PID.TID 0000.0001) // Model configuration
(PID.TID 0000.0001) // =======================================================
(PID.TID 0000.0001) //
(PID.TID 0000.0001) // "Physical" paramters ( PARM01 in namelist )
(PID.TID 0000.0001) //
(PID.TID 0000.0001) buoyancyRelation = OCEANIC
(PID.TID 0000.0001) fluidIsAir  =  /* fluid major constituent is Air */
(PID.TID 0000.0001)                   F
(PID.TID 0000.0001)     ;
(PID.TID 0000.0001) fluidIsWater=  /* fuild major constituent is Water */
(PID.TID 0000.0001)                   T
(PID.TID 0000.0001)     ;
(PID.TID 0000.0001) usingPCoords =  /* use p (or p*) vertical coordinate */
(PID.TID 0000.0001)                   F
(PID.TID 0000.0001)     ;
(PID.TID 0000.0001) usingZCoords =  /* use z (or z*) vertical coordinate */
(PID.TID 0000.0001)                   T
(PID.TID 0000.0001)     ;
(PID.TID 0000.0001) tRef =   /* Reference temperature profile ( oC or oK ) */
(PID.TID 0000.0001)    29 @  2.000000000000000E+01              /* K =  1: 29 */
(PID.TID 0000.0001)     ;
(PID.TID 0000.0001) sRef =   /* Reference salinity profile ( ppt ) */
(PID.TID 0000.0001)    29 @  3.500000000000000E+01              /* K =  1: 29 */
(PID.TID 0000.0001)     ;
(PID.TID 0000.0001) viscAh =   /* Lateral eddy viscosity ( m^2/s ) */
(PID.TID 0000.0001)                 5.000000000000000E-06
(PID.TID 0000.0001)     ;
(PID.TID 0000.0001) viscAhMax =   /* Maximum lateral eddy viscosity ( m^2/s ) */
(PID.TID 0000.0001)                 1.000000000000000E+21
(PID.TID 0000.0001)     ;
(PID.TID 0000.0001) viscAhGrid =   /* Grid dependent lateral eddy viscosity ( non-dim. ) */
(PID.TID 0000.0001)                 0.000000000000000E+00
(PID.TID 0000.0001)     ;
(PID.TID 0000.0001) useFullLeith =   /* Use Full Form of Leith Viscosity on/off flag*/
(PID.TID 0000.0001)                   F
(PID.TID 0000.0001)     ;
(PID.TID 0000.0001) viscC2leith = /* Leith harmonic viscosity factor (on grad(vort),non-dim.) */
(PID.TID 0000.0001)                 0.000000000000000E+00
(PID.TID 0000.0001)     ;
(PID.TID 0000.0001) viscC2leithD = /* Leith harmonic viscosity factor (on grad(div),non-dim.) */
(PID.TID 0000.0001)                 0.000000000000000E+00
(PID.TID 0000.0001)     ;
(PID.TID 0000.0001) viscC2smag =   /* Smagorinsky harmonic viscosity factor (non-dim.) */
(PID.TID 0000.0001)                 0.000000000000000E+00
(PID.TID 0000.0001)     ;
(PID.TID 0000.0001) viscA4 =   /* Lateral biharmonic viscosity ( m^4/s ) */
(PID.TID 0000.0001)                 0.000000000000000E+00
(PID.TID 0000.0001)     ;
(PID.TID 0000.0001) viscA4Max =   /* Maximum biharmonic viscosity ( m^2/s ) */
(PID.TID 0000.0001)                 1.000000000000000E+21
(PID.TID 0000.0001)     ;
(PID.TID 0000.0001) viscA4Grid =   /* Grid dependent biharmonic viscosity ( non-dim. ) */
(PID.TID 0000.0001)                 0.000000000000000E+00
(PID.TID 0000.0001)     ;
(PID.TID 0000.0001) viscC4leith = /* Leith biharm viscosity factor (on grad(vort), non-dim.) */
(PID.TID 0000.0001)                 0.000000000000000E+00
(PID.TID 0000.0001)     ;
(PID.TID 0000.0001) viscC4leithD = /* Leith biharm viscosity factor (on grad(div), non-dim.) */
(PID.TID 0000.0001)                 0.000000000000000E+00
(PID.TID 0000.0001)     ;
(PID.TID 0000.0001) no_slip_sides =  /* Viscous BCs: No-slip sides */
(PID.TID 0000.0001)                   F
(PID.TID 0000.0001)     ;
(PID.TID 0000.0001) viscAr =   /* Vertical eddy viscosity ( units of r^2/s ) */
(PID.TID 0000.0001)                 5.000000000000000E-06
(PID.TID 0000.0001)     ;
(PID.TID 0000.0001) no_slip_bottom =  /* Viscous BCs: No-slip bottom */
(PID.TID 0000.0001)                   F
(PID.TID 0000.0001)     ;
(PID.TID 0000.0001) diffKhT =   /* Laplacian diffusion of heat laterally ( m^2/s ) */
(PID.TID 0000.0001)                 2.500000000000000E-06
(PID.TID 0000.0001)     ;
(PID.TID 0000.0001) diffK4T =   /* Bihaarmonic diffusion of heat laterally ( m^4/s ) */
(PID.TID 0000.0001)                 0.000000000000000E+00
(PID.TID 0000.0001)     ;
(PID.TID 0000.0001) diffKhS =   /* Laplacian diffusion of salt laterally ( m^2/s ) */
(PID.TID 0000.0001)                 1.000000000000000E-06
(PID.TID 0000.0001)     ;
(PID.TID 0000.0001) diffK4S =   /* Bihaarmonic diffusion of salt laterally ( m^4/s ) */
(PID.TID 0000.0001)                 0.000000000000000E+00
(PID.TID 0000.0001)     ;
(PID.TID 0000.0001) diffKrNrT = /* vertical profile of vertical diffusion of Temp ( m^2/s )*/
(PID.TID 0000.0001)    29 @  2.500000000000000E-06              /* K =  1: 29 */
(PID.TID 0000.0001)     ;
(PID.TID 0000.0001) diffKrNrS = /* vertical profile of vertical diffusion of Salt ( m^2/s )*/
(PID.TID 0000.0001)    29 @  1.000000000000000E-06              /* K =  1: 29 */
(PID.TID 0000.0001)     ;
(PID.TID 0000.0001) diffKrBL79surf =   /* Surface diffusion for Bryan and Lewis 1979 ( m^2/s ) */
(PID.TID 0000.0001)                 0.000000000000000E+00
(PID.TID 0000.0001)     ;
(PID.TID 0000.0001) diffKrBL79deep =   /* Deep diffusion for Bryan and Lewis 1979 ( m^2/s ) */
(PID.TID 0000.0001)                 0.000000000000000E+00
(PID.TID 0000.0001)     ;
(PID.TID 0000.0001) diffKrBL79scl =   /* Depth scale for Bryan and Lewis 1979 ( m ) */
(PID.TID 0000.0001)                 2.000000000000000E+02
(PID.TID 0000.0001)     ;
(PID.TID 0000.0001) diffKrBL79Ho =   /* Turning depth for Bryan and Lewis 1979 ( m ) */
(PID.TID 0000.0001)                -2.000000000000000E+03
(PID.TID 0000.0001)     ;
(PID.TID 0000.0001)  Equation of State : eosType = LINEAR
(PID.TID 0000.0001) tAlpha =   /* Linear EOS thermal expansion coefficient ( 1/degree ) */
(PID.TID 0000.0001)                 2.000000000000000E-04
(PID.TID 0000.0001)     ;
(PID.TID 0000.0001) sBeta =   /* Linear EOS haline contraction coefficient ( 1/ppt ) */
(PID.TID 0000.0001)                 0.000000000000000E+00
(PID.TID 0000.0001)     ;
(PID.TID 0000.0001) rhonil =   /* Reference density ( kg/m^3 ) */
(PID.TID 0000.0001)                 1.000000000000000E+03
(PID.TID 0000.0001)     ;
(PID.TID 0000.0001) rhoConst =   /* Reference density ( kg/m^3 ) */
(PID.TID 0000.0001)                 1.000000000000000E+03
(PID.TID 0000.0001)     ;
(PID.TID 0000.0001) rhoConstFresh =   /* Reference density ( kg/m^3 ) */
(PID.TID 0000.0001)                 1.000000000000000E+03
(PID.TID 0000.0001)     ;
(PID.TID 0000.0001) gravity =   /* Gravitational acceleration ( m/s^2 ) */
(PID.TID 0000.0001)                 9.810000000000000E+00
(PID.TID 0000.0001)     ;
(PID.TID 0000.0001) gBaro =   /* Barotropic gravity ( m/s^2 ) */
(PID.TID 0000.0001)                 9.810000000000000E+00
(PID.TID 0000.0001)     ;
(PID.TID 0000.0001) rotationPeriod =   /* Rotation Period ( s ) */
(PID.TID 0000.0001)                 8.640000000000000E+04
(PID.TID 0000.0001)     ;
(PID.TID 0000.0001) omega =   /* Angular velocity ( rad/s ) */
(PID.TID 0000.0001)                 7.272205216643040E-05
(PID.TID 0000.0001)     ;
(PID.TID 0000.0001) f0 =   /* Reference coriolis parameter ( 1/s ) */
(PID.TID 0000.0001)                 5.000000000000000E-01
(PID.TID 0000.0001)     ;
(PID.TID 0000.0001) beta =   /* Beta ( 1/(m.s) ) */
(PID.TID 0000.0001)                 9.999999999999999E-12
(PID.TID 0000.0001)     ;
(PID.TID 0000.0001) freeSurfFac =   /* Implicit free surface factor */
(PID.TID 0000.0001)                 0.000000000000000E+00
(PID.TID 0000.0001)     ;
(PID.TID 0000.0001) implicitFreeSurface =   /* Implicit free surface on/off flag */
(PID.TID 0000.0001)                   F
(PID.TID 0000.0001)     ;
(PID.TID 0000.0001) rigidLid =   /* Rigid lid on/off flag */
(PID.TID 0000.0001)                   T
(PID.TID 0000.0001)     ;
(PID.TID 0000.0001) implicSurfPress =   /* Surface Pressure implicit factor (0-1)*/
(PID.TID 0000.0001)                 1.000000000000000E+00
(PID.TID 0000.0001)     ;
(PID.TID 0000.0001) implicDiv2Dflow =   /* Barot. Flow Div. implicit factor (0-1)*/
(PID.TID 0000.0001)                 1.000000000000000E+00
(PID.TID 0000.0001)     ;
(PID.TID 0000.0001) exactConserv =   /* Exact Volume Conservation on/off flag*/
(PID.TID 0000.0001)                   F
(PID.TID 0000.0001)     ;
(PID.TID 0000.0001) uniformLin_PhiSurf =   /* use uniform Bo_surf on/off flag*/
(PID.TID 0000.0001)                   T
(PID.TID 0000.0001)     ;
(PID.TID 0000.0001) nonlinFreeSurf =   /* Non-linear Free Surf. options (-1,0,1,2,3)*/
(PID.TID 0000.0001)                       0
(PID.TID 0000.0001)     ;
(PID.TID 0000.0001)      -1,0= Off ; 1,2,3= On, 2=+rescale gU,gV, 3=+update cg2d solv.
(PID.TID 0000.0001) hFacInf =   /* lower threshold for hFac (nonlinFreeSurf only)*/
(PID.TID 0000.0001)                 2.000000000000000E-01
(PID.TID 0000.0001)     ;
(PID.TID 0000.0001) hFacSup =   /* upper threshold for hFac (nonlinFreeSurf only)*/
(PID.TID 0000.0001)                 2.000000000000000E+00
(PID.TID 0000.0001)     ;
(PID.TID 0000.0001) select_rStar =   /* r* Coordinate options (not yet implemented)*/
(PID.TID 0000.0001)                       0
(PID.TID 0000.0001)     ;
(PID.TID 0000.0001) useRealFreshWaterFlux =   /* Real Fresh Water Flux on/off flag*/
(PID.TID 0000.0001)                   F
(PID.TID 0000.0001)     ;
(PID.TID 0000.0001) convertFW2Salt = /* convert F.W. Flux to Salt Flux (-1=use local S)(ppt)*/
(PID.TID 0000.0001)                 3.500000000000000E+01
(PID.TID 0000.0001)     ;
(PID.TID 0000.0001) nonHydrostatic =  /* Non-Hydrostatic on/off flag */
(PID.TID 0000.0001)                   T
(PID.TID 0000.0001)     ;
(PID.TID 0000.0001) momStepping =  /* Momentum equation on/off flag */
(PID.TID 0000.0001)                   T
(PID.TID 0000.0001)     ;
(PID.TID 0000.0001) momAdvection =  /* Momentum advection on/off flag */
(PID.TID 0000.0001)                   T
(PID.TID 0000.0001)     ;
(PID.TID 0000.0001) momViscosity =  /* Momentum viscosity on/off flag */
(PID.TID 0000.0001)                   T
(PID.TID 0000.0001)     ;
(PID.TID 0000.0001) momImplVertAdv =/* Momentum implicit vert. advection on/off*/
(PID.TID 0000.0001)                   F
(PID.TID 0000.0001)     ;
(PID.TID 0000.0001) implicitViscosity = /* Implicit viscosity on/off flag */
(PID.TID 0000.0001)                   F
(PID.TID 0000.0001)     ;
(PID.TID 0000.0001) useCoriolis =  /* Coriolis on/off flag */
(PID.TID 0000.0001)                   T
(PID.TID 0000.0001)     ;
(PID.TID 0000.0001) useCDscheme =  /* CD scheme on/off flag */
(PID.TID 0000.0001)                   F
(PID.TID 0000.0001)     ;
(PID.TID 0000.0001) useJamartWetPoints= /* Coriolis WetPoints method flag */
(PID.TID 0000.0001)                   F
(PID.TID 0000.0001)     ;
(PID.TID 0000.0001) useJamartMomAdv= /* V.I. Non-linear terms Jamart flag */
(PID.TID 0000.0001)                   F
(PID.TID 0000.0001)     ;
(PID.TID 0000.0001) SadournyCoriolis= /* Sadourny Coriolis discr. flag */
(PID.TID 0000.0001)                   F
(PID.TID 0000.0001)     ;
(PID.TID 0000.0001) upwindVorticity= /* Upwind bias vorticity flag */
(PID.TID 0000.0001)                   F
(PID.TID 0000.0001)     ;
(PID.TID 0000.0001) useAbsVorticity= /* Work with f+zeta in Coriolis */
(PID.TID 0000.0001)                   F
(PID.TID 0000.0001)     ;
(PID.TID 0000.0001) highOrderVorticity= /* High order interp. of vort. flag */
(PID.TID 0000.0001)                   F
(PID.TID 0000.0001)     ;
(PID.TID 0000.0001) upwindShear= /* Upwind vertical Shear advection flag */
(PID.TID 0000.0001)                   F
(PID.TID 0000.0001)     ;
(PID.TID 0000.0001) momForcing =  /* Momentum forcing on/off flag */
(PID.TID 0000.0001)                   T
(PID.TID 0000.0001)     ;
(PID.TID 0000.0001) momPressureForcing =  /* Momentum pressure term on/off flag */
(PID.TID 0000.0001)                   T
(PID.TID 0000.0001)     ;
(PID.TID 0000.0001) staggerTimeStep =   /* Stagger time stepping on/off flag */
(PID.TID 0000.0001)                   F
(PID.TID 0000.0001)     ;
(PID.TID 0000.0001) multiDimAdvection =   /* enable/disable Multi-Dim Advection */
(PID.TID 0000.0001)                   T
(PID.TID 0000.0001)     ;
(PID.TID 0000.0001) useMultiDimAdvec =   /* Multi-Dim Advection is/is-not used */
(PID.TID 0000.0001)                   F
(PID.TID 0000.0001)     ;
(PID.TID 0000.0001) implicitDiffusion =/* Implicit Diffusion on/off flag */
(PID.TID 0000.0001)                   F
(PID.TID 0000.0001)     ;
(PID.TID 0000.0001) tempStepping =  /* Temperature equation on/off flag */
(PID.TID 0000.0001)                   T
(PID.TID 0000.0001)     ;
(PID.TID 0000.0001) tempAdvection=  /* Temperature advection on/off flag */
(PID.TID 0000.0001)                   T
(PID.TID 0000.0001)     ;
(PID.TID 0000.0001) tempImplVertAdv =/* Temp. implicit vert. advection on/off */
(PID.TID 0000.0001)                   F
(PID.TID 0000.0001)     ;
(PID.TID 0000.0001) tempForcing  =  /* Temperature forcing on/off flag */
(PID.TID 0000.0001)                   T
(PID.TID 0000.0001)     ;
(PID.TID 0000.0001) saltStepping =  /* Salinity equation on/off flag */
(PID.TID 0000.0001)                   T
(PID.TID 0000.0001)     ;
(PID.TID 0000.0001) saltAdvection=  /* Salinity advection on/off flag */
(PID.TID 0000.0001)                   T
(PID.TID 0000.0001)     ;
(PID.TID 0000.0001) saltImplVertAdv =/* Sali. implicit vert. advection on/off */
(PID.TID 0000.0001)                   F
(PID.TID 0000.0001)     ;
(PID.TID 0000.0001) saltForcing  =  /* Salinity forcing on/off flag */
(PID.TID 0000.0001)                   T
(PID.TID 0000.0001)     ;
(PID.TID 0000.0001)  debugMode  =  /* Debug Mode on/off flag */
(PID.TID 0000.0001)                   F
(PID.TID 0000.0001)     ;
(PID.TID 0000.0001)    debLevA  =  /* 1rst level of debugging */
(PID.TID 0000.0001)                       1
(PID.TID 0000.0001)     ;
(PID.TID 0000.0001)    debLevB  =  /* 2nd  level of debugging */
(PID.TID 0000.0001)                       2
(PID.TID 0000.0001)     ;
(PID.TID 0000.0001)  debugLevel =  /* select debugging level */
(PID.TID 0000.0001)                       1
(PID.TID 0000.0001)     ;
(PID.TID 0000.0001) //
(PID.TID 0000.0001) // Elliptic solver(s) paramters ( PARM02 in namelist )
(PID.TID 0000.0001) //
(PID.TID 0000.0001) cg2dMaxIters =   /* Upper limit on 2d con. grad iterations  */
(PID.TID 0000.0001)                    1000
(PID.TID 0000.0001)     ;
(PID.TID 0000.0001) cg2dChkResFreq =   /* 2d con. grad convergence test frequency */
(PID.TID 0000.0001)                       1
(PID.TID 0000.0001)     ;
(PID.TID 0000.0001) cg2dTargetResidual =   /* 2d con. grad target residual  */
(PID.TID 0000.0001)                 1.000000000000000E-07
(PID.TID 0000.0001)     ;
(PID.TID 0000.0001) cg2dTargetResWunit =   /* CG2d target residual [W units] */
(PID.TID 0000.0001)                -1.000000000000000E+00
(PID.TID 0000.0001)     ;
(PID.TID 0000.0001) cg2dPreCondFreq =   /* Freq. for updating cg2d preconditioner */
(PID.TID 0000.0001)                       1
(PID.TID 0000.0001)     ;
(PID.TID 0000.0001) //
(PID.TID 0000.0001) // Time stepping paramters ( PARM03 in namelist )
(PID.TID 0000.0001) //
(PID.TID 0000.0001) nIter0 =   /* Run starting timestep number  */
(PID.TID 0000.0001)                       0
(PID.TID 0000.0001)     ;
(PID.TID 0000.0001) nTimeSteps =   /* Number of timesteps */
(PID.TID 0000.0001)                      20
(PID.TID 0000.0001)     ;
(PID.TID 0000.0001) deltatTmom =   /* Momentum equation timestep ( s ) */
(PID.TID 0000.0001)                 1.000000000000000E-01
(PID.TID 0000.0001)     ;
(PID.TID 0000.0001) deltaTfreesurf =   /* FreeSurface equation timestep ( s ) */
(PID.TID 0000.0001)                 1.000000000000000E-01
(PID.TID 0000.0001)     ;
(PID.TID 0000.0001) dTtracerLev =   /* Tracer equation timestep ( s ) */
(PID.TID 0000.0001)    29 @  1.000000000000000E-01              /* K =  1: 29 */
(PID.TID 0000.0001)     ;
(PID.TID 0000.0001) deltatTClock  =   /* Model clock timestep ( s ) */
(PID.TID 0000.0001)                 1.000000000000000E-01
(PID.TID 0000.0001)     ;
(PID.TID 0000.0001) cAdjFreq =   /* Convective adjustment interval ( s ) */
(PID.TID 0000.0001)                 0.000000000000000E+00
(PID.TID 0000.0001)     ;
(PID.TID 0000.0001) forcing_In_AB =   /* put T,S Forcing in Adams-Bash. stepping */
(PID.TID 0000.0001)                   T
(PID.TID 0000.0001)     ;
(PID.TID 0000.0001) abEps =   /* Adams-Bashforth-2 stabilizing weight */
(PID.TID 0000.0001)                 1.000000000000000E-01
(PID.TID 0000.0001)     ;
(PID.TID 0000.0001) baseTime =   /* Model base time ( s ). */
(PID.TID 0000.0001)                 0.000000000000000E+00
(PID.TID 0000.0001)     ;
(PID.TID 0000.0001) startTime =   /* Run start time ( s ). */
(PID.TID 0000.0001)                 0.000000000000000E+00
(PID.TID 0000.0001)     ;
(PID.TID 0000.0001) endTime =   /* Integration ending time ( s ). */
(PID.TID 0000.0001)                 2.000000000000000E+00
(PID.TID 0000.0001)     ;
(PID.TID 0000.0001) pChkPtFreq =   /* Permanent restart/checkpoint file interval ( s ). */
(PID.TID 0000.0001)                 1.000000000000000E+00
(PID.TID 0000.0001)     ;
(PID.TID 0000.0001) chkPtFreq =   /* Rolling restart/checkpoint file interval ( s ). */
(PID.TID 0000.0001)                 1.000000000000000E+00
(PID.TID 0000.0001)     ;
(PID.TID 0000.0001) pickup_write_mdsio =   /* Model IO flag. */
(PID.TID 0000.0001)                   T
(PID.TID 0000.0001)     ;
(PID.TID 0000.0001) pickup_read_mdsio =   /* Model IO flag. */
(PID.TID 0000.0001)                   F
(PID.TID 0000.0001)     ;
(PID.TID 0000.0001) pickup_write_mnc =   /* Model IO flag. */
(PID.TID 0000.0001)                   T
(PID.TID 0000.0001)     ;
(PID.TID 0000.0001) pickup_read_mnc =   /* Model IO flag. */
(PID.TID 0000.0001)                   T
(PID.TID 0000.0001)     ;
(PID.TID 0000.0001) pickup_write_immed =   /* Model IO flag. */
(PID.TID 0000.0001)                   F
(PID.TID 0000.0001)     ;
(PID.TID 0000.0001) dumpFreq =   /* Model state write out interval ( s ). */
(PID.TID 0000.0001)                 1.000000000000000E+00
(PID.TID 0000.0001)     ;
(PID.TID 0000.0001) snapshot_mdsio =   /* Model IO flag. */
(PID.TID 0000.0001)                   T
(PID.TID 0000.0001)     ;
(PID.TID 0000.0001) snapshot_mnc =   /* Model IO flag. */
(PID.TID 0000.0001)                   T
(PID.TID 0000.0001)     ;
(PID.TID 0000.0001) monitorFreq =   /* Monitor output interval ( s ). */
(PID.TID 0000.0001)                 1.000000000000000E-01
(PID.TID 0000.0001)     ;
(PID.TID 0000.0001) monitor_stdio =   /* Model IO flag. */
(PID.TID 0000.0001)                   T
(PID.TID 0000.0001)     ;
(PID.TID 0000.0001) monitor_mnc =   /* Model IO flag. */
(PID.TID 0000.0001)                   T
(PID.TID 0000.0001)     ;
(PID.TID 0000.0001) externForcingPeriod =   /* forcing period (s) */
(PID.TID 0000.0001)                 0.000000000000000E+00
(PID.TID 0000.0001)     ;
(PID.TID 0000.0001) externForcingCycle =   /* period of the cyle (s). */
(PID.TID 0000.0001)                 0.000000000000000E+00
(PID.TID 0000.0001)     ;
(PID.TID 0000.0001) tauThetaClimRelax =   /* relaxation time scale (s) */
(PID.TID 0000.0001)                 0.000000000000000E+00
(PID.TID 0000.0001)     ;
(PID.TID 0000.0001) tauSaltClimRelax =   /* relaxation time scale (s) */
(PID.TID 0000.0001)                 0.000000000000000E+00
(PID.TID 0000.0001)     ;
(PID.TID 0000.0001) latBandClimRelax =   /* max. Lat. where relaxation */
(PID.TID 0000.0001)                 1.234567000000000E+05
(PID.TID 0000.0001)     ;
(PID.TID 0000.0001) //
(PID.TID 0000.0001) // Gridding paramters ( PARM04 in namelist )
(PID.TID 0000.0001) //
(PID.TID 0000.0001) usingCartesianGrid =   /* Cartesian coordinates flag ( True / False ) */
(PID.TID 0000.0001)                   F
(PID.TID 0000.0001)     ;
(PID.TID 0000.0001) usingSphericalPolarGrid =   /* Spherical coordinates flag ( True / False ) */
(PID.TID 0000.0001)                   F
(PID.TID 0000.0001)     ;
(PID.TID 0000.0001) usingCylindricalGrid =   /* Spherical coordinates flag ( True / False ) */
(PID.TID 0000.0001)                   T
(PID.TID 0000.0001)     ;
(PID.TID 0000.0001) Ro_SeaLevel =   /* r(1) ( units of r ) */
(PID.TID 0000.0001)                 0.000000000000000E+00
(PID.TID 0000.0001)     ;
(PID.TID 0000.0001) rkSign =   /* index orientation relative to vertical coordinate */
(PID.TID 0000.0001)                -1.000000000000000E+00
(PID.TID 0000.0001)     ;
(PID.TID 0000.0001) horiVertRatio =   /* Ratio on units : Horiz - Vertical */
(PID.TID 0000.0001)                 1.000000000000000E+00
(PID.TID 0000.0001)     ;
(PID.TID 0000.0001) drC =   /* C spacing ( units of r ) */
(PID.TID 0000.0001)                 2.500000000000000E-03,      /* K =  1 */
(PID.TID 0000.0001)    28 @  5.000000000000000E-03              /* K =  2: 29 */
(PID.TID 0000.0001)     ;
(PID.TID 0000.0001) drF =   /* W spacing ( units of r ) */
(PID.TID 0000.0001)    29 @  5.000000000000000E-03              /* K =  1: 29 */
(PID.TID 0000.0001)     ;
(PID.TID 0000.0001) delX =   /* U spacing ( m - cartesian, degrees - spherical ) */
(PID.TID 0000.0001)   120 @  3.000000000000000E+00              /* I =  1:120 */
(PID.TID 0000.0001)     ;
(PID.TID 0000.0001) delY =   /* V spacing ( m - cartesian, degrees - spherical ) */
(PID.TID 0000.0001)    31 @  1.000000000000000E-02              /* J =  1: 31 */
(PID.TID 0000.0001)     ;
(PID.TID 0000.0001) phiMin =    /* South edge (ignored - cartesian, degrees - spherical ) */
(PID.TID 0000.0001)                 0.000000000000000E+00
(PID.TID 0000.0001)     ;
(PID.TID 0000.0001) thetaMin =    /* West edge ( ignored - cartesian, degrees - spherical ) */
(PID.TID 0000.0001)                 0.000000000000000E+00
(PID.TID 0000.0001)     ;
(PID.TID 0000.0001) rSphere =    /* Radius ( ignored - cartesian, m - spherical ) */
(PID.TID 0000.0001)                 6.370000000000000E+06
(PID.TID 0000.0001)     ;
(PID.TID 0000.0001) xcoord =   /* P-point X coord ( m - cartesian, degrees - spherical ) */
(PID.TID 0000.0001)                 1.500000000000000E+00,      /* I =  1 */
(PID.TID 0000.0001)                 4.500000000000000E+00,      /* I =  2 */
(PID.TID 0000.0001)                 7.500000000000000E+00,      /* I =  3 */
(PID.TID 0000.0001)                 1.050000000000000E+01,      /* I =  4 */
(PID.TID 0000.0001)                 1.350000000000000E+01,      /* I =  5 */
(PID.TID 0000.0001)                 1.650000000000000E+01,      /* I =  6 */
(PID.TID 0000.0001)                 1.950000000000000E+01,      /* I =  7 */
(PID.TID 0000.0001)                 2.250000000000000E+01,      /* I =  8 */
(PID.TID 0000.0001)                 2.550000000000000E+01,      /* I =  9 */
(PID.TID 0000.0001)                 2.850000000000000E+01,      /* I = 10 */
(PID.TID 0000.0001)                 3.150000000000000E+01,      /* I = 11 */
(PID.TID 0000.0001)                 3.450000000000000E+01,      /* I = 12 */
(PID.TID 0000.0001)                 3.750000000000000E+01,      /* I = 13 */
(PID.TID 0000.0001)                 4.050000000000000E+01,      /* I = 14 */
(PID.TID 0000.0001)                 4.350000000000000E+01,      /* I = 15 */
(PID.TID 0000.0001)                 4.650000000000000E+01,      /* I = 16 */
(PID.TID 0000.0001)                 4.950000000000000E+01,      /* I = 17 */
(PID.TID 0000.0001)                 5.250000000000000E+01,      /* I = 18 */
(PID.TID 0000.0001)                 5.550000000000000E+01,      /* I = 19 */
(PID.TID 0000.0001)                 5.850000000000000E+01,      /* I = 20 */
(PID.TID 0000.0001)                 6.150000000000000E+01,      /* I = 21 */
(PID.TID 0000.0001)                 6.450000000000000E+01,      /* I = 22 */
(PID.TID 0000.0001)                 6.750000000000000E+01,      /* I = 23 */
(PID.TID 0000.0001)                 7.050000000000000E+01,      /* I = 24 */
(PID.TID 0000.0001)                 7.350000000000000E+01,      /* I = 25 */
(PID.TID 0000.0001)                 7.650000000000000E+01,      /* I = 26 */
(PID.TID 0000.0001)                 7.950000000000000E+01,      /* I = 27 */
(PID.TID 0000.0001)                 8.250000000000000E+01,      /* I = 28 */
(PID.TID 0000.0001)                 8.550000000000000E+01,      /* I = 29 */
(PID.TID 0000.0001)                 8.850000000000000E+01,      /* I = 30 */
(PID.TID 0000.0001)                 9.150000000000000E+01,      /* I = 31 */
(PID.TID 0000.0001)                 9.450000000000000E+01,      /* I = 32 */
(PID.TID 0000.0001)                 9.750000000000000E+01,      /* I = 33 */
(PID.TID 0000.0001)                 1.005000000000000E+02,      /* I = 34 */
(PID.TID 0000.0001)                 1.035000000000000E+02,      /* I = 35 */
(PID.TID 0000.0001)                 1.065000000000000E+02,      /* I = 36 */
(PID.TID 0000.0001)                 1.095000000000000E+02,      /* I = 37 */
(PID.TID 0000.0001)                 1.125000000000000E+02,      /* I = 38 */
(PID.TID 0000.0001)                 1.155000000000000E+02,      /* I = 39 */
(PID.TID 0000.0001)                 1.185000000000000E+02,      /* I = 40 */
(PID.TID 0000.0001)                 1.215000000000000E+02,      /* I = 41 */
(PID.TID 0000.0001)                 1.245000000000000E+02,      /* I = 42 */
(PID.TID 0000.0001)                 1.275000000000000E+02,      /* I = 43 */
(PID.TID 0000.0001)                 1.305000000000000E+02,      /* I = 44 */
(PID.TID 0000.0001)                 1.335000000000000E+02,      /* I = 45 */
(PID.TID 0000.0001)                 1.365000000000000E+02,      /* I = 46 */
(PID.TID 0000.0001)                 1.395000000000000E+02,      /* I = 47 */
(PID.TID 0000.0001)                 1.425000000000000E+02,      /* I = 48 */
(PID.TID 0000.0001)                 1.455000000000000E+02,      /* I = 49 */
(PID.TID 0000.0001)                 1.485000000000000E+02,      /* I = 50 */
(PID.TID 0000.0001)                 1.515000000000000E+02,      /* I = 51 */
(PID.TID 0000.0001)                 1.545000000000000E+02,      /* I = 52 */
(PID.TID 0000.0001)                 1.575000000000000E+02,      /* I = 53 */
(PID.TID 0000.0001)                 1.605000000000000E+02,      /* I = 54 */
(PID.TID 0000.0001)                 1.635000000000000E+02,      /* I = 55 */
(PID.TID 0000.0001)                 1.665000000000000E+02,      /* I = 56 */
(PID.TID 0000.0001)                 1.695000000000000E+02,      /* I = 57 */
(PID.TID 0000.0001)                 1.725000000000000E+02,      /* I = 58 */
(PID.TID 0000.0001)                 1.755000000000000E+02,      /* I = 59 */
(PID.TID 0000.0001)                 1.785000000000000E+02,      /* I = 60 */
(PID.TID 0000.0001)                 1.815000000000000E+02,      /* I = 61 */
(PID.TID 0000.0001)                 1.845000000000000E+02,      /* I = 62 */
(PID.TID 0000.0001)                 1.875000000000000E+02,      /* I = 63 */
(PID.TID 0000.0001)                 1.905000000000000E+02,      /* I = 64 */
(PID.TID 0000.0001)                 1.935000000000000E+02,      /* I = 65 */
(PID.TID 0000.0001)                 1.965000000000000E+02,      /* I = 66 */
(PID.TID 0000.0001)                 1.995000000000000E+02,      /* I = 67 */
(PID.TID 0000.0001)                 2.025000000000000E+02,      /* I = 68 */
(PID.TID 0000.0001)                 2.055000000000000E+02,      /* I = 69 */
(PID.TID 0000.0001)                 2.085000000000000E+02,      /* I = 70 */
(PID.TID 0000.0001)                 2.115000000000000E+02,      /* I = 71 */
(PID.TID 0000.0001)                 2.145000000000000E+02,      /* I = 72 */
(PID.TID 0000.0001)                 2.175000000000000E+02,      /* I = 73 */
(PID.TID 0000.0001)                 2.205000000000000E+02,      /* I = 74 */
(PID.TID 0000.0001)                 2.235000000000000E+02,      /* I = 75 */
(PID.TID 0000.0001)                 2.265000000000000E+02,      /* I = 76 */
(PID.TID 0000.0001)                 2.295000000000000E+02,      /* I = 77 */
(PID.TID 0000.0001)                 2.325000000000000E+02,      /* I = 78 */
(PID.TID 0000.0001)                 2.355000000000000E+02,      /* I = 79 */
(PID.TID 0000.0001)                 2.385000000000000E+02,      /* I = 80 */
(PID.TID 0000.0001)                 2.415000000000000E+02,      /* I = 81 */
(PID.TID 0000.0001)                 2.445000000000000E+02,      /* I = 82 */
(PID.TID 0000.0001)                 2.475000000000000E+02,      /* I = 83 */
(PID.TID 0000.0001)                 2.505000000000000E+02,      /* I = 84 */
(PID.TID 0000.0001)                 2.535000000000000E+02,      /* I = 85 */
(PID.TID 0000.0001)                 2.565000000000000E+02,      /* I = 86 */
(PID.TID 0000.0001)                 2.595000000000000E+02,      /* I = 87 */
(PID.TID 0000.0001)                 2.625000000000000E+02,      /* I = 88 */
(PID.TID 0000.0001)                 2.655000000000000E+02,      /* I = 89 */
(PID.TID 0000.0001)                 2.685000000000000E+02,      /* I = 90 */
(PID.TID 0000.0001)                 2.715000000000000E+02,      /* I = 91 */
(PID.TID 0000.0001)                 2.745000000000000E+02,      /* I = 92 */
(PID.TID 0000.0001)                 2.775000000000000E+02,      /* I = 93 */
(PID.TID 0000.0001)                 2.805000000000000E+02,      /* I = 94 */
(PID.TID 0000.0001)                 2.835000000000000E+02,      /* I = 95 */
(PID.TID 0000.0001)                 2.865000000000000E+02,      /* I = 96 */
(PID.TID 0000.0001)                 2.895000000000000E+02,      /* I = 97 */
(PID.TID 0000.0001)                 2.925000000000000E+02,      /* I = 98 */
(PID.TID 0000.0001)                 2.955000000000000E+02,      /* I = 99 */
(PID.TID 0000.0001)                 2.985000000000000E+02,      /* I =100 */
(PID.TID 0000.0001)                 3.015000000000000E+02,      /* I =101 */
(PID.TID 0000.0001)                 3.045000000000000E+02,      /* I =102 */
(PID.TID 0000.0001)                 3.075000000000000E+02,      /* I =103 */
(PID.TID 0000.0001)                 3.105000000000000E+02,      /* I =104 */
(PID.TID 0000.0001)                 3.135000000000000E+02,      /* I =105 */
(PID.TID 0000.0001)                 3.165000000000000E+02,      /* I =106 */
(PID.TID 0000.0001)                 3.195000000000000E+02,      /* I =107 */
(PID.TID 0000.0001)                 3.225000000000000E+02,      /* I =108 */
(PID.TID 0000.0001)                 3.255000000000000E+02,      /* I =109 */
(PID.TID 0000.0001)                 3.285000000000000E+02,      /* I =110 */
(PID.TID 0000.0001)                 3.315000000000000E+02,      /* I =111 */
(PID.TID 0000.0001)                 3.345000000000000E+02,      /* I =112 */
(PID.TID 0000.0001)                 3.375000000000000E+02,      /* I =113 */
(PID.TID 0000.0001)                 3.405000000000000E+02,      /* I =114 */
(PID.TID 0000.0001)                 3.435000000000000E+02,      /* I =115 */
(PID.TID 0000.0001)                 3.465000000000000E+02,      /* I =116 */
(PID.TID 0000.0001)                 3.495000000000000E+02,      /* I =117 */
(PID.TID 0000.0001)                 3.525000000000000E+02,      /* I =118 */
(PID.TID 0000.0001)                 3.555000000000000E+02,      /* I =119 */
(PID.TID 0000.0001)                 3.585000000000000E+02       /* I =120 */
(PID.TID 0000.0001)     ;
(PID.TID 0000.0001) ycoord =   /* P-point Y coord ( m - cartesian, degrees - spherical ) */
(PID.TID 0000.0001)                 5.000000000000004E-03,      /* J =  1 */
(PID.TID 0000.0001)                 1.500000000000000E-02,      /* J =  2 */
(PID.TID 0000.0001)                 2.500000000000000E-02,      /* J =  3 */
(PID.TID 0000.0001)                 3.500000000000000E-02,      /* J =  4 */
(PID.TID 0000.0001)                 4.500000000000001E-02,      /* J =  5 */
(PID.TID 0000.0001)                 5.500000000000001E-02,      /* J =  6 */
(PID.TID 0000.0001)                 6.500000000000000E-02,      /* J =  7 */
(PID.TID 0000.0001)                 7.500000000000001E-02,      /* J =  8 */
(PID.TID 0000.0001)                 8.499999999999999E-02,      /* J =  9 */
(PID.TID 0000.0001)                 9.499999999999999E-02,      /* J = 10 */
(PID.TID 0000.0001)                 1.050000000000000E-01,      /* J = 11 */
(PID.TID 0000.0001)                 1.150000000000000E-01,      /* J = 12 */
(PID.TID 0000.0001)                 1.250000000000000E-01,      /* J = 13 */
(PID.TID 0000.0001)                 1.350000000000000E-01,      /* J = 14 */
(PID.TID 0000.0001)                 1.450000000000000E-01,      /* J = 15 */
(PID.TID 0000.0001)                 1.550000000000000E-01,      /* J = 16 */
(PID.TID 0000.0001)                 1.650000000000000E-01,      /* J = 17 */
(PID.TID 0000.0001)                 1.750000000000000E-01,      /* J = 18 */
(PID.TID 0000.0001)                 1.850000000000000E-01,      /* J = 19 */
(PID.TID 0000.0001)                 1.950000000000000E-01,      /* J = 20 */
(PID.TID 0000.0001)                 2.050000000000000E-01,      /* J = 21 */
(PID.TID 0000.0001)                 2.150000000000001E-01,      /* J = 22 */
(PID.TID 0000.0001)                 2.250000000000001E-01,      /* J = 23 */
(PID.TID 0000.0001)                 2.350000000000001E-01,      /* J = 24 */
(PID.TID 0000.0001)                 2.450000000000001E-01,      /* J = 25 */
(PID.TID 0000.0001)                 2.550000000000001E-01,      /* J = 26 */
(PID.TID 0000.0001)                 2.650000000000001E-01,      /* J = 27 */
(PID.TID 0000.0001)                 2.750000000000001E-01,      /* J = 28 */
(PID.TID 0000.0001)                 2.850000000000001E-01,      /* J = 29 */
(PID.TID 0000.0001)                 2.950000000000001E-01,      /* J = 30 */
(PID.TID 0000.0001)                 3.050000000000001E-01       /* J = 31 */
(PID.TID 0000.0001)     ;
(PID.TID 0000.0001) rcoord =   /* P-point R coordinate (  units of r ) */
(PID.TID 0000.0001)                -2.500000000000000E-03,      /* K =  1 */
(PID.TID 0000.0001)                -7.500000000000000E-03,      /* K =  2 */
(PID.TID 0000.0001)                -1.250000000000000E-02,      /* K =  3 */
(PID.TID 0000.0001)                -1.750000000000000E-02,      /* K =  4 */
(PID.TID 0000.0001)                -2.250000000000000E-02,      /* K =  5 */
(PID.TID 0000.0001)                -2.750000000000000E-02,      /* K =  6 */
(PID.TID 0000.0001)                -3.250000000000000E-02,      /* K =  7 */
(PID.TID 0000.0001)                -3.750000000000000E-02,      /* K =  8 */
(PID.TID 0000.0001)                -4.250000000000000E-02,      /* K =  9 */
(PID.TID 0000.0001)                -4.749999999999999E-02,      /* K = 10 */
(PID.TID 0000.0001)                -5.249999999999999E-02,      /* K = 11 */
(PID.TID 0000.0001)                -5.749999999999999E-02,      /* K = 12 */
(PID.TID 0000.0001)                -6.249999999999999E-02,      /* K = 13 */
(PID.TID 0000.0001)                -6.749999999999999E-02,      /* K = 14 */
(PID.TID 0000.0001)                -7.250000000000000E-02,      /* K = 15 */
(PID.TID 0000.0001)                -7.750000000000000E-02,      /* K = 16 */
(PID.TID 0000.0001)                -8.250000000000000E-02,      /* K = 17 */
(PID.TID 0000.0001)                -8.750000000000001E-02,      /* K = 18 */
(PID.TID 0000.0001)                -9.250000000000001E-02,      /* K = 19 */
(PID.TID 0000.0001)                -9.750000000000002E-02,      /* K = 20 */
(PID.TID 0000.0001)                -1.025000000000000E-01,      /* K = 21 */
(PID.TID 0000.0001)                -1.075000000000000E-01,      /* K = 22 */
(PID.TID 0000.0001)                -1.125000000000000E-01,      /* K = 23 */
(PID.TID 0000.0001)                -1.175000000000000E-01,      /* K = 24 */
(PID.TID 0000.0001)                -1.225000000000000E-01,      /* K = 25 */
(PID.TID 0000.0001)                -1.275000000000000E-01,      /* K = 26 */
(PID.TID 0000.0001)                -1.325000000000000E-01,      /* K = 27 */
(PID.TID 0000.0001)                -1.375000000000000E-01,      /* K = 28 */
(PID.TID 0000.0001)                -1.425000000000000E-01       /* K = 29 */
(PID.TID 0000.0001)     ;
(PID.TID 0000.0001) rF =   /* W-Interf. R coordinate (  units of r ) */
(PID.TID 0000.0001)                 0.000000000000000E+00,      /* K =  1 */
(PID.TID 0000.0001)                -5.000000000000000E-03,      /* K =  2 */
(PID.TID 0000.0001)                -1.000000000000000E-02,      /* K =  3 */
(PID.TID 0000.0001)                -1.500000000000000E-02,      /* K =  4 */
(PID.TID 0000.0001)                -2.000000000000000E-02,      /* K =  5 */
(PID.TID 0000.0001)                -2.500000000000000E-02,      /* K =  6 */
(PID.TID 0000.0001)                -3.000000000000000E-02,      /* K =  7 */
(PID.TID 0000.0001)                -3.500000000000000E-02,      /* K =  8 */
(PID.TID 0000.0001)                -4.000000000000000E-02,      /* K =  9 */
(PID.TID 0000.0001)                -4.500000000000000E-02,      /* K = 10 */
(PID.TID 0000.0001)                -5.000000000000000E-02,      /* K = 11 */
(PID.TID 0000.0001)                -5.499999999999999E-02,      /* K = 12 */
(PID.TID 0000.0001)                -5.999999999999999E-02,      /* K = 13 */
(PID.TID 0000.0001)                -6.499999999999999E-02,      /* K = 14 */
(PID.TID 0000.0001)                -6.999999999999999E-02,      /* K = 15 */
(PID.TID 0000.0001)                -7.500000000000000E-02,      /* K = 16 */
(PID.TID 0000.0001)                -8.000000000000000E-02,      /* K = 17 */
(PID.TID 0000.0001)                -8.500000000000001E-02,      /* K = 18 */
(PID.TID 0000.0001)                -9.000000000000001E-02,      /* K = 19 */
(PID.TID 0000.0001)                -9.500000000000001E-02,      /* K = 20 */
(PID.TID 0000.0001)                -1.000000000000000E-01,      /* K = 21 */
(PID.TID 0000.0001)                -1.050000000000000E-01,      /* K = 22 */
(PID.TID 0000.0001)                -1.100000000000000E-01,      /* K = 23 */
(PID.TID 0000.0001)                -1.150000000000000E-01,      /* K = 24 */
(PID.TID 0000.0001)                -1.200000000000000E-01,      /* K = 25 */
(PID.TID 0000.0001)                -1.250000000000000E-01,      /* K = 26 */
(PID.TID 0000.0001)                -1.300000000000000E-01,      /* K = 27 */
(PID.TID 0000.0001)                -1.350000000000000E-01,      /* K = 28 */
(PID.TID 0000.0001)                -1.400000000000000E-01,      /* K = 29 */
(PID.TID 0000.0001)                -1.450000000000000E-01       /* K = 30 */
(PID.TID 0000.0001)     ;
(PID.TID 0000.0001) dxF =  /* dxF(:,1,:,1) ( m - cartesian, degrees - spherical ) */
(PID.TID 0000.0001)   120 @  2.617993877991496E-04              /* I =  1:120 */
(PID.TID 0000.0001)     ;
(PID.TID 0000.0001) dxF =  /* dxF(1,:,1,:) ( m - cartesian, degrees - spherical ) */
(PID.TID 0000.0001)                 2.617993877991496E-04,      /* J =  1 */
(PID.TID 0000.0001)                 7.853981633974485E-04,      /* J =  2 */
(PID.TID 0000.0001)                 1.308996938995747E-03,      /* J =  3 */
(PID.TID 0000.0001)                 1.832595714594046E-03,      /* J =  4 */
(PID.TID 0000.0001)                 2.356194490192346E-03,      /* J =  5 */
(PID.TID 0000.0001)                 2.879793265790645E-03,      /* J =  6 */
(PID.TID 0000.0001)                 3.403392041388943E-03,      /* J =  7 */
(PID.TID 0000.0001)                 3.926990816987242E-03,      /* J =  8 */
(PID.TID 0000.0001)                 4.450589592585540E-03,      /* J =  9 */
(PID.TID 0000.0001)                 4.974188368183838E-03,      /* J = 10 */
(PID.TID 0000.0001)                 5.497787143782137E-03,      /* J = 11 */
(PID.TID 0000.0001)                 6.021385919380436E-03,      /* J = 12 */
(PID.TID 0000.0001)                 6.544984694978734E-03,      /* J = 13 */
(PID.TID 0000.0001)                 7.068583470577033E-03,      /* J = 14 */
(PID.TID 0000.0001)                 7.592182246175332E-03,      /* J = 15 */
(PID.TID 0000.0001)                 8.115781021773632E-03,      /* J = 16 */
(PID.TID 0000.0001)                 8.639379797371931E-03,      /* J = 17 */
(PID.TID 0000.0001)                 9.162978572970231E-03,      /* J = 18 */
(PID.TID 0000.0001)                 9.686577348568530E-03,      /* J = 19 */
(PID.TID 0000.0001)                 1.021017612416683E-02,      /* J = 20 */
(PID.TID 0000.0001)                 1.073377489976513E-02,      /* J = 21 */
(PID.TID 0000.0001)                 1.125737367536343E-02,      /* J = 22 */
(PID.TID 0000.0001)                 1.178097245096173E-02,      /* J = 23 */
(PID.TID 0000.0001)                 1.230457122656003E-02,      /* J = 24 */
(PID.TID 0000.0001)                 1.282817000215832E-02,      /* J = 25 */
(PID.TID 0000.0001)                 1.335176877775662E-02,      /* J = 26 */
(PID.TID 0000.0001)                 1.387536755335492E-02,      /* J = 27 */
(PID.TID 0000.0001)                 1.439896632895322E-02,      /* J = 28 */
(PID.TID 0000.0001)                 1.492256510455152E-02,      /* J = 29 */
(PID.TID 0000.0001)                 1.544616388014982E-02,      /* J = 30 */
(PID.TID 0000.0001)                 1.596976265574812E-02       /* J = 31 */
(PID.TID 0000.0001)     ;
(PID.TID 0000.0001) dyF =  /* dyF(:,1,:,1) ( m - cartesian, degrees - spherical ) */
(PID.TID 0000.0001)   120 @  1.000000000000000E-02              /* I =  1:120 */
(PID.TID 0000.0001)     ;
(PID.TID 0000.0001) dyF =  /* dyF(1,:,1,:) ( m - cartesian, degrees - spherical ) */
(PID.TID 0000.0001)    31 @  1.000000000000000E-02              /* J =  1: 31 */
(PID.TID 0000.0001)     ;
(PID.TID 0000.0001) dxG =  /* dxG(:,1,:,1) ( m - cartesian, degrees - spherical ) */
(PID.TID 0000.0001)   120 @  1.816598176046163E-19              /* I =  1:120 */
(PID.TID 0000.0001)     ;
(PID.TID 0000.0001) dxG =  /* dxG(1,:,1,:) ( m - cartesian, degrees - spherical ) */
(PID.TID 0000.0001)                 1.816598176046163E-19,      /* J =  1 */
(PID.TID 0000.0001)                 5.235987755982991E-04,      /* J =  2 */
(PID.TID 0000.0001)                 1.047197551196598E-03,      /* J =  3 */
(PID.TID 0000.0001)                 1.570796326794897E-03,      /* J =  4 */
(PID.TID 0000.0001)                 2.094395102393196E-03,      /* J =  5 */
(PID.TID 0000.0001)                 2.617993877991494E-03,      /* J =  6 */
(PID.TID 0000.0001)                 3.141592653589794E-03,      /* J =  7 */
(PID.TID 0000.0001)                 3.665191429188093E-03,      /* J =  8 */
(PID.TID 0000.0001)                 4.188790204786390E-03,      /* J =  9 */
(PID.TID 0000.0001)                 4.712388980384690E-03,      /* J = 10 */
(PID.TID 0000.0001)                 5.235987755982988E-03,      /* J = 11 */
(PID.TID 0000.0001)                 5.759586531581287E-03,      /* J = 12 */
(PID.TID 0000.0001)                 6.283185307179585E-03,      /* J = 13 */
(PID.TID 0000.0001)                 6.806784082777883E-03,      /* J = 14 */
(PID.TID 0000.0001)                 7.330382858376183E-03,      /* J = 15 */
(PID.TID 0000.0001)                 7.853981633974482E-03,      /* J = 16 */
(PID.TID 0000.0001)                 8.377580409572781E-03,      /* J = 17 */
(PID.TID 0000.0001)                 8.901179185171080E-03,      /* J = 18 */
(PID.TID 0000.0001)                 9.424777960769379E-03,      /* J = 19 */
(PID.TID 0000.0001)                 9.948376736367679E-03,      /* J = 20 */
(PID.TID 0000.0001)                 1.047197551196598E-02,      /* J = 21 */
(PID.TID 0000.0001)                 1.099557428756428E-02,      /* J = 22 */
(PID.TID 0000.0001)                 1.151917306316258E-02,      /* J = 23 */
(PID.TID 0000.0001)                 1.204277183876088E-02,      /* J = 24 */
(PID.TID 0000.0001)                 1.256637061435918E-02,      /* J = 25 */
(PID.TID 0000.0001)                 1.308996938995748E-02,      /* J = 26 */
(PID.TID 0000.0001)                 1.361356816555578E-02,      /* J = 27 */
(PID.TID 0000.0001)                 1.413716694115407E-02,      /* J = 28 */
(PID.TID 0000.0001)                 1.466076571675237E-02,      /* J = 29 */
(PID.TID 0000.0001)                 1.518436449235067E-02,      /* J = 30 */
(PID.TID 0000.0001)                 1.570796326794897E-02       /* J = 31 */
(PID.TID 0000.0001)     ;
(PID.TID 0000.0001) dyG =  /* dyG(:,1,:,1) ( m - cartesian, degrees - spherical ) */
(PID.TID 0000.0001)   120 @  1.000000000000000E-02              /* I =  1:120 */
(PID.TID 0000.0001)     ;
(PID.TID 0000.0001) dyG =  /* dyG(1,:,1,:) ( m - cartesian, degrees - spherical ) */
(PID.TID 0000.0001)    31 @  1.000000000000000E-02              /* J =  1: 31 */
(PID.TID 0000.0001)     ;
(PID.TID 0000.0001) dxC =  /* dxC(:,1,:,1) ( m - cartesian, degrees - spherical ) */
(PID.TID 0000.0001)   120 @  2.617993877991496E-04              /* I =  1:120 */
(PID.TID 0000.0001)     ;
(PID.TID 0000.0001) dxC =  /* dxC(1,:,1,:) ( m - cartesian, degrees - spherical ) */
(PID.TID 0000.0001)                 2.617993877991496E-04,      /* J =  1 */
(PID.TID 0000.0001)                 7.853981633974485E-04,      /* J =  2 */
(PID.TID 0000.0001)                 1.308996938995747E-03,      /* J =  3 */
(PID.TID 0000.0001)                 1.832595714594046E-03,      /* J =  4 */
(PID.TID 0000.0001)                 2.356194490192346E-03,      /* J =  5 */
(PID.TID 0000.0001)                 2.879793265790645E-03,      /* J =  6 */
(PID.TID 0000.0001)                 3.403392041388943E-03,      /* J =  7 */
(PID.TID 0000.0001)                 3.926990816987242E-03,      /* J =  8 */
(PID.TID 0000.0001)                 4.450589592585540E-03,      /* J =  9 */
(PID.TID 0000.0001)                 4.974188368183838E-03,      /* J = 10 */
(PID.TID 0000.0001)                 5.497787143782137E-03,      /* J = 11 */
(PID.TID 0000.0001)                 6.021385919380436E-03,      /* J = 12 */
(PID.TID 0000.0001)                 6.544984694978734E-03,      /* J = 13 */
(PID.TID 0000.0001)                 7.068583470577033E-03,      /* J = 14 */
(PID.TID 0000.0001)                 7.592182246175332E-03,      /* J = 15 */
(PID.TID 0000.0001)                 8.115781021773632E-03,      /* J = 16 */
(PID.TID 0000.0001)                 8.639379797371931E-03,      /* J = 17 */
(PID.TID 0000.0001)                 9.162978572970231E-03,      /* J = 18 */
(PID.TID 0000.0001)                 9.686577348568530E-03,      /* J = 19 */
(PID.TID 0000.0001)                 1.021017612416683E-02,      /* J = 20 */
(PID.TID 0000.0001)                 1.073377489976513E-02,      /* J = 21 */
(PID.TID 0000.0001)                 1.125737367536343E-02,      /* J = 22 */
(PID.TID 0000.0001)                 1.178097245096173E-02,      /* J = 23 */
(PID.TID 0000.0001)                 1.230457122656003E-02,      /* J = 24 */
(PID.TID 0000.0001)                 1.282817000215832E-02,      /* J = 25 */
(PID.TID 0000.0001)                 1.335176877775662E-02,      /* J = 26 */
(PID.TID 0000.0001)                 1.387536755335492E-02,      /* J = 27 */
(PID.TID 0000.0001)                 1.439896632895322E-02,      /* J = 28 */
(PID.TID 0000.0001)                 1.492256510455152E-02,      /* J = 29 */
(PID.TID 0000.0001)                 1.544616388014982E-02,      /* J = 30 */
(PID.TID 0000.0001)                 1.596976265574812E-02       /* J = 31 */
(PID.TID 0000.0001)     ;
(PID.TID 0000.0001) dyC =  /* dyC(:,1,:,1) ( m - cartesian, degrees - spherical ) */
(PID.TID 0000.0001)   120 @  1.000000000000000E-02              /* I =  1:120 */
(PID.TID 0000.0001)     ;
(PID.TID 0000.0001) dyC =  /* dyC(1,:,1,:) ( m - cartesian, degrees - spherical ) */
(PID.TID 0000.0001)    31 @  1.000000000000000E-02              /* J =  1: 31 */
(PID.TID 0000.0001)     ;
(PID.TID 0000.0001) dxV =  /* dxV(:,1,:,1) ( m - cartesian, degrees - spherical ) */
(PID.TID 0000.0001)   120 @  1.816598176046163E-19              /* I =  1:120 */
(PID.TID 0000.0001)     ;
(PID.TID 0000.0001) dxV =  /* dxV(1,:,1,:) ( m - cartesian, degrees - spherical ) */
(PID.TID 0000.0001)                 1.816598176046163E-19,      /* J =  1 */
(PID.TID 0000.0001)                 5.235987755982991E-04,      /* J =  2 */
(PID.TID 0000.0001)                 1.047197551196598E-03,      /* J =  3 */
(PID.TID 0000.0001)                 1.570796326794897E-03,      /* J =  4 */
(PID.TID 0000.0001)                 2.094395102393196E-03,      /* J =  5 */
(PID.TID 0000.0001)                 2.617993877991494E-03,      /* J =  6 */
(PID.TID 0000.0001)                 3.141592653589794E-03,      /* J =  7 */
(PID.TID 0000.0001)                 3.665191429188093E-03,      /* J =  8 */
(PID.TID 0000.0001)                 4.188790204786390E-03,      /* J =  9 */
(PID.TID 0000.0001)                 4.712388980384690E-03,      /* J = 10 */
(PID.TID 0000.0001)                 5.235987755982988E-03,      /* J = 11 */
(PID.TID 0000.0001)                 5.759586531581287E-03,      /* J = 12 */
(PID.TID 0000.0001)                 6.283185307179585E-03,      /* J = 13 */
(PID.TID 0000.0001)                 6.806784082777883E-03,      /* J = 14 */
(PID.TID 0000.0001)                 7.330382858376183E-03,      /* J = 15 */
(PID.TID 0000.0001)                 7.853981633974482E-03,      /* J = 16 */
(PID.TID 0000.0001)                 8.377580409572781E-03,      /* J = 17 */
(PID.TID 0000.0001)                 8.901179185171080E-03,      /* J = 18 */
(PID.TID 0000.0001)                 9.424777960769379E-03,      /* J = 19 */
(PID.TID 0000.0001)                 9.948376736367679E-03,      /* J = 20 */
(PID.TID 0000.0001)                 1.047197551196598E-02,      /* J = 21 */
(PID.TID 0000.0001)                 1.099557428756428E-02,      /* J = 22 */
(PID.TID 0000.0001)                 1.151917306316258E-02,      /* J = 23 */
(PID.TID 0000.0001)                 1.204277183876088E-02,      /* J = 24 */
(PID.TID 0000.0001)                 1.256637061435918E-02,      /* J = 25 */
(PID.TID 0000.0001)                 1.308996938995748E-02,      /* J = 26 */
(PID.TID 0000.0001)                 1.361356816555578E-02,      /* J = 27 */
(PID.TID 0000.0001)                 1.413716694115407E-02,      /* J = 28 */
(PID.TID 0000.0001)                 1.466076571675237E-02,      /* J = 29 */
(PID.TID 0000.0001)                 1.518436449235067E-02,      /* J = 30 */
(PID.TID 0000.0001)                 1.570796326794897E-02       /* J = 31 */
(PID.TID 0000.0001)     ;
(PID.TID 0000.0001) dyU =  /* dyU(:,1,:,1) ( m - cartesian, degrees - spherical ) */
(PID.TID 0000.0001)   120 @  1.000000000000000E-02              /* I =  1:120 */
(PID.TID 0000.0001)     ;
(PID.TID 0000.0001) dyU =  /* dyU(1,:,1,:) ( m - cartesian, degrees - spherical ) */
(PID.TID 0000.0001)    31 @  1.000000000000000E-02              /* J =  1: 31 */
(PID.TID 0000.0001)     ;
(PID.TID 0000.0001) rA =  /* rA(:,1,:,1) ( m - cartesian, degrees - spherical ) */
(PID.TID 0000.0001)   120 @  2.617993877991496E-06              /* I =  1:120 */
(PID.TID 0000.0001)     ;
(PID.TID 0000.0001) rA =  /* rA(1,:,1,:) ( m - cartesian, degrees - spherical ) */
(PID.TID 0000.0001)                 2.617993877991496E-06,      /* J =  1 */
(PID.TID 0000.0001)                 7.853981633974485E-06,      /* J =  2 */
(PID.TID 0000.0001)                 1.308996938995747E-05,      /* J =  3 */
(PID.TID 0000.0001)                 1.832595714594046E-05,      /* J =  4 */
(PID.TID 0000.0001)                 2.356194490192346E-05,      /* J =  5 */
(PID.TID 0000.0001)                 2.879793265790645E-05,      /* J =  6 */
(PID.TID 0000.0001)                 3.403392041388943E-05,      /* J =  7 */
(PID.TID 0000.0001)                 3.926990816987242E-05,      /* J =  8 */
(PID.TID 0000.0001)                 4.450589592585540E-05,      /* J =  9 */
(PID.TID 0000.0001)                 4.974188368183839E-05,      /* J = 10 */
(PID.TID 0000.0001)                 5.497787143782137E-05,      /* J = 11 */
(PID.TID 0000.0001)                 6.021385919380436E-05,      /* J = 12 */
(PID.TID 0000.0001)                 6.544984694978734E-05,      /* J = 13 */
(PID.TID 0000.0001)                 7.068583470577033E-05,      /* J = 14 */
(PID.TID 0000.0001)                 7.592182246175332E-05,      /* J = 15 */
(PID.TID 0000.0001)                 8.115781021773632E-05,      /* J = 16 */
(PID.TID 0000.0001)                 8.639379797371931E-05,      /* J = 17 */
(PID.TID 0000.0001)                 9.162978572970230E-05,      /* J = 18 */
(PID.TID 0000.0001)                 9.686577348568531E-05,      /* J = 19 */
(PID.TID 0000.0001)                 1.021017612416683E-04,      /* J = 20 */
(PID.TID 0000.0001)                 1.073377489976513E-04,      /* J = 21 */
(PID.TID 0000.0001)                 1.125737367536343E-04,      /* J = 22 */
(PID.TID 0000.0001)                 1.178097245096173E-04,      /* J = 23 */
(PID.TID 0000.0001)                 1.230457122656003E-04,      /* J = 24 */
(PID.TID 0000.0001)                 1.282817000215832E-04,      /* J = 25 */
(PID.TID 0000.0001)                 1.335176877775662E-04,      /* J = 26 */
(PID.TID 0000.0001)                 1.387536755335492E-04,      /* J = 27 */
(PID.TID 0000.0001)                 1.439896632895322E-04,      /* J = 28 */
(PID.TID 0000.0001)                 1.492256510455152E-04,      /* J = 29 */
(PID.TID 0000.0001)                 1.544616388014982E-04,      /* J = 30 */
(PID.TID 0000.0001)                 1.596976265574812E-04       /* J = 31 */
(PID.TID 0000.0001)     ;
(PID.TID 0000.0001) rAw =  /* rAw(:,1,:,1) ( m - cartesian, degrees - spherical ) */
(PID.TID 0000.0001)   120 @  2.617993877991496E-06              /* I =  1:120 */
(PID.TID 0000.0001)     ;
(PID.TID 0000.0001) rAw =  /* rAw(1,:,1,:) ( m - cartesian, degrees - spherical ) */
(PID.TID 0000.0001)                 2.617993877991496E-06,      /* J =  1 */
(PID.TID 0000.0001)                 7.853981633974485E-06,      /* J =  2 */
(PID.TID 0000.0001)                 1.308996938995747E-05,      /* J =  3 */
(PID.TID 0000.0001)                 1.832595714594046E-05,      /* J =  4 */
(PID.TID 0000.0001)                 2.356194490192346E-05,      /* J =  5 */
(PID.TID 0000.0001)                 2.879793265790645E-05,      /* J =  6 */
(PID.TID 0000.0001)                 3.403392041388943E-05,      /* J =  7 */
(PID.TID 0000.0001)                 3.926990816987242E-05,      /* J =  8 */
(PID.TID 0000.0001)                 4.450589592585540E-05,      /* J =  9 */
(PID.TID 0000.0001)                 4.974188368183839E-05,      /* J = 10 */
(PID.TID 0000.0001)                 5.497787143782137E-05,      /* J = 11 */
(PID.TID 0000.0001)                 6.021385919380436E-05,      /* J = 12 */
(PID.TID 0000.0001)                 6.544984694978734E-05,      /* J = 13 */
(PID.TID 0000.0001)                 7.068583470577033E-05,      /* J = 14 */
(PID.TID 0000.0001)                 7.592182246175332E-05,      /* J = 15 */
(PID.TID 0000.0001)                 8.115781021773632E-05,      /* J = 16 */
(PID.TID 0000.0001)                 8.639379797371931E-05,      /* J = 17 */
(PID.TID 0000.0001)                 9.162978572970230E-05,      /* J = 18 */
(PID.TID 0000.0001)                 9.686577348568531E-05,      /* J = 19 */
(PID.TID 0000.0001)                 1.021017612416683E-04,      /* J = 20 */
(PID.TID 0000.0001)                 1.073377489976513E-04,      /* J = 21 */
(PID.TID 0000.0001)                 1.125737367536343E-04,      /* J = 22 */
(PID.TID 0000.0001)                 1.178097245096173E-04,      /* J = 23 */
(PID.TID 0000.0001)                 1.230457122656003E-04,      /* J = 24 */
(PID.TID 0000.0001)                 1.282817000215832E-04,      /* J = 25 */
(PID.TID 0000.0001)                 1.335176877775662E-04,      /* J = 26 */
(PID.TID 0000.0001)                 1.387536755335492E-04,      /* J = 27 */
(PID.TID 0000.0001)                 1.439896632895322E-04,      /* J = 28 */
(PID.TID 0000.0001)                 1.492256510455152E-04,      /* J = 29 */
(PID.TID 0000.0001)                 1.544616388014982E-04,      /* J = 30 */
(PID.TID 0000.0001)                 1.596976265574812E-04       /* J = 31 */
(PID.TID 0000.0001)     ;
(PID.TID 0000.0001) rAs =  /* rAs(:,1,:,1) ( m - cartesian, degrees - spherical ) */
(PID.TID 0000.0001)   120 @  1.816598176046163E-21              /* I =  1:120 */
(PID.TID 0000.0001)     ;
(PID.TID 0000.0001) rAs =  /* rAs(1,:,1,:) ( m - cartesian, degrees - spherical ) */
(PID.TID 0000.0001)                 1.816598176046163E-21,      /* J =  1 */
(PID.TID 0000.0001)                 5.235987755982991E-06,      /* J =  2 */
(PID.TID 0000.0001)                 1.047197551196598E-05,      /* J =  3 */
(PID.TID 0000.0001)                 1.570796326794897E-05,      /* J =  4 */
(PID.TID 0000.0001)                 2.094395102393196E-05,      /* J =  5 */
(PID.TID 0000.0001)                 2.617993877991494E-05,      /* J =  6 */
(PID.TID 0000.0001)                 3.141592653589794E-05,      /* J =  7 */
(PID.TID 0000.0001)                 3.665191429188093E-05,      /* J =  8 */
(PID.TID 0000.0001)                 4.188790204786391E-05,      /* J =  9 */
(PID.TID 0000.0001)                 4.712388980384690E-05,      /* J = 10 */
(PID.TID 0000.0001)                 5.235987755982988E-05,      /* J = 11 */
(PID.TID 0000.0001)                 5.759586531581287E-05,      /* J = 12 */
(PID.TID 0000.0001)                 6.283185307179586E-05,      /* J = 13 */
(PID.TID 0000.0001)                 6.806784082777883E-05,      /* J = 14 */
(PID.TID 0000.0001)                 7.330382858376182E-05,      /* J = 15 */
(PID.TID 0000.0001)                 7.853981633974481E-05,      /* J = 16 */
(PID.TID 0000.0001)                 8.377580409572782E-05,      /* J = 17 */
(PID.TID 0000.0001)                 8.901179185171081E-05,      /* J = 18 */
(PID.TID 0000.0001)                 9.424777960769380E-05,      /* J = 19 */
(PID.TID 0000.0001)                 9.948376736367679E-05,      /* J = 20 */
(PID.TID 0000.0001)                 1.047197551196598E-04,      /* J = 21 */
(PID.TID 0000.0001)                 1.099557428756428E-04,      /* J = 22 */
(PID.TID 0000.0001)                 1.151917306316258E-04,      /* J = 23 */
(PID.TID 0000.0001)                 1.204277183876088E-04,      /* J = 24 */
(PID.TID 0000.0001)                 1.256637061435918E-04,      /* J = 25 */
(PID.TID 0000.0001)                 1.308996938995748E-04,      /* J = 26 */
(PID.TID 0000.0001)                 1.361356816555577E-04,      /* J = 27 */
(PID.TID 0000.0001)                 1.413716694115407E-04,      /* J = 28 */
(PID.TID 0000.0001)                 1.466076571675237E-04,      /* J = 29 */
(PID.TID 0000.0001)                 1.518436449235067E-04,      /* J = 30 */
(PID.TID 0000.0001)                 1.570796326794897E-04       /* J = 31 */
(PID.TID 0000.0001)     ;
(PID.TID 0000.0001) 
(PID.TID 0000.0001)  MDSREADFIELD: opening global file: thetaPol.bin
(PID.TID 0000.0001) // =======================================================
(PID.TID 0000.0001) // Field Initial Temperature at iteration          1
(PID.TID 0000.0001) // CMIN =          2.000000000000000E+01
(PID.TID 0000.0001) // CMAX =          2.000099945068359E+01
(PID.TID 0000.0001) // CINT =          3.701669198495371E-05
(PID.TID 0000.0001) // SYMBOLS (CMIN->CMAX): -abcdefghijklmnopqrstuvwxyz+
(PID.TID 0000.0001) //                  0.0: .
(PID.TID 0000.0001) // RANGE I (Lo:Hi:Step):(   1: 120:   1)
(PID.TID 0000.0001) // RANGE J (Lo:Hi:Step):(  31:   1:  -1)
(PID.TID 0000.0001) // RANGE K (Lo:Hi:Step):(   1:   1:   1)
(PID.TID 0000.0001) // =======================================================
(PID.TID 0000.0001) K =   1
(PID.TID 0000.0001)                I=10      I=20      I=30      I=40      I=50      I=60      I=70      I=80      I=90      I=100     I=110     I=120
(PID.TID 0000.0001) |--J--|123456789|123456789|123456789|123456789|123456789|123456789|123456789|123456789|123456789|123456789|123456789|123456789|
(PID.TID 0000.0001)     31 ........................................................................................................................
(PID.TID 0000.0001)     30 jqkmeosabgtxgpnovswlxtomhwbjrvvfwtjzbmdwyosmgblmlswfrzuvmwqfgneqryhcrcdjxgpewppnqtnldbvcsglmkhjqmizdfsjypmxvpbrlknorerac
(PID.TID 0000.0001)     29 epwfxnxnicpxjlsfb-ghoxrykpkvcritpwusuyxzrggtrh+zleqiheyzgditnwepcrwduavvzutnwjmfzctwftosbmdphegggmevcp-ucuzmpuokoxyqqwap
(PID.TID 0000.0001)     28 cghwkxhmovssawbyvmoxyhyzmlajzodsfkbgcugskly++-joetmwqvhhjhxiodlbyrhujpxne-azfmeqgrveiexbzduozr+zpcxvokxpfesufaqjteifgqim
(PID.TID 0000.0001)     27 ypypntlzbrwqwgcnon+gfhittzwumigkpx+qqexykfps-igejsdiyzgcxzovutqomkw-raywgoztezucrtfwcesezfefursyfajdtuukdr-pkihs+cdqjptn
(PID.TID 0000.0001)     26 okayagtjfkuudyasuxerekiundtfztfrituaqwliqilodlnxgufsddaxmzmjqgth+vdcyiiujurczkqarvnqnofdcztvnlymnpbytqtmihicpdqubwfpqdma
(PID.TID 0000.0001)     25 +shwlqggfcwvjpfdonktamdluhutdjgdsnhjrvnxnpnvzjnc-rbusnboqdowjqbmchauhalglwugkbeixbarjgtwjokqtg-sutyalixtyllsi+zrfsefuhas
(PID.TID 0000.0001)     24 ktbnftiwqpaicqqsccfeaypiikitbcwtdszeghxkmq+lcnij-huhqi-tyw+wbod+kyeekiuhjnmbcvipolmftahdgniwrgzynksaucekpwcfzjfeqiqjkydo
(PID.TID 0000.0001)     23 mtsytwtmosljuikvmbr-gojcpvpefzmsybyrvdtaeljnqbcwcxkcsluvxgdovfwirrgzhbxnhumy-mxawonanxgr-hsbtumraplyuwhssxsdnlczcnxh+dtq
(PID.TID 0000.0001)     22 bnopfhxuatjexkkzosskxzetsvoiktakutliphwurlty+dlrckqmhno+bfjzbhwyqwvznekthfypvvwmhlbb-jday+jdmudjcpgichezogzzjdruodvtsnbz
(PID.TID 0000.0001)     21 aiuruchvglazywkelmfvnjgwnxsbvkbg+xqvebfelpjmypdkyhvalhcaujvivlzxqmuqchpjfolsem+xntylspdpcgerdtrvdozygjzykmtepasbz+ojevtx
(PID.TID 0000.0001)     20 qduptxvqho-+kydbdqbdfxrjbydhgbjbdndk-dfugcak+w-harq+jtcikmz+fb-corbukbwki-kyzenfmqpzyfnpxnvualivagouiopralnsl-csvkoduyfw
(PID.TID 0000.0001)     19 unhnwhoajydodykwyeonaudfe+gmcwe-qyusstzsrqerbccdjuupjsrbugccfeibpjjgqaukexrc+yfginw+fvnhbomihnvfxxffuqiphmdxzjdawbctxjmd
(PID.TID 0000.0001)     18 mnlokihg+tt+ybouziufnlxjwqujeuyjvbwpnmedfwizfuyqtiymjn-fjonbfrkaohgyabyamgp-rqy-btzcxtwpkldb+ixkeavj+lxzlpb-bplz+crxqjtr
(PID.TID 0000.0001)     17 ypcvcqgxamuonerteaslib-py-pervlennhegnpdivdk-igtykvqexpakqcwhq+iovacuhkjmvwereingydpgkusxltdkzuplapygwnhpfynkpc+vhtsfxgu
(PID.TID 0000.0001)     16 pcnhwxhsqmcvwltgaecot+qcntmxncji+jgoupkysesfnhelv+fyqsgapiznqvwkspbidoyrtzgxlqrsdcwtuboaofynn-hnzg-ooklqrtgzutziunyrcsqo
(PID.TID 0000.0001)     15 djefm+fkqztxj-ts+wp-mneycedptcn-phullwjpfks-lokdegjdpwssqimory-ayytnbbzt-akg-dcclnlagpiwcu-mpi+pz-o-qsqktdzbrvmlvvzpwcya
(PID.TID 0000.0001)     14 tpofinkljg-dtfzntrrvyxtkrxkihq+vyksjuaumcifjvyobwmumibazyaafpxhivjxi+fgzppqowbhqvikfdpjaetdqaoe+yiuuypmvfarbuvyai-pivk-c
(PID.TID 0000.0001)     13 qnuhzrlqfu-wwwu-svjflrscynlwdlhvslyvrpk+dsugmhkzqkmbsslneyzneczot+xxuzhaccmddnrnbwhtatmefanuttgygneeakztkigtujxuswtvrwqp
(PID.TID 0000.0001)     12 dn+wglekflrazoltz+zuvrdjipvvkzjenplkzwdsulzk-qzwvnutqhsaysdakmilgpotcnjgrzldzxu-nta+ahrbwxoksbphqacseonvrulavreacwaxraui
(PID.TID 0000.0001)     11 uklggyoppbg-pawxfoxxlgwihjvrpcvednlwispvywtniendlgmfoymvpgfgvttezputjq-vlwbcuuu+ukfmjawmdtpdcrbv-qgcdslgdbgdxxhfrrnvcsrw
(PID.TID 0000.0001)     10 zzxqtkkjtfpnkzdpjllvntoqlqc-zt-iuebatj+acod-jjuxtxnncsbo-sflrxez-nl-q-vfqxpc-xhzlfytocshtqqvrjlczlcnxfap-tvrkdbgmgtrqrja
(PID.TID 0000.0001)      9 nftks+ifmvfqlbqjzuxdjh+vrqmpishznwddvucrcfvqrwwexmrenptfjczpkxfsjjhnsqnwhcqovyyvhjtlwmzmzzdvvlcvnnlrhqczdtvxmi+cztyzgutp
(PID.TID 0000.0001)      8 ........................................................................................................................
(PID.TID 0000.0001)      7 ........................................................................................................................
(PID.TID 0000.0001)      6 ........................................................................................................................
(PID.TID 0000.0001)      5 ........................................................................................................................
(PID.TID 0000.0001)      4 ........................................................................................................................
(PID.TID 0000.0001)      3 ........................................................................................................................
(PID.TID 0000.0001)      2 ........................................................................................................................
(PID.TID 0000.0001)      1 ........................................................................................................................
(PID.TID 0000.0001) // =======================================================
(PID.TID 0000.0001) // END OF FIELD                                          =
(PID.TID 0000.0001) // =======================================================
(PID.TID 0000.0001) 
(PID.TID 0000.0001) // =======================================================
(PID.TID 0000.0001) // Field Initial Salinity at iteration          1
(PID.TID 0000.0001) // CMIN =          3.500000000000000E+01
(PID.TID 0000.0001) // CMAX =          3.500000000000000E+01
(PID.TID 0000.0001) // CINT =          0.000000000000000E+00
(PID.TID 0000.0001) // SYMBOLS (CMIN->CMAX): -abcdefghijklmnopqrstuvwxyz+
(PID.TID 0000.0001) //                  0.0: .
(PID.TID 0000.0001) // RANGE I (Lo:Hi:Step):(   1: 120:   1)
(PID.TID 0000.0001) // RANGE J (Lo:Hi:Step):(  31:   1:  -1)
(PID.TID 0000.0001) // RANGE K (Lo:Hi:Step):(   1:   1:   1)
(PID.TID 0000.0001) // =======================================================
(PID.TID 0000.0001) // =======================================================
(PID.TID 0000.0001) // END OF FIELD                                          =
(PID.TID 0000.0001) // =======================================================
(PID.TID 0000.0001) 
(PID.TID 0000.0001) Start initial hydrostatic pressure computation
(PID.TID 0000.0001) Pressure is predetermined for buoyancyRelation OCEANIC
(PID.TID 0000.0001) 
(PID.TID 0000.0001) // =======================================================
(PID.TID 0000.0001) // Model current state
(PID.TID 0000.0001) // =======================================================
(PID.TID 0000.0001) 
(PID.TID 0000.0001) // =======================================================
(PID.TID 0000.0001) // Begin MONITOR dynamic field statistics
(PID.TID 0000.0001) // =======================================================
(PID.TID 0000.0001) %MON time_tsnumber                =                     0
(PID.TID 0000.0001) %MON time_secondsf                =   0.0000000000000E+00
(PID.TID 0000.0001) %MON dynstat_eta_max              =   0.0000000000000E+00
(PID.TID 0000.0001) %MON dynstat_eta_min              =   0.0000000000000E+00
(PID.TID 0000.0001) %MON dynstat_eta_mean             =   0.0000000000000E+00
(PID.TID 0000.0001) %MON dynstat_eta_sd               =   0.0000000000000E+00
(PID.TID 0000.0001) %MON dynstat_eta_del2             =   0.0000000000000E+00
(PID.TID 0000.0001) %MON dynstat_uvel_max             =   0.0000000000000E+00
(PID.TID 0000.0001) %MON dynstat_uvel_min             =   0.0000000000000E+00
(PID.TID 0000.0001) %MON dynstat_uvel_mean            =   0.0000000000000E+00
(PID.TID 0000.0001) %MON dynstat_uvel_sd              =   0.0000000000000E+00
(PID.TID 0000.0001) %MON dynstat_uvel_del2            =   0.0000000000000E+00
(PID.TID 0000.0001) %MON dynstat_vvel_max             =   0.0000000000000E+00
(PID.TID 0000.0001) %MON dynstat_vvel_min             =   0.0000000000000E+00
(PID.TID 0000.0001) %MON dynstat_vvel_mean            =   0.0000000000000E+00
(PID.TID 0000.0001) %MON dynstat_vvel_sd              =   0.0000000000000E+00
(PID.TID 0000.0001) %MON dynstat_vvel_del2            =   0.0000000000000E+00
(PID.TID 0000.0001) %MON dynstat_wvel_max             =   0.0000000000000E+00
(PID.TID 0000.0001) %MON dynstat_wvel_min             =   0.0000000000000E+00
(PID.TID 0000.0001) %MON dynstat_wvel_mean            =   0.0000000000000E+00
(PID.TID 0000.0001) %MON dynstat_wvel_sd              =   0.0000000000000E+00
(PID.TID 0000.0001) %MON dynstat_wvel_del2            =   0.0000000000000E+00
(PID.TID 0000.0001) %MON dynstat_theta_max            =   2.0000999450684E+01
(PID.TID 0000.0001) %MON dynstat_theta_min            =   2.0000000000000E+01
(PID.TID 0000.0001) %MON dynstat_theta_mean           =   2.0000506097539E+01
(PID.TID 0000.0001) %MON dynstat_theta_sd             =   2.8863770164391E-04
(PID.TID 0000.0001) %MON dynstat_theta_del2           =   2.7062929037845E-04
(PID.TID 0000.0001) %MON dynstat_salt_max             =   3.5000000000000E+01
(PID.TID 0000.0001) %MON dynstat_salt_min             =   3.5000000000000E+01
(PID.TID 0000.0001) %MON dynstat_salt_mean            =   3.4999999999986E+01
(PID.TID 0000.0001) %MON dynstat_salt_sd              =   1.4040324458618E-11
(PID.TID 0000.0001) %MON dynstat_salt_del2            =   0.0000000000000E+00
(PID.TID 0000.0001) %MON advcfl_uvel_max              =   0.0000000000000E+00
(PID.TID 0000.0001) %MON advcfl_vvel_max              =   0.0000000000000E+00
(PID.TID 0000.0001) %MON advcfl_wvel_max              =   0.0000000000000E+00
(PID.TID 0000.0001) %MON advcfl_W_hf_max              =   0.0000000000000E+00
(PID.TID 0000.0001) %MON pe_b_mean                    =   0.0000000000000E+00
(PID.TID 0000.0001) %MON ke_max                       =   0.0000000000000E+00
(PID.TID 0000.0001) %MON ke_mean                      =   0.0000000000000E+00
(PID.TID 0000.0001) %MON ke_vol                       =   3.8082386146826E-02
(PID.TID 0000.0001) %MON vort_r_min                   =   0.0000000000000E+00
(PID.TID 0000.0001) %MON vort_r_max                   =   0.0000000000000E+00
(PID.TID 0000.0001) %MON vort_a_mean                  =   5.0000000000232E-01
(PID.TID 0000.0001) %MON vort_a_sd                    =  -1.4171996909340E-13
(PID.TID 0000.0001) %MON vort_p_mean                  =   5.3488372093273E-01
(PID.TID 0000.0001) %MON vort_p_sd                    =   2.2607234994521E-01
(PID.TID 0000.0001) %MON surfExpan_theta_mean         =   0.0000000000000E+00
(PID.TID 0000.0001) %MON surfExpan_salt_mean          =   0.0000000000000E+00
(PID.TID 0000.0001) // =======================================================
(PID.TID 0000.0001) // End MONITOR dynamic field statistics
(PID.TID 0000.0001) // =======================================================
 cg2d: Sum(rhs),rhsMax =   2.52575738102223E-15  2.54626495526243E-07
(PID.TID 0000.0001)                    cg2d_init_res =    1.79605131991234E+01
(PID.TID 0000.0001)                       cg2d_iters =   100
(PID.TID 0000.0001)                         cg2d_res =    9.10810452064786E-08
 cg3d: Sum(rhs),rhsMax =  -8.32667268468867E-16  8.94057495890099E-08
(PID.TID 0000.0001)                    cg3d_init_res =    5.78014489203573E+01
(PID.TID 0000.0001)                       cg3d_iters =    10
(PID.TID 0000.0001)                         cg3d_res =    2.29125546074568E-01
(PID.TID 0000.0001) // =======================================================
(PID.TID 0000.0001) // Begin MONITOR dynamic field statistics
(PID.TID 0000.0001) // =======================================================
(PID.TID 0000.0001) %MON time_tsnumber                =                     1
(PID.TID 0000.0001) %MON time_secondsf                =   1.0000000000000E-01
(PID.TID 0000.0001) %MON dynstat_eta_max              =   7.1336480475353E-09
(PID.TID 0000.0001) %MON dynstat_eta_min              =  -7.3583871238598E-09
(PID.TID 0000.0001) %MON dynstat_eta_mean             =  -1.9972474168067E-11
(PID.TID 0000.0001) %MON dynstat_eta_sd               =   4.1852466764881E-09
(PID.TID 0000.0001) %MON dynstat_eta_del2             =   3.9241247104211E-09
(PID.TID 0000.0001) %MON dynstat_uvel_max             =   8.4185990504402E-08
(PID.TID 0000.0001) %MON dynstat_uvel_min             =  -8.4185991550517E-08
(PID.TID 0000.0001) %MON dynstat_uvel_mean            =  -1.2093383101087E-24
(PID.TID 0000.0001) %MON dynstat_uvel_sd              =   8.9282950016598E-09
(PID.TID 0000.0001) %MON dynstat_uvel_del2            =   3.0679360556715E-09
(PID.TID 0000.0001) %MON dynstat_vvel_max             =   8.8720044112140E-08
(PID.TID 0000.0001) %MON dynstat_vvel_min             =  -8.8720049774966E-08
(PID.TID 0000.0001) %MON dynstat_vvel_mean            =  -6.5467573860597E-16
(PID.TID 0000.0001) %MON dynstat_vvel_sd              =   9.1021344232702E-09
(PID.TID 0000.0001) %MON dynstat_vvel_del2            =   2.8578172581190E-09
(PID.TID 0000.0001) %MON dynstat_wvel_max             =   3.3825388664832E-07
(PID.TID 0000.0001) %MON dynstat_wvel_min             =  -2.7219015811268E-07
(PID.TID 0000.0001) %MON dynstat_wvel_mean            =  -2.1280349728469E-25
(PID.TID 0000.0001) %MON dynstat_wvel_sd              =   5.8295526636026E-08
(PID.TID 0000.0001) %MON dynstat_wvel_del2            =   5.4489383527925E-08
(PID.TID 0000.0001) %MON dynstat_theta_max            =   2.0000994014334E+01
(PID.TID 0000.0001) %MON dynstat_theta_min            =   1.9994446794576E+01
(PID.TID 0000.0001) %MON dynstat_theta_mean           =   2.0000391250740E+01
(PID.TID 0000.0001) %MON dynstat_theta_sd             =   8.3826057293057E-04
(PID.TID 0000.0001) %MON dynstat_theta_del2           =   3.6945169391937E-04
(PID.TID 0000.0001) %MON dynstat_salt_max             =   3.5000000000000E+01
(PID.TID 0000.0001) %MON dynstat_salt_min             =   3.5000000000000E+01
(PID.TID 0000.0001) %MON dynstat_salt_mean            =   3.4999999999986E+01
(PID.TID 0000.0001) %MON dynstat_salt_sd              =   1.4040324458618E-11
(PID.TID 0000.0001) %MON dynstat_salt_del2            =   0.0000000000000E+00
(PID.TID 0000.0001) %MON advcfl_uvel_max              =   1.8915694156740E-06
(PID.TID 0000.0001) %MON advcfl_vvel_max              =   8.8720049774966E-07
(PID.TID 0000.0001) %MON advcfl_wvel_max              =   6.7650777329665E-06
(PID.TID 0000.0001) %MON advcfl_W_hf_max              =   6.7650777329665E-06
(PID.TID 0000.0001) %MON pe_b_mean                    =   5.9254729512280E-16
(PID.TID 0000.0001) %MON ke_max                       =   3.1694490752185E-15
(PID.TID 0000.0001) %MON ke_mean                      =   7.9398722914794E-17
(PID.TID 0000.0001) %MON ke_vol                       =   3.8082386146826E-02
(PID.TID 0000.0001) %MON vort_r_min                   =  -8.9447614910928E-06
(PID.TID 0000.0001) %MON vort_r_max                   =   8.9447616022424E-06
(PID.TID 0000.0001) %MON vort_a_mean                  =   5.0000000000234E-01
(PID.TID 0000.0001) %MON vort_a_sd                    =  -9.1815444136500E-14
(PID.TID 0000.0001) %MON vort_p_mean                  =   5.3488372093275E-01
(PID.TID 0000.0001) %MON vort_p_sd                    =   2.2607234994618E-01
(PID.TID 0000.0001) %MON surfExpan_theta_mean         =   0.0000000000000E+00
(PID.TID 0000.0001) %MON surfExpan_salt_mean          =   0.0000000000000E+00
(PID.TID 0000.0001) // =======================================================
(PID.TID 0000.0001) // End MONITOR dynamic field statistics
(PID.TID 0000.0001) // =======================================================
 cg2d: Sum(rhs),rhsMax =  -1.38777878078145E-16  5.04382260485890E-07
(PID.TID 0000.0001)                    cg2d_init_res =    8.28764588431135E+00
(PID.TID 0000.0001)                       cg2d_iters =    58
(PID.TID 0000.0001)                         cg2d_res =    9.91534988323717E-08
 cg3d: Sum(rhs),rhsMax =  -7.91727794435815E-14  1.77074629166771E-07
(PID.TID 0000.0001)                    cg3d_init_res =    2.66814891218281E+01
(PID.TID 0000.0001)                       cg3d_iters =    10
(PID.TID 0000.0001)                         cg3d_res =    1.59193770092228E+00
(PID.TID 0000.0001) // =======================================================
(PID.TID 0000.0001) // Begin MONITOR dynamic field statistics
(PID.TID 0000.0001) // =======================================================
(PID.TID 0000.0001) %MON time_tsnumber                =                     2
(PID.TID 0000.0001) %MON time_secondsf                =   2.0000000000000E-01
(PID.TID 0000.0001) %MON dynstat_eta_max              =   1.4070631003846E-08
(PID.TID 0000.0001) %MON dynstat_eta_min              =  -1.2984319170393E-07
(PID.TID 0000.0001) %MON dynstat_eta_mean             =   4.3620907496550E-09
(PID.TID 0000.0001) %MON dynstat_eta_sd               =   1.8817998136129E-08
(PID.TID 0000.0001) %MON dynstat_eta_del2             =   6.4420345238844E-09
(PID.TID 0000.0001) %MON dynstat_uvel_max             =   2.5134700649064E-07
(PID.TID 0000.0001) %MON dynstat_uvel_min             =  -2.5033466201416E-07
(PID.TID 0000.0001) %MON dynstat_uvel_mean            =  -4.4554661251288E-17
(PID.TID 0000.0001) %MON dynstat_uvel_sd              =   2.3551889648431E-08
(PID.TID 0000.0001) %MON dynstat_uvel_del2            =   1.7169722131799E-08
(PID.TID 0000.0001) %MON dynstat_vvel_max             =   1.2952615353477E-06
(PID.TID 0000.0001) %MON dynstat_vvel_min             =  -1.2963386691190E-06
(PID.TID 0000.0001) %MON dynstat_vvel_mean            =   1.7066793442179E-16
(PID.TID 0000.0001) %MON dynstat_vvel_sd              =   1.2879630572821E-07
(PID.TID 0000.0001) %MON dynstat_vvel_del2            =   1.6634047840436E-08
(PID.TID 0000.0001) %MON dynstat_wvel_max             =   2.6330211204780E-06
(PID.TID 0000.0001) %MON dynstat_wvel_min             =  -4.4226708206278E-06
(PID.TID 0000.0001) %MON dynstat_wvel_mean            =  -3.6281141422959E-24
(PID.TID 0000.0001) %MON dynstat_wvel_sd              =   4.1694394163772E-07
(PID.TID 0000.0001) %MON dynstat_wvel_del2            =   3.1280162017138E-07
(PID.TID 0000.0001) %MON dynstat_theta_max            =   2.0000990530340E+01
(PID.TID 0000.0001) %MON dynstat_theta_min            =   1.9988838963205E+01
(PID.TID 0000.0001) %MON dynstat_theta_mean           =   2.0000276455827E+01
(PID.TID 0000.0001) %MON dynstat_theta_sd             =   1.6064968957935E-03
(PID.TID 0000.0001) %MON dynstat_theta_del2           =   4.9294820475397E-04
(PID.TID 0000.0001) %MON dynstat_salt_max             =   3.5000000000000E+01
(PID.TID 0000.0001) %MON dynstat_salt_min             =   3.5000000000000E+01
(PID.TID 0000.0001) %MON dynstat_salt_mean            =   3.4999999999986E+01
(PID.TID 0000.0001) %MON dynstat_salt_sd              =   1.4040324458618E-11
(PID.TID 0000.0001) %MON dynstat_salt_del2            =   0.0000000000000E+00
(PID.TID 0000.0001) %MON advcfl_uvel_max              =   5.0530254965477E-06
(PID.TID 0000.0001) %MON advcfl_vvel_max              =   1.2963386691190E-05
(PID.TID 0000.0001) %MON advcfl_wvel_max              =   8.8453416412555E-05
(PID.TID 0000.0001) %MON advcfl_W_hf_max              =   8.8453416412555E-05
(PID.TID 0000.0001) %MON pe_b_mean                    =   1.2622590919237E-14
(PID.TID 0000.0001) %MON ke_max                       =   5.1574492112964E-13
(PID.TID 0000.0001) %MON ke_mean                      =   8.1945788383199E-15
(PID.TID 0000.0001) %MON ke_vol                       =   3.8082386146826E-02
(PID.TID 0000.0001) %MON vort_r_min                   =  -2.2810806691968E-05
(PID.TID 0000.0001) %MON vort_r_max                   =   2.3001048204452E-05
(PID.TID 0000.0001) %MON vort_a_mean                  =   5.0000000000220E-01
(PID.TID 0000.0001) %MON vort_a_sd                    =   8.5435129047705E-07
(PID.TID 0000.0001) %MON vort_p_mean                  =   5.3488372093259E-01
(PID.TID 0000.0001) %MON vort_p_sd                    =   2.2607234995280E-01
(PID.TID 0000.0001) %MON surfExpan_theta_mean         =   0.0000000000000E+00
(PID.TID 0000.0001) %MON surfExpan_salt_mean          =   0.0000000000000E+00
(PID.TID 0000.0001) // =======================================================
(PID.TID 0000.0001) // End MONITOR dynamic field statistics
(PID.TID 0000.0001) // =======================================================
 cg2d: Sum(rhs),rhsMax =  -1.72917236085368E-14  6.59737231788110E-07
(PID.TID 0000.0001)                    cg2d_init_res =    3.89254515994253E+00
(PID.TID 0000.0001)                       cg2d_iters =    46
(PID.TID 0000.0001)                         cg2d_res =    9.65739132020184E-08
 cg3d: Sum(rhs),rhsMax =  -1.19071419391048E-14  2.31644545197470E-07
(PID.TID 0000.0001)                    cg3d_init_res =    1.25861469934541E+01
(PID.TID 0000.0001)                       cg3d_iters =    10
(PID.TID 0000.0001)                         cg3d_res =    1.23335097227882E+00
(PID.TID 0000.0001) // =======================================================
(PID.TID 0000.0001) // Begin MONITOR dynamic field statistics
(PID.TID 0000.0001) // =======================================================
(PID.TID 0000.0001) %MON time_tsnumber                =                     3
(PID.TID 0000.0001) %MON time_secondsf                =   3.0000000000000E-01
(PID.TID 0000.0001) %MON dynstat_eta_max              =   1.8418512099216E-08
(PID.TID 0000.0001) %MON dynstat_eta_min              =  -2.0653697332015E-07
(PID.TID 0000.0001) %MON dynstat_eta_mean             =   7.0960333960122E-09
(PID.TID 0000.0001) %MON dynstat_eta_sd               =   3.0109362880228E-08
(PID.TID 0000.0001) %MON dynstat_eta_del2             =   8.2222928593251E-09
(PID.TID 0000.0001) %MON dynstat_uvel_max             =   2.9175798677290E-07
(PID.TID 0000.0001) %MON dynstat_uvel_min             =  -2.9456277500655E-07
(PID.TID 0000.0001) %MON dynstat_uvel_mean            =  -1.5736092448480E-17
(PID.TID 0000.0001) %MON dynstat_uvel_sd              =   2.9993369680262E-08
(PID.TID 0000.0001) %MON dynstat_uvel_del2            =   2.1016466548017E-08
(PID.TID 0000.0001) %MON dynstat_vvel_max             =   3.0892349689610E-06
(PID.TID 0000.0001) %MON dynstat_vvel_min             =  -3.0998179269227E-06
(PID.TID 0000.0001) %MON dynstat_vvel_mean            =   1.2244421106107E-17
(PID.TID 0000.0001) %MON dynstat_vvel_sd              =   2.9558056115273E-07
(PID.TID 0000.0001) %MON dynstat_vvel_del2            =   2.4123039987266E-08
(PID.TID 0000.0001) %MON dynstat_wvel_max             =   2.8952069445445E-06
(PID.TID 0000.0001) %MON dynstat_wvel_min             =  -7.8307831063958E-06
(PID.TID 0000.0001) %MON dynstat_wvel_mean            =   5.8740172962854E-24
(PID.TID 0000.0001) %MON dynstat_wvel_sd              =   7.2363044104537E-07
(PID.TID 0000.0001) %MON dynstat_wvel_del2            =   3.9555628838371E-07
(PID.TID 0000.0001) %MON dynstat_theta_max            =   2.0000987074119E+01
(PID.TID 0000.0001) %MON dynstat_theta_min            =   1.9983246801799E+01
(PID.TID 0000.0001) %MON dynstat_theta_mean           =   2.0000161693097E+01
(PID.TID 0000.0001) %MON dynstat_theta_sd             =   2.3888437601242E-03
(PID.TID 0000.0001) %MON dynstat_theta_del2           =   6.1571469830526E-04
(PID.TID 0000.0001) %MON dynstat_salt_max             =   3.5000000000000E+01
(PID.TID 0000.0001) %MON dynstat_salt_min             =   3.5000000000000E+01
(PID.TID 0000.0001) %MON dynstat_salt_mean            =   3.4999999999986E+01
(PID.TID 0000.0001) %MON dynstat_salt_sd              =   1.4040324458618E-11
(PID.TID 0000.0001) %MON dynstat_salt_del2            =   0.0000000000000E+00
(PID.TID 0000.0001) %MON advcfl_uvel_max              =   6.0628230936719E-06
(PID.TID 0000.0001) %MON advcfl_vvel_max              =   3.0998179269227E-05
(PID.TID 0000.0001) %MON advcfl_wvel_max              =   1.5661566212792E-04
(PID.TID 0000.0001) %MON advcfl_W_hf_max              =   1.5661566212792E-04
(PID.TID 0000.0001) %MON pe_b_mean                    =   3.2370544895625E-14
(PID.TID 0000.0001) %MON ke_max                       =   2.9099922878202E-12
(PID.TID 0000.0001) %MON ke_mean                      =   4.2148101811436E-14
(PID.TID 0000.0001) %MON ke_vol                       =   3.8082386146826E-02
(PID.TID 0000.0001) %MON vort_r_min                   =  -2.8669583447533E-05
(PID.TID 0000.0001) %MON vort_r_max                   =   2.8558968438850E-05
(PID.TID 0000.0001) %MON vort_a_mean                  =   5.0000000000219E-01
(PID.TID 0000.0001) %MON vort_a_sd                    =   1.1346184857493E-06
(PID.TID 0000.0001) %MON vort_p_mean                  =   5.3488372093259E-01
(PID.TID 0000.0001) %MON vort_p_sd                    =   2.2607234995694E-01
(PID.TID 0000.0001) %MON surfExpan_theta_mean         =   0.0000000000000E+00
(PID.TID 0000.0001) %MON surfExpan_salt_mean          =   0.0000000000000E+00
(PID.TID 0000.0001) // =======================================================
(PID.TID 0000.0001) // End MONITOR dynamic field statistics
(PID.TID 0000.0001) // =======================================================
 cg2d: Sum(rhs),rhsMax =  -6.05071548420710E-15  8.14807314094180E-07
(PID.TID 0000.0001)                    cg2d_init_res =    3.13874880822404E+00
(PID.TID 0000.0001)                       cg2d_iters =    57
(PID.TID 0000.0001)                         cg2d_res =    8.93264413651944E-08
 cg3d: Sum(rhs),rhsMax =  -2.16077156167671E-14  2.85998637579760E-07
(PID.TID 0000.0001)                    cg3d_init_res =    1.01402253082228E+01
(PID.TID 0000.0001)                       cg3d_iters =    10
(PID.TID 0000.0001)                         cg3d_res =    9.73239127567175E-01
(PID.TID 0000.0001) // =======================================================
(PID.TID 0000.0001) // Begin MONITOR dynamic field statistics
(PID.TID 0000.0001) // =======================================================
(PID.TID 0000.0001) %MON time_tsnumber                =                     4
(PID.TID 0000.0001) %MON time_secondsf                =   4.0000000000000E-01
(PID.TID 0000.0001) %MON dynstat_eta_max              =   2.2765106543196E-08
(PID.TID 0000.0001) %MON dynstat_eta_min              =  -2.8309676018867E-07
(PID.TID 0000.0001) %MON dynstat_eta_mean             =   9.8287581671256E-09
(PID.TID 0000.0001) %MON dynstat_eta_sd               =   4.1477607711578E-08
(PID.TID 0000.0001) %MON dynstat_eta_del2             =   9.9959527452213E-09
(PID.TID 0000.0001) %MON dynstat_uvel_max             =   5.4050950231356E-07
(PID.TID 0000.0001) %MON dynstat_uvel_min             =  -5.4562023626351E-07
(PID.TID 0000.0001) %MON dynstat_uvel_mean            =   3.5952756720096E-15
(PID.TID 0000.0001) %MON dynstat_uvel_sd              =   4.9408823244669E-08
(PID.TID 0000.0001) %MON dynstat_uvel_del2            =   3.1857887382015E-08
(PID.TID 0000.0001) %MON dynstat_vvel_max             =   5.6317503884789E-06
(PID.TID 0000.0001) %MON dynstat_vvel_min             =  -5.6550675496236E-06
(PID.TID 0000.0001) %MON dynstat_vvel_mean            =  -8.7188033675305E-18
(PID.TID 0000.0001) %MON dynstat_vvel_sd              =   5.1430172755362E-07
(PID.TID 0000.0001) %MON dynstat_vvel_del2            =   3.8013303083324E-08
(PID.TID 0000.0001) %MON dynstat_wvel_max             =   4.5392623461929E-06
(PID.TID 0000.0001) %MON dynstat_wvel_min             =  -1.3091605012633E-05
(PID.TID 0000.0001) %MON dynstat_wvel_mean            =  -5.5724838463294E-23
(PID.TID 0000.0001) %MON dynstat_wvel_sd              =   1.2370906068399E-06
(PID.TID 0000.0001) %MON dynstat_wvel_del2            =   6.3138786140613E-07
(PID.TID 0000.0001) %MON dynstat_theta_max            =   2.0000983645170E+01
(PID.TID 0000.0001) %MON dynstat_theta_min            =   1.9977668033509E+01
(PID.TID 0000.0001) %MON dynstat_theta_mean           =   2.0000046962493E+01
(PID.TID 0000.0001) %MON dynstat_theta_sd             =   3.1731480641080E-03
(PID.TID 0000.0001) %MON dynstat_theta_del2           =   7.3774032943812E-04
(PID.TID 0000.0001) %MON dynstat_salt_max             =   3.5000000000000E+01
(PID.TID 0000.0001) %MON dynstat_salt_min             =   3.5000000000000E+01
(PID.TID 0000.0001) %MON dynstat_salt_mean            =   3.4999999999986E+01
(PID.TID 0000.0001) %MON dynstat_salt_sd              =   1.4040324458618E-11
(PID.TID 0000.0001) %MON dynstat_salt_del2            =   0.0000000000000E+00
(PID.TID 0000.0001) %MON advcfl_uvel_max              =   1.0969030440291E-05
(PID.TID 0000.0001) %MON advcfl_vvel_max              =   5.6550675496236E-05
(PID.TID 0000.0001) %MON advcfl_wvel_max              =   2.6183210025267E-04
(PID.TID 0000.0001) %MON advcfl_W_hf_max              =   2.6183210025267E-04
(PID.TID 0000.0001) %MON pe_b_mean                    =   6.1464603325510E-14
(PID.TID 0000.0001) %MON ke_max                       =   9.6174946919010E-12
(PID.TID 0000.0001) %MON ke_mean                      =   1.2746224332211E-13
(PID.TID 0000.0001) %MON ke_vol                       =   3.8082386146826E-02
(PID.TID 0000.0001) %MON vort_r_min                   =  -4.9410505762372E-05
(PID.TID 0000.0001) %MON vort_r_max                   =   4.9864620145703E-05
(PID.TID 0000.0001) %MON vort_a_mean                  =   5.0000000000220E-01
(PID.TID 0000.0001) %MON vort_a_sd                    =   1.9437449585660E-06
(PID.TID 0000.0001) %MON vort_p_mean                  =   5.3488372093260E-01
(PID.TID 0000.0001) %MON vort_p_sd                    =   2.2607234997938E-01
(PID.TID 0000.0001) %MON surfExpan_theta_mean         =   0.0000000000000E+00
(PID.TID 0000.0001) %MON surfExpan_salt_mean          =   0.0000000000000E+00
(PID.TID 0000.0001) // =======================================================
(PID.TID 0000.0001) // End MONITOR dynamic field statistics
(PID.TID 0000.0001) // =======================================================
 cg2d: Sum(rhs),rhsMax =   1.11508025035789E-14  9.69511579594051E-07
(PID.TID 0000.0001)                    cg2d_init_res =    2.62047915631509E+00
(PID.TID 0000.0001)                       cg2d_iters =    41
(PID.TID 0000.0001)                         cg2d_res =    8.36919850680510E-08
 cg3d: Sum(rhs),rhsMax =   1.46202494555325E-14  3.40259508892714E-07
(PID.TID 0000.0001)                    cg3d_init_res =    8.45016171592218E+00
(PID.TID 0000.0001)                       cg3d_iters =    10
(PID.TID 0000.0001)                         cg3d_res =    9.25377917753765E-01
(PID.TID 0000.0001) // =======================================================
(PID.TID 0000.0001) // Begin MONITOR dynamic field statistics
(PID.TID 0000.0001) // =======================================================
(PID.TID 0000.0001) %MON time_tsnumber                =                     5
(PID.TID 0000.0001) %MON time_secondsf                =   5.0000000000000E-01
(PID.TID 0000.0001) %MON dynstat_eta_max              =   2.7110436013866E-08
(PID.TID 0000.0001) %MON dynstat_eta_min              =  -3.5947612048289E-07
(PID.TID 0000.0001) %MON dynstat_eta_mean             =   1.2559561190084E-08
(PID.TID 0000.0001) %MON dynstat_eta_sd               =   5.2846892283323E-08
(PID.TID 0000.0001) %MON dynstat_eta_del2             =   1.1758979119279E-08
(PID.TID 0000.0001) %MON dynstat_uvel_max             =   8.5080066876246E-07
(PID.TID 0000.0001) %MON dynstat_uvel_min             =  -8.4959514544429E-07
(PID.TID 0000.0001) %MON dynstat_uvel_mean            =   2.0880158569069E-14
(PID.TID 0000.0001) %MON dynstat_uvel_sd              =   7.6161013267368E-08
(PID.TID 0000.0001) %MON dynstat_uvel_del2            =   4.1061860335401E-08
(PID.TID 0000.0001) %MON dynstat_vvel_max             =   8.7168858553833E-06
(PID.TID 0000.0001) %MON dynstat_vvel_min             =  -8.7707257940558E-06
(PID.TID 0000.0001) %MON dynstat_vvel_mean            =   8.8191276312908E-17
(PID.TID 0000.0001) %MON dynstat_vvel_sd              =   7.7840923566585E-07
(PID.TID 0000.0001) %MON dynstat_vvel_del2            =   5.2832905411544E-08
(PID.TID 0000.0001) %MON dynstat_wvel_max             =   5.7280555797731E-06
(PID.TID 0000.0001) %MON dynstat_wvel_min             =  -1.9483823796634E-05
(PID.TID 0000.0001) %MON dynstat_wvel_mean            =   3.1316513398350E-23
(PID.TID 0000.0001) %MON dynstat_wvel_sd              =   1.8315730252916E-06
(PID.TID 0000.0001) %MON dynstat_wvel_del2            =   8.5665294031474E-07
(PID.TID 0000.0001) %MON dynstat_theta_max            =   2.0000981080157E+01
(PID.TID 0000.0001) %MON dynstat_theta_min            =   1.9972102817517E+01
(PID.TID 0000.0001) %MON dynstat_theta_mean           =   1.9999932263921E+01
(PID.TID 0000.0001) %MON dynstat_theta_sd             =   3.9568689476171E-03
(PID.TID 0000.0001) %MON dynstat_theta_del2           =   8.5905029554135E-04
(PID.TID 0000.0001) %MON dynstat_salt_max             =   3.5000000000000E+01
(PID.TID 0000.0001) %MON dynstat_salt_min             =   3.5000000000000E+01
(PID.TID 0000.0001) %MON dynstat_salt_mean            =   3.4999999999986E+01
(PID.TID 0000.0001) %MON dynstat_salt_sd              =   1.4040324458618E-11
(PID.TID 0000.0001) %MON dynstat_salt_del2            =   0.0000000000000E+00
(PID.TID 0000.0001) %MON advcfl_uvel_max              =   1.7104311412981E-05
(PID.TID 0000.0001) %MON advcfl_vvel_max              =   8.7707257940558E-05
(PID.TID 0000.0001) %MON advcfl_wvel_max              =   3.8967647593268E-04
(PID.TID 0000.0001) %MON advcfl_W_hf_max              =   3.8967647593268E-04
(PID.TID 0000.0001) %MON pe_b_mean                    =   9.9809531236801E-14
(PID.TID 0000.0001) %MON ke_max                       =   2.3228267346312E-11
(PID.TID 0000.0001) %MON ke_mean                      =   2.9208978864286E-13
(PID.TID 0000.0001) %MON ke_vol                       =   3.8082386146826E-02
(PID.TID 0000.0001) %MON vort_r_min                   =  -7.3540126271793E-05
(PID.TID 0000.0001) %MON vort_r_max                   =   7.3323517047519E-05
(PID.TID 0000.0001) %MON vort_a_mean                  =   5.0000000000220E-01
(PID.TID 0000.0001) %MON vort_a_sd                    =   3.1042108870183E-06
(PID.TID 0000.0001) %MON vort_p_mean                  =   5.3488372093260E-01
(PID.TID 0000.0001) %MON vort_p_sd                    =   2.2607235003910E-01
(PID.TID 0000.0001) %MON surfExpan_theta_mean         =   0.0000000000000E+00
(PID.TID 0000.0001) %MON surfExpan_salt_mean          =   0.0000000000000E+00
(PID.TID 0000.0001) // =======================================================
(PID.TID 0000.0001) // End MONITOR dynamic field statistics
(PID.TID 0000.0001) // =======================================================
 cg2d: Sum(rhs),rhsMax =  -5.06122921350993E-14  1.12382114737613E-06
(PID.TID 0000.0001)                    cg2d_init_res =    2.24579214371362E+00
(PID.TID 0000.0001)                       cg2d_iters =    41
(PID.TID 0000.0001)                         cg2d_res =    8.17778378966975E-08
 cg3d: Sum(rhs),rhsMax =  -1.04923014720981E-13  3.94286076604051E-07
(PID.TID 0000.0001)                    cg3d_init_res =    7.25510949978180E+00
(PID.TID 0000.0001)                       cg3d_iters =    10
(PID.TID 0000.0001)                         cg3d_res =    7.17703384429435E-01
(PID.TID 0000.0001) // =======================================================
(PID.TID 0000.0001) // Begin MONITOR dynamic field statistics
(PID.TID 0000.0001) // =======================================================
(PID.TID 0000.0001) %MON time_tsnumber                =                     6
(PID.TID 0000.0001) %MON time_secondsf                =   6.0000000000000E-01
(PID.TID 0000.0001) %MON dynstat_eta_max              =   3.1481885357598E-08
(PID.TID 0000.0001) %MON dynstat_eta_min              =  -4.3562658064326E-07
(PID.TID 0000.0001) %MON dynstat_eta_mean             =   1.5288412904934E-08
(PID.TID 0000.0001) %MON dynstat_eta_sd               =   6.4198813642165E-08
(PID.TID 0000.0001) %MON dynstat_eta_del2             =   1.3511819337732E-08
(PID.TID 0000.0001) %MON dynstat_uvel_max             =   1.2625880755925E-06
(PID.TID 0000.0001) %MON dynstat_uvel_min             =  -1.2738776524086E-06
(PID.TID 0000.0001) %MON dynstat_uvel_mean            =   7.2785669545662E-14
(PID.TID 0000.0001) %MON dynstat_uvel_sd              =   1.1738464571005E-07
(PID.TID 0000.0001) %MON dynstat_uvel_del2            =   4.9500668295556E-08
(PID.TID 0000.0001) %MON dynstat_vvel_max             =   1.2510865059926E-05
(PID.TID 0000.0001) %MON dynstat_vvel_min             =  -1.2596543975251E-05
(PID.TID 0000.0001) %MON dynstat_vvel_mean            =  -1.0149997136457E-17
(PID.TID 0000.0001) %MON dynstat_vvel_sd              =   1.0921688510706E-06
(PID.TID 0000.0001) %MON dynstat_vvel_del2            =   6.8362484285642E-08
(PID.TID 0000.0001) %MON dynstat_wvel_max             =   6.8722402845312E-06
(PID.TID 0000.0001) %MON dynstat_wvel_min             =  -2.5366257989092E-05
(PID.TID 0000.0001) %MON dynstat_wvel_mean            =  -2.8313994323349E-23
(PID.TID 0000.0001) %MON dynstat_wvel_sd              =   2.5566108194548E-06
(PID.TID 0000.0001) %MON dynstat_wvel_del2            =   1.0944044802078E-06
(PID.TID 0000.0001) %MON dynstat_theta_max            =   2.0000979689030E+01
(PID.TID 0000.0001) %MON dynstat_theta_min            =   1.9966552676621E+01
(PID.TID 0000.0001) %MON dynstat_theta_mean           =   1.9999817597288E+01
(PID.TID 0000.0001) %MON dynstat_theta_sd             =   4.7391590932058E-03
(PID.TID 0000.0001) %MON dynstat_theta_del2           =   9.7966705489519E-04
(PID.TID 0000.0001) %MON dynstat_salt_max             =   3.5000000000000E+01
(PID.TID 0000.0001) %MON dynstat_salt_min             =   3.5000000000000E+01
(PID.TID 0000.0001) %MON dynstat_salt_mean            =   3.4999999999986E+01
(PID.TID 0000.0001) %MON dynstat_salt_sd              =   1.4040324458618E-11
(PID.TID 0000.0001) %MON dynstat_salt_del2            =   0.0000000000000E+00
(PID.TID 0000.0001) %MON advcfl_uvel_max              =   2.5609758982122E-05
(PID.TID 0000.0001) %MON advcfl_vvel_max              =   1.2596543975251E-04
(PID.TID 0000.0001) %MON advcfl_wvel_max              =   5.0732515978184E-04
(PID.TID 0000.0001) %MON advcfl_W_hf_max              =   5.0732515978184E-04
(PID.TID 0000.0001) %MON pe_b_mean                    =   1.4732668967620E-13
(PID.TID 0000.0001) %MON ke_max                       =   4.8027538447533E-11
(PID.TID 0000.0001) %MON ke_mean                      =   5.7619614080191E-13
(PID.TID 0000.0001) %MON ke_vol                       =   3.8082386146826E-02
(PID.TID 0000.0001) %MON vort_r_min                   =  -1.0936877874019E-04
(PID.TID 0000.0001) %MON vort_r_max                   =   1.1107062153464E-04
(PID.TID 0000.0001) %MON vort_a_mean                  =   5.0000000000220E-01
(PID.TID 0000.0001) %MON vort_a_sd                    =   4.9039028722691E-06
(PID.TID 0000.0001) %MON vort_p_mean                  =   5.3488372093259E-01
(PID.TID 0000.0001) %MON vort_p_sd                    =   2.2607235020259E-01
(PID.TID 0000.0001) %MON surfExpan_theta_mean         =   0.0000000000000E+00
(PID.TID 0000.0001) %MON surfExpan_salt_mean          =   0.0000000000000E+00
(PID.TID 0000.0001) // =======================================================
(PID.TID 0000.0001) // End MONITOR dynamic field statistics
(PID.TID 0000.0001) // =======================================================
 cg2d: Sum(rhs),rhsMax =  -8.10601585854442E-14  1.27772288659935E-06
(PID.TID 0000.0001)                    cg2d_init_res =    1.96231579139108E+00
(PID.TID 0000.0001)                       cg2d_iters =    40
(PID.TID 0000.0001)                         cg2d_res =    9.84347709885640E-08
 cg3d: Sum(rhs),rhsMax =   3.27439464431478E-13  4.48167542076563E-07
(PID.TID 0000.0001)                    cg3d_init_res =    6.32909891276555E+00
(PID.TID 0000.0001)                       cg3d_iters =    10
(PID.TID 0000.0001)                         cg3d_res =    7.18451345881734E-01
(PID.TID 0000.0001) // =======================================================
(PID.TID 0000.0001) // Begin MONITOR dynamic field statistics
(PID.TID 0000.0001) // =======================================================
(PID.TID 0000.0001) %MON time_tsnumber                =                     7
(PID.TID 0000.0001) %MON time_secondsf                =   7.0000000000000E-01
(PID.TID 0000.0001) %MON dynstat_eta_max              =   3.5850801581248E-08
(PID.TID 0000.0001) %MON dynstat_eta_min              =  -5.1154836288703E-07
(PID.TID 0000.0001) %MON dynstat_eta_mean             =   1.8015281782449E-08
(PID.TID 0000.0001) %MON dynstat_eta_sd               =   7.5526126761625E-08
(PID.TID 0000.0001) %MON dynstat_eta_del2             =   1.5255021465224E-08
(PID.TID 0000.0001) %MON dynstat_uvel_max             =   1.9280864867369E-06
(PID.TID 0000.0001) %MON dynstat_uvel_min             =  -1.9293990015874E-06
(PID.TID 0000.0001) %MON dynstat_uvel_mean            =   1.9604460752046E-13
(PID.TID 0000.0001) %MON dynstat_uvel_sd              =   1.7459279838432E-07
(PID.TID 0000.0001) %MON dynstat_uvel_del2            =   6.0883628177829E-08
(PID.TID 0000.0001) %MON dynstat_vvel_max             =   1.6838371559835E-05
(PID.TID 0000.0001) %MON dynstat_vvel_min             =  -1.6980453713087E-05
(PID.TID 0000.0001) %MON dynstat_vvel_mean            =   4.3741926059602E-17
(PID.TID 0000.0001) %MON dynstat_vvel_sd              =   1.4499311425524E-06
(PID.TID 0000.0001) %MON dynstat_vvel_del2            =   8.6478314950026E-08
(PID.TID 0000.0001) %MON dynstat_wvel_max             =   8.9796613784196E-06
(PID.TID 0000.0001) %MON dynstat_wvel_min             =  -3.4438036043408E-05
(PID.TID 0000.0001) %MON dynstat_wvel_mean            =   9.8422460614206E-24
(PID.TID 0000.0001) %MON dynstat_wvel_sd              =   3.3904886854782E-06
(PID.TID 0000.0001) %MON dynstat_wvel_del2            =   1.3924317130095E-06
(PID.TID 0000.0001) %MON dynstat_theta_max            =   2.0000978296376E+01
(PID.TID 0000.0001) %MON dynstat_theta_min            =   1.9961017240353E+01
(PID.TID 0000.0001) %MON dynstat_theta_mean           =   1.9999702962503E+01
(PID.TID 0000.0001) %MON dynstat_theta_sd             =   5.5196621547140E-03
(PID.TID 0000.0001) %MON dynstat_theta_del2           =   1.0996353551127E-03
(PID.TID 0000.0001) %MON dynstat_salt_max             =   3.5000000000000E+01
(PID.TID 0000.0001) %MON dynstat_salt_min             =   3.5000000000000E+01
(PID.TID 0000.0001) %MON dynstat_salt_mean            =   3.4999999999986E+01
(PID.TID 0000.0001) %MON dynstat_salt_sd              =   1.4040324458618E-11
(PID.TID 0000.0001) %MON dynstat_salt_del2            =   0.0000000000000E+00
(PID.TID 0000.0001) %MON advcfl_uvel_max              =   3.8788217469373E-05
(PID.TID 0000.0001) %MON advcfl_vvel_max              =   1.6980453713087E-04
(PID.TID 0000.0001) %MON advcfl_wvel_max              =   6.8876072086817E-04
(PID.TID 0000.0001) %MON advcfl_W_hf_max              =   6.8876072086817E-04
(PID.TID 0000.0001) %MON pe_b_mean                    =   2.0393793184440E-13
(PID.TID 0000.0001) %MON ke_max                       =   8.7835357700697E-11
(PID.TID 0000.0001) %MON ke_mean                      =   1.0186119290101E-12
(PID.TID 0000.0001) %MON ke_vol                       =   3.8082386146826E-02
(PID.TID 0000.0001) %MON vort_r_min                   =  -1.5489149908385E-04
(PID.TID 0000.0001) %MON vort_r_max                   =   1.5502563786541E-04
(PID.TID 0000.0001) %MON vort_a_mean                  =   5.0000000000219E-01
(PID.TID 0000.0001) %MON vort_a_sd                    =   7.4224836331776E-06
(PID.TID 0000.0001) %MON vort_p_mean                  =   5.3488372093259E-01
(PID.TID 0000.0001) %MON vort_p_sd                    =   2.2607235057892E-01
(PID.TID 0000.0001) %MON surfExpan_theta_mean         =   0.0000000000000E+00
(PID.TID 0000.0001) %MON surfExpan_salt_mean          =   0.0000000000000E+00
(PID.TID 0000.0001) // =======================================================
(PID.TID 0000.0001) // End MONITOR dynamic field statistics
(PID.TID 0000.0001) // =======================================================
 cg2d: Sum(rhs),rhsMax =   8.61810622865278E-15  1.43119528057804E-06
(PID.TID 0000.0001)                    cg2d_init_res =    1.74040958859134E+00
(PID.TID 0000.0001)                       cg2d_iters =    40
(PID.TID 0000.0001)                         cg2d_res =    9.52099722157138E-08
 cg3d: Sum(rhs),rhsMax =  -8.48418557630737E-14  5.01799148638191E-07
(PID.TID 0000.0001)                    cg3d_init_res =    5.62169476416053E+00
(PID.TID 0000.0001)                       cg3d_iters =    10
(PID.TID 0000.0001)                         cg3d_res =    5.68597649490866E-01
(PID.TID 0000.0001) // =======================================================
(PID.TID 0000.0001) // Begin MONITOR dynamic field statistics
(PID.TID 0000.0001) // =======================================================
(PID.TID 0000.0001) %MON time_tsnumber                =                     8
(PID.TID 0000.0001) %MON time_secondsf                =   8.0000000000000E-01
(PID.TID 0000.0001) %MON dynstat_eta_max              =   4.0217114693892E-08
(PID.TID 0000.0001) %MON dynstat_eta_min              =  -5.8724191451883E-07
(PID.TID 0000.0001) %MON dynstat_eta_mean             =   2.0740124042408E-08
(PID.TID 0000.0001) %MON dynstat_eta_sd               =   8.6825430679332E-08
(PID.TID 0000.0001) %MON dynstat_eta_del2             =   1.6988994308014E-08
(PID.TID 0000.0001) %MON dynstat_uvel_max             =   2.6048676699471E-06
(PID.TID 0000.0001) %MON dynstat_uvel_min             =  -2.6242383996220E-06
(PID.TID 0000.0001) %MON dynstat_uvel_mean            =   4.4864139603044E-13
(PID.TID 0000.0001) %MON dynstat_uvel_sd              =   2.4911610387413E-07
(PID.TID 0000.0001) %MON dynstat_uvel_del2            =   6.8131680006375E-08
(PID.TID 0000.0001) %MON dynstat_vvel_max             =   2.1833541990726E-05
(PID.TID 0000.0001) %MON dynstat_vvel_min             =  -2.2032689510228E-05
(PID.TID 0000.0001) %MON dynstat_vvel_mean            =   2.4190083206273E-17
(PID.TID 0000.0001) %MON dynstat_vvel_sd              =   1.8559737667335E-06
(PID.TID 0000.0001) %MON dynstat_vvel_del2            =   1.0312984363125E-07
(PID.TID 0000.0001) %MON dynstat_wvel_max             =   1.0117952327155E-05
(PID.TID 0000.0001) %MON dynstat_wvel_min             =  -4.2077236317383E-05
(PID.TID 0000.0001) %MON dynstat_wvel_mean            =   2.4981916488370E-22
(PID.TID 0000.0001) %MON dynstat_wvel_sd              =   4.3373617965216E-06
(PID.TID 0000.0001) %MON dynstat_wvel_del2            =   1.6460962908138E-06
(PID.TID 0000.0001) %MON dynstat_theta_max            =   2.0000976902293E+01
(PID.TID 0000.0001) %MON dynstat_theta_min            =   1.9955496057557E+01
(PID.TID 0000.0001) %MON dynstat_theta_mean           =   1.9999588359473E+01
(PID.TID 0000.0001) %MON dynstat_theta_sd             =   6.2982069459348E-03
(PID.TID 0000.0001) %MON dynstat_theta_del2           =   1.2189916619533E-03
(PID.TID 0000.0001) %MON dynstat_salt_max             =   3.5000000000000E+01
(PID.TID 0000.0001) %MON dynstat_salt_min             =   3.5000000000000E+01
(PID.TID 0000.0001) %MON dynstat_salt_mean            =   3.4999999999986E+01
(PID.TID 0000.0001) %MON dynstat_salt_sd              =   1.4040324458618E-11
(PID.TID 0000.0001) %MON dynstat_salt_del2            =   0.0000000000000E+00
(PID.TID 0000.0001) %MON advcfl_uvel_max              =   5.2757117450704E-05
(PID.TID 0000.0001) %MON advcfl_vvel_max              =   2.2032689510228E-04
(PID.TID 0000.0001) %MON advcfl_wvel_max              =   8.4154472634766E-04
(PID.TID 0000.0001) %MON advcfl_W_hf_max              =   8.4154472634766E-04
(PID.TID 0000.0001) %MON pe_b_mean                    =   2.6956554492907E-13
(PID.TID 0000.0001) %MON ke_max                       =   1.4850766510640E-10
(PID.TID 0000.0001) %MON ke_mean                      =   1.6750614865784E-12
(PID.TID 0000.0001) %MON ke_vol                       =   3.8082386146826E-02
(PID.TID 0000.0001) %MON vort_r_min                   =  -2.1053475228318E-04
(PID.TID 0000.0001) %MON vort_r_max                   =   2.1394303800020E-04
(PID.TID 0000.0001) %MON vort_a_mean                  =   5.0000000000220E-01
(PID.TID 0000.0001) %MON vort_a_sd                    =   1.0733701116977E-05
(PID.TID 0000.0001) %MON vort_p_mean                  =   5.3488372093259E-01
(PID.TID 0000.0001) %MON vort_p_sd                    =   2.2607235134492E-01
(PID.TID 0000.0001) %MON surfExpan_theta_mean         =   0.0000000000000E+00
(PID.TID 0000.0001) %MON surfExpan_salt_mean          =   0.0000000000000E+00
(PID.TID 0000.0001) // =======================================================
(PID.TID 0000.0001) // End MONITOR dynamic field statistics
(PID.TID 0000.0001) // =======================================================
 cg2d: Sum(rhs),rhsMax =   2.87894708073111E-14  1.58422879535131E-06
(PID.TID 0000.0001)                    cg2d_init_res =    1.56200789849930E+00
(PID.TID 0000.0001)                       cg2d_iters =    40
(PID.TID 0000.0001)                         cg2d_res =    8.87841330120370E-08
 cg3d: Sum(rhs),rhsMax =   3.33691407838899E-14  5.55244817174393E-07
(PID.TID 0000.0001)                    cg3d_init_res =    5.03967325435471E+00
(PID.TID 0000.0001)                       cg3d_iters =    10
(PID.TID 0000.0001)                         cg3d_res =    5.70939155754103E-01
(PID.TID 0000.0001) // =======================================================
(PID.TID 0000.0001) // Begin MONITOR dynamic field statistics
(PID.TID 0000.0001) // =======================================================
(PID.TID 0000.0001) %MON time_tsnumber                =                     9
(PID.TID 0000.0001) %MON time_secondsf                =   9.0000000000000E-01
(PID.TID 0000.0001) %MON dynstat_eta_max              =   4.4580751170251E-08
(PID.TID 0000.0001) %MON dynstat_eta_min              =  -6.6270712356967E-07
(PID.TID 0000.0001) %MON dynstat_eta_mean             =   2.3462895149847E-08
(PID.TID 0000.0001) %MON dynstat_eta_sd               =   9.8094936807477E-08
(PID.TID 0000.0001) %MON dynstat_eta_del2             =   1.8714393726956E-08
(PID.TID 0000.0001) %MON dynstat_uvel_max             =   3.6766944965887E-06
(PID.TID 0000.0001) %MON dynstat_uvel_min             =  -3.6850394824864E-06
(PID.TID 0000.0001) %MON dynstat_uvel_mean            =   9.1702900322300E-13
(PID.TID 0000.0001) %MON dynstat_uvel_sd              =   3.4420806625811E-07
(PID.TID 0000.0001) %MON dynstat_uvel_del2            =   7.9966383138828E-08
(PID.TID 0000.0001) %MON dynstat_vvel_max             =   2.7344385092123E-05
(PID.TID 0000.0001) %MON dynstat_vvel_min             =  -2.7629979000490E-05
(PID.TID 0000.0001) %MON dynstat_vvel_mean            =  -4.6777780260541E-18
(PID.TID 0000.0001) %MON dynstat_vvel_sd              =   2.3055287313812E-06
(PID.TID 0000.0001) %MON dynstat_vvel_del2            =   1.2329345134448E-07
(PID.TID 0000.0001) %MON dynstat_wvel_max             =   1.2213718851859E-05
(PID.TID 0000.0001) %MON dynstat_wvel_min             =  -5.2385319165476E-05
(PID.TID 0000.0001) %MON dynstat_wvel_mean            =   3.7445321569752E-23
(PID.TID 0000.0001) %MON dynstat_wvel_sd              =   5.3999353041785E-06
(PID.TID 0000.0001) %MON dynstat_wvel_del2            =   1.9817400917519E-06
(PID.TID 0000.0001) %MON dynstat_theta_max            =   2.0000975506948E+01
(PID.TID 0000.0001) %MON dynstat_theta_min            =   1.9949988673689E+01
(PID.TID 0000.0001) %MON dynstat_theta_mean           =   1.9999473788108E+01
(PID.TID 0000.0001) %MON dynstat_theta_sd             =   7.0747047563044E-03
(PID.TID 0000.0001) %MON dynstat_theta_del2           =   1.3377318942673E-03
(PID.TID 0000.0001) %MON dynstat_salt_max             =   3.5000000000000E+01
(PID.TID 0000.0001) %MON dynstat_salt_min             =   3.5000000000000E+01
(PID.TID 0000.0001) %MON dynstat_salt_mean            =   3.4999999999986E+01
(PID.TID 0000.0001) %MON dynstat_salt_sd              =   1.4040324458618E-11
(PID.TID 0000.0001) %MON dynstat_salt_del2            =   0.0000000000000E+00
(PID.TID 0000.0001) %MON advcfl_uvel_max              =   7.4083231468613E-05
(PID.TID 0000.0001) %MON advcfl_vvel_max              =   2.7629979000490E-04
(PID.TID 0000.0001) %MON advcfl_wvel_max              =   1.0477063833095E-03
(PID.TID 0000.0001) %MON advcfl_W_hf_max              =   1.0477063833095E-03
(PID.TID 0000.0001) %MON pe_b_mean                    =   3.4413223167681E-13
(PID.TID 0000.0001) %MON ke_max                       =   2.3525400701455E-10
(PID.TID 0000.0001) %MON ke_mean                      =   2.5961649908861E-12
(PID.TID 0000.0001) %MON ke_vol                       =   3.8082386146826E-02
(PID.TID 0000.0001) %MON vort_r_min                   =  -2.8301888116536E-04
(PID.TID 0000.0001) %MON vort_r_max                   =   2.8423844328829E-04
(PID.TID 0000.0001) %MON vort_a_mean                  =   5.0000000000220E-01
(PID.TID 0000.0001) %MON vort_a_sd                    =   1.4982628523880E-05
(PID.TID 0000.0001) %MON vort_p_mean                  =   5.3488372093259E-01
(PID.TID 0000.0001) %MON vort_p_sd                    =   2.2607235277943E-01
(PID.TID 0000.0001) %MON surfExpan_theta_mean         =   0.0000000000000E+00
(PID.TID 0000.0001) %MON surfExpan_salt_mean          =   0.0000000000000E+00
(PID.TID 0000.0001) // =======================================================
(PID.TID 0000.0001) // End MONITOR dynamic field statistics
(PID.TID 0000.0001) // =======================================================
 cg2d: Sum(rhs),rhsMax =  -3.68940988870747E-14  1.73680195559882E-06
(PID.TID 0000.0001)                    cg2d_init_res =    1.41549310354983E+00
(PID.TID 0000.0001)                       cg2d_iters =    40
(PID.TID 0000.0001)                         cg2d_res =    7.99324467615151E-08
 cg3d: Sum(rhs),rhsMax =  -1.34545152796761E-14  6.08434611922992E-07
(PID.TID 0000.0001)                    cg3d_init_res =    4.57225138005376E+00
(PID.TID 0000.0001)                       cg3d_iters =    10
(PID.TID 0000.0001)                         cg3d_res =    4.70796638921452E-01
(PID.TID 0000.0001) // =======================================================
(PID.TID 0000.0001) // Begin MONITOR dynamic field statistics
(PID.TID 0000.0001) // =======================================================
(PID.TID 0000.0001) %MON time_tsnumber                =                    10
(PID.TID 0000.0001) %MON time_secondsf                =   1.0000000000000E+00
(PID.TID 0000.0001) %MON dynstat_eta_max              =   4.8941613291258E-08
(PID.TID 0000.0001) %MON dynstat_eta_min              =  -7.3794434551299E-07
(PID.TID 0000.0001) %MON dynstat_eta_mean             =   2.6183537038797E-08
(PID.TID 0000.0001) %MON dynstat_eta_sd               =   1.0933361334926E-07
(PID.TID 0000.0001) %MON dynstat_eta_del2             =   2.0430705889822E-08
(PID.TID 0000.0001) %MON dynstat_uvel_max             =   4.7588156397722E-06
(PID.TID 0000.0001) %MON dynstat_uvel_min             =  -4.7920922255400E-06
(PID.TID 0000.0001) %MON dynstat_uvel_mean            =   1.7220917156472E-12
(PID.TID 0000.0001) %MON dynstat_uvel_sd              =   4.6057325623339E-07
(PID.TID 0000.0001) %MON dynstat_uvel_del2            =   8.7057603674962E-08
(PID.TID 0000.0001) %MON dynstat_vvel_max             =   3.3493580292696E-05
(PID.TID 0000.0001) %MON dynstat_vvel_min             =  -3.3865615857468E-05
(PID.TID 0000.0001) %MON dynstat_vvel_mean            =  -5.3333057113600E-19
(PID.TID 0000.0001) %MON dynstat_vvel_sd              =   2.8017592905228E-06
(PID.TID 0000.0001) %MON dynstat_vvel_del2            =   1.4100666994645E-07
(PID.TID 0000.0001) %MON dynstat_wvel_max             =   1.3310878257164E-05
(PID.TID 0000.0001) %MON dynstat_wvel_min             =  -6.1664665263791E-05
(PID.TID 0000.0001) %MON dynstat_wvel_mean            =  -4.2758191894355E-22
(PID.TID 0000.0001) %MON dynstat_wvel_sd              =   6.5719083553703E-06
(PID.TID 0000.0001) %MON dynstat_wvel_del2            =   2.2566513513321E-06
(PID.TID 0000.0001) %MON dynstat_theta_max            =   2.0000974110405E+01
(PID.TID 0000.0001) %MON dynstat_theta_min            =   1.9944494543018E+01
(PID.TID 0000.0001) %MON dynstat_theta_mean           =   1.9999359248315E+01
(PID.TID 0000.0001) %MON dynstat_theta_sd             =   7.8491081215004E-03
(PID.TID 0000.0001) %MON dynstat_theta_del2           =   1.4558840143135E-03
(PID.TID 0000.0001) %MON dynstat_salt_max             =   3.5000000000000E+01
(PID.TID 0000.0001) %MON dynstat_salt_min             =   3.5000000000000E+01
(PID.TID 0000.0001) %MON dynstat_salt_mean            =   3.4999999999986E+01
(PID.TID 0000.0001) %MON dynstat_salt_sd              =   1.4040324458618E-11
(PID.TID 0000.0001) %MON dynstat_salt_del2            =   0.0000000000000E+00
(PID.TID 0000.0001) %MON advcfl_uvel_max              =   9.6339178793296E-05
(PID.TID 0000.0001) %MON advcfl_vvel_max              =   3.3865615857468E-04
(PID.TID 0000.0001) %MON advcfl_wvel_max              =   1.2332933052758E-03
(PID.TID 0000.0001) %MON advcfl_W_hf_max              =   1.2332933052758E-03
(PID.TID 0000.0001) %MON pe_b_mean                    =   4.2756095531333E-13
(PID.TID 0000.0001) %MON ke_max                       =   3.5517349960877E-10
(PID.TID 0000.0001) %MON ke_mean                      =   3.8525856249662E-12
(PID.TID 0000.0001) %MON ke_vol                       =   3.8082386146826E-02
(PID.TID 0000.0001) %MON vort_r_min                   =  -3.6634387505984E-04
(PID.TID 0000.0001) %MON vort_r_max                   =   3.7224269657937E-04
(PID.TID 0000.0001) %MON vort_a_mean                  =   5.0000000000220E-01
(PID.TID 0000.0001) %MON vort_a_sd                    =   2.0221279286263E-05
(PID.TID 0000.0001) %MON vort_p_mean                  =   5.3488372093260E-01
(PID.TID 0000.0001) %MON vort_p_sd                    =   2.2607235526228E-01
(PID.TID 0000.0001) %MON surfExpan_theta_mean         =   0.0000000000000E+00
(PID.TID 0000.0001) %MON surfExpan_salt_mean          =   0.0000000000000E+00
(PID.TID 0000.0001) // =======================================================
(PID.TID 0000.0001) // End MONITOR dynamic field statistics
(PID.TID 0000.0001) // =======================================================
 cg2d: Sum(rhs),rhsMax =  -2.16493489801906E-14  1.88890954369534E-06
(PID.TID 0000.0001)                    cg2d_init_res =    1.29303410855022E+00
(PID.TID 0000.0001)                       cg2d_iters =    39
(PID.TID 0000.0001)                         cg2d_res =    9.14262603000979E-08
 cg3d: Sum(rhs),rhsMax =  -2.25968549427691E-13  6.61394216339464E-07
(PID.TID 0000.0001)                    cg3d_init_res =    4.17376795399111E+00
(PID.TID 0000.0001)                       cg3d_iters =    10
(PID.TID 0000.0001)                         cg3d_res =    4.67281171657822E-01
(PID.TID 0000.0001) // =======================================================
(PID.TID 0000.0001) // Begin MONITOR dynamic field statistics
(PID.TID 0000.0001) // =======================================================
(PID.TID 0000.0001) %MON time_tsnumber                =                    11
(PID.TID 0000.0001) %MON time_secondsf                =   1.1000000000000E+00
(PID.TID 0000.0001) %MON dynstat_eta_max              =   5.3299608345717E-08
(PID.TID 0000.0001) %MON dynstat_eta_min              =  -8.1295318064615E-07
(PID.TID 0000.0001) %MON dynstat_eta_mean             =   2.8901992512888E-08
(PID.TID 0000.0001) %MON dynstat_eta_sd               =   1.2054082970495E-07
(PID.TID 0000.0001) %MON dynstat_eta_del2             =   2.2139101856339E-08
(PID.TID 0000.0001) %MON dynstat_uvel_max             =   6.2607007066565E-06
(PID.TID 0000.0001) %MON dynstat_uvel_min             =  -6.2822246204966E-06
(PID.TID 0000.0001) %MON dynstat_uvel_mean            =   3.0289205047869E-12
(PID.TID 0000.0001) %MON dynstat_uvel_sd              =   6.0138836754992E-07
(PID.TID 0000.0001) %MON dynstat_uvel_del2            =   9.9441405357810E-08
(PID.TID 0000.0001) %MON dynstat_vvel_max             =   4.0132645406996E-05
(PID.TID 0000.0001) %MON dynstat_vvel_min             =  -4.0623826470583E-05
(PID.TID 0000.0001) %MON dynstat_vvel_mean            =   1.2307586512233E-17
(PID.TID 0000.0001) %MON dynstat_vvel_sd              =   3.3407281644648E-06
(PID.TID 0000.0001) %MON dynstat_vvel_del2            =   1.6272884660077E-07
(PID.TID 0000.0001) %MON dynstat_wvel_max             =   1.5442596225817E-05
(PID.TID 0000.0001) %MON dynstat_wvel_min             =  -7.3280981632034E-05
(PID.TID 0000.0001) %MON dynstat_wvel_mean            =   3.4600297317623E-23
(PID.TID 0000.0001) %MON dynstat_wvel_sd              =   7.8600137726472E-06
(PID.TID 0000.0001) %MON dynstat_wvel_del2            =   2.6202456367091E-06
(PID.TID 0000.0001) %MON dynstat_theta_max            =   2.0000972712851E+01
(PID.TID 0000.0001) %MON dynstat_theta_min            =   1.9939013132618E+01
(PID.TID 0000.0001) %MON dynstat_theta_mean           =   1.9999244740006E+01
(PID.TID 0000.0001) %MON dynstat_theta_sd             =   8.6213920422775E-03
(PID.TID 0000.0001) %MON dynstat_theta_del2           =   1.5734960515998E-03
(PID.TID 0000.0001) %MON dynstat_salt_max             =   3.5000000000000E+01
(PID.TID 0000.0001) %MON dynstat_salt_min             =   3.5000000000000E+01
(PID.TID 0000.0001) %MON dynstat_salt_mean            =   3.4999999999986E+01
(PID.TID 0000.0001) %MON dynstat_salt_sd              =   1.4040324458618E-11
(PID.TID 0000.0001) %MON dynstat_salt_del2            =   0.0000000000000E+00
(PID.TID 0000.0001) %MON advcfl_uvel_max              =   1.2629647603776E-04
(PID.TID 0000.0001) %MON advcfl_vvel_max              =   4.0623826470583E-04
(PID.TID 0000.0001) %MON advcfl_wvel_max              =   1.4656196326407E-03
(PID.TID 0000.0001) %MON advcfl_W_hf_max              =   1.4656196326407E-03
(PID.TID 0000.0001) %MON pe_b_mean                    =   5.1977496131111E-13
(PID.TID 0000.0001) %MON ke_max                       =   5.1550586015506E-10
(PID.TID 0000.0001) %MON ke_mean                      =   5.5074193944471E-12
(PID.TID 0000.0001) %MON ke_vol                       =   3.8082386146826E-02
(PID.TID 0000.0001) %MON vort_r_min                   =  -4.6928347510435E-04
(PID.TID 0000.0001) %MON vort_r_max                   =   4.7265519910549E-04
(PID.TID 0000.0001) %MON vort_a_mean                  =   5.0000000000219E-01
(PID.TID 0000.0001) %MON vort_a_sd                    =   2.6586034226028E-05
(PID.TID 0000.0001) %MON vort_p_mean                  =   5.3488372093259E-01
(PID.TID 0000.0001) %MON vort_p_sd                    =   2.2607235933963E-01
(PID.TID 0000.0001) %MON surfExpan_theta_mean         =   0.0000000000000E+00
(PID.TID 0000.0001) %MON surfExpan_salt_mean          =   0.0000000000000E+00
(PID.TID 0000.0001) // =======================================================
(PID.TID 0000.0001) // End MONITOR dynamic field statistics
(PID.TID 0000.0001) // =======================================================
 cg2d: Sum(rhs),rhsMax =   7.59114993087451E-15  2.04139857925914E-06
(PID.TID 0000.0001)                    cg2d_init_res =    1.18867401392228E+00
(PID.TID 0000.0001)                       cg2d_iters =    39
(PID.TID 0000.0001)                         cg2d_res =    8.35924038650312E-08
 cg3d: Sum(rhs),rhsMax =   7.10334568942983E-14  7.14557768986042E-07
(PID.TID 0000.0001)                    cg3d_init_res =    3.83928777815802E+00
(PID.TID 0000.0001)                       cg3d_iters =    10
(PID.TID 0000.0001)                         cg3d_res =    4.00633328502903E-01
(PID.TID 0000.0001) // =======================================================
(PID.TID 0000.0001) // Begin MONITOR dynamic field statistics
(PID.TID 0000.0001) // =======================================================
(PID.TID 0000.0001) %MON time_tsnumber                =                    12
(PID.TID 0000.0001) %MON time_secondsf                =   1.2000000000000E+00
(PID.TID 0000.0001) %MON dynstat_eta_max              =   5.7654620898461E-08
(PID.TID 0000.0001) %MON dynstat_eta_min              =  -8.8773384058318E-07
(PID.TID 0000.0001) %MON dynstat_eta_mean             =   3.1618189805316E-08
(PID.TID 0000.0001) %MON dynstat_eta_sd               =   1.3171616632498E-07
(PID.TID 0000.0001) %MON dynstat_eta_del2             =   2.3839493587708E-08
(PID.TID 0000.0001) %MON dynstat_uvel_max             =   7.8244203887227E-06
(PID.TID 0000.0001) %MON dynstat_uvel_min             =  -7.8782746380035E-06
(PID.TID 0000.0001) %MON dynstat_uvel_mean            =   5.0526035703515E-12
(PID.TID 0000.0001) %MON dynstat_uvel_sd              =   7.6748662683534E-07
(PID.TID 0000.0001) %MON dynstat_uvel_del2            =   1.0746425379658E-07
(PID.TID 0000.0001) %MON dynstat_vvel_max             =   4.7384571375091E-05
(PID.TID 0000.0001) %MON dynstat_vvel_min             =  -4.7993677354306E-05
(PID.TID 0000.0001) %MON dynstat_vvel_mean            =  -6.2032977092086E-17
(PID.TID 0000.0001) %MON dynstat_vvel_sd              =   3.9247792906214E-06
(PID.TID 0000.0001) %MON dynstat_vvel_del2            =   1.8164886048142E-07
(PID.TID 0000.0001) %MON dynstat_wvel_max             =   1.6558642239142E-05
(PID.TID 0000.0001) %MON dynstat_wvel_min             =  -8.4093204694129E-05
(PID.TID 0000.0001) %MON dynstat_wvel_mean            =   3.8007851258296E-23
(PID.TID 0000.0001) %MON dynstat_wvel_sd              =   9.2561985591189E-06
(PID.TID 0000.0001) %MON dynstat_wvel_del2            =   2.9211632734764E-06
(PID.TID 0000.0001) %MON dynstat_theta_max            =   2.0000971314328E+01
(PID.TID 0000.0001) %MON dynstat_theta_min            =   1.9933543812095E+01
(PID.TID 0000.0001) %MON dynstat_theta_mean           =   1.9999130263090E+01
(PID.TID 0000.0001) %MON dynstat_theta_sd             =   9.3915445812665E-03
(PID.TID 0000.0001) %MON dynstat_theta_del2           =   1.6905864861248E-03
(PID.TID 0000.0001) %MON dynstat_salt_max             =   3.5000000000000E+01
(PID.TID 0000.0001) %MON dynstat_salt_min             =   3.5000000000000E+01
(PID.TID 0000.0001) %MON dynstat_salt_mean            =   3.4999999999986E+01
(PID.TID 0000.0001) %MON dynstat_salt_sd              =   1.4040324458618E-11
(PID.TID 0000.0001) %MON dynstat_salt_del2            =   0.0000000000000E+00
(PID.TID 0000.0001) %MON advcfl_uvel_max              =   1.5838311810616E-04
(PID.TID 0000.0001) %MON advcfl_vvel_max              =   4.7993677354306E-04
(PID.TID 0000.0001) %MON advcfl_wvel_max              =   1.6818640938826E-03
(PID.TID 0000.0001) %MON advcfl_W_hf_max              =   1.6818640938826E-03
(PID.TID 0000.0001) %MON pe_b_mean                    =   6.2069758925345E-13
(PID.TID 0000.0001) %MON ke_max                       =   7.2399479015792E-10
(PID.TID 0000.0001) %MON ke_mean                      =   7.6463756357846E-12
(PID.TID 0000.0001) %MON ke_vol                       =   3.8082386146826E-02
(PID.TID 0000.0001) %MON vort_r_min                   =  -5.8678293072633E-04
(PID.TID 0000.0001) %MON vort_r_max                   =   5.9614841435234E-04
(PID.TID 0000.0001) %MON vort_a_mean                  =   5.0000000000220E-01
(PID.TID 0000.0001) %MON vort_a_sd                    =   3.4137591966063E-05
(PID.TID 0000.0001) %MON vort_p_mean                  =   5.3488372093259E-01
(PID.TID 0000.0001) %MON vort_p_sd                    =   2.2607236570655E-01
(PID.TID 0000.0001) %MON surfExpan_theta_mean         =   0.0000000000000E+00
(PID.TID 0000.0001) %MON surfExpan_salt_mean          =   0.0000000000000E+00
(PID.TID 0000.0001) // =======================================================
(PID.TID 0000.0001) // End MONITOR dynamic field statistics
(PID.TID 0000.0001) // =======================================================
 cg2d: Sum(rhs),rhsMax =   2.87131429743681E-14  2.19372454358391E-06
(PID.TID 0000.0001)                    cg2d_init_res =    1.09896599425879E+00
(PID.TID 0000.0001)                       cg2d_iters =    39
(PID.TID 0000.0001)                         cg2d_res =    7.83516627730969E-08
 cg3d: Sum(rhs),rhsMax =  -5.01612640313454E-14  7.67395594668753E-07
(PID.TID 0000.0001)                    cg3d_init_res =    3.54839144643909E+00
(PID.TID 0000.0001)                       cg3d_iters =    10
(PID.TID 0000.0001)                         cg3d_res =    3.92728206816260E-01
(PID.TID 0000.0001) // =======================================================
(PID.TID 0000.0001) // Begin MONITOR dynamic field statistics
(PID.TID 0000.0001) // =======================================================
(PID.TID 0000.0001) %MON time_tsnumber                =                    13
(PID.TID 0000.0001) %MON time_secondsf                =   1.3000000000000E+00
(PID.TID 0000.0001) %MON dynstat_eta_max              =   6.2006535369912E-08
(PID.TID 0000.0001) %MON dynstat_eta_min              =  -9.6228567870547E-07
(PID.TID 0000.0001) %MON dynstat_eta_mean             =   3.4332059115320E-08
(PID.TID 0000.0001) %MON dynstat_eta_sd               =   1.4285933445020E-07
(PID.TID 0000.0001) %MON dynstat_eta_del2             =   2.5533699051453E-08
(PID.TID 0000.0001) %MON dynstat_uvel_max             =   9.8360834788781E-06
(PID.TID 0000.0001) %MON dynstat_uvel_min             =  -9.8781822882966E-06
(PID.TID 0000.0001) %MON dynstat_uvel_mean            =   8.0707730460866E-12
(PID.TID 0000.0001) %MON dynstat_uvel_sd              =   9.6173640376135E-07
(PID.TID 0000.0001) %MON dynstat_uvel_del2            =   1.2071904152861E-07
(PID.TID 0000.0001) %MON dynstat_vvel_max             =   5.5097101324990E-05
(PID.TID 0000.0001) %MON dynstat_vvel_min             =  -5.5859014603731E-05
(PID.TID 0000.0001) %MON dynstat_vvel_mean            =   6.9701047206422E-17
(PID.TID 0000.0001) %MON dynstat_vvel_sd              =   4.5505152919365E-06
(PID.TID 0000.0001) %MON dynstat_vvel_del2            =   2.0457907176736E-07
(PID.TID 0000.0001) %MON dynstat_wvel_max             =   1.8835731216170E-05
(PID.TID 0000.0001) %MON dynstat_wvel_min             =  -9.7164108613270E-05
(PID.TID 0000.0001) %MON dynstat_wvel_mean            =   4.0301879703985E-22
(PID.TID 0000.0001) %MON dynstat_wvel_sd              =   1.0766109734190E-05
(PID.TID 0000.0001) %MON dynstat_wvel_del2            =   3.3042256406401E-06
(PID.TID 0000.0001) %MON dynstat_theta_max            =   2.0000969915031E+01
(PID.TID 0000.0001) %MON dynstat_theta_min            =   1.9928085977680E+01
(PID.TID 0000.0001) %MON dynstat_theta_mean           =   1.9999015817477E+01
(PID.TID 0000.0001) %MON dynstat_theta_sd             =   1.0159561795767E-02
(PID.TID 0000.0001) %MON dynstat_theta_del2           =   1.8073212300111E-03
(PID.TID 0000.0001) %MON dynstat_salt_max             =   3.5000000000000E+01
(PID.TID 0000.0001) %MON dynstat_salt_min             =   3.5000000000000E+01
(PID.TID 0000.0001) %MON dynstat_salt_mean            =   3.4999999999986E+01
(PID.TID 0000.0001) %MON dynstat_salt_sd              =   1.4040324458618E-11
(PID.TID 0000.0001) %MON dynstat_salt_del2            =   0.0000000000000E+00
(PID.TID 0000.0001) %MON advcfl_uvel_max              =   1.9858882609834E-04
(PID.TID 0000.0001) %MON advcfl_vvel_max              =   5.5859014603731E-04
(PID.TID 0000.0001) %MON advcfl_wvel_max              =   1.9432821722654E-03
(PID.TID 0000.0001) %MON advcfl_W_hf_max              =   1.9432821722654E-03
(PID.TID 0000.0001) %MON pe_b_mean                    =   7.3025233130741E-13
(PID.TID 0000.0001) %MON ke_max                       =   9.8962563634358E-10
(PID.TID 0000.0001) %MON ke_mean                      =   1.0345445224851E-11
(PID.TID 0000.0001) %MON ke_vol                       =   3.8082386146826E-02
(PID.TID 0000.0001) %MON vort_r_min                   =  -7.2480064315316E-04
(PID.TID 0000.0001) %MON vort_r_max                   =   7.3168602372931E-04
(PID.TID 0000.0001) %MON vort_a_mean                  =   5.0000000000220E-01
(PID.TID 0000.0001) %MON vort_a_sd                    =   4.2998641346961E-05
(PID.TID 0000.0001) %MON vort_p_mean                  =   5.3488372093259E-01
(PID.TID 0000.0001) %MON vort_p_sd                    =   2.2607237529349E-01
(PID.TID 0000.0001) %MON surfExpan_theta_mean         =   0.0000000000000E+00
(PID.TID 0000.0001) %MON surfExpan_salt_mean          =   0.0000000000000E+00
(PID.TID 0000.0001) // =======================================================
(PID.TID 0000.0001) // End MONITOR dynamic field statistics
(PID.TID 0000.0001) // =======================================================
 cg2d: Sum(rhs),rhsMax =   5.99173488602389E-15  2.34545732212040E-06
(PID.TID 0000.0001)                    cg2d_init_res =    1.02122424684637E+00
(PID.TID 0000.0001)                       cg2d_iters =    39
(PID.TID 0000.0001)                         cg2d_res =    7.49428734011885E-08
 cg3d: Sum(rhs),rhsMax =  -5.83040560275805E-14  8.19940540151747E-07
(PID.TID 0000.0001)                    cg3d_init_res =    3.29971131305664E+00
(PID.TID 0000.0001)                       cg3d_iters =    10
(PID.TID 0000.0001)                         cg3d_res =    3.47198071529788E-01
(PID.TID 0000.0001) // =======================================================
(PID.TID 0000.0001) // Begin MONITOR dynamic field statistics
(PID.TID 0000.0001) // =======================================================
(PID.TID 0000.0001) %MON time_tsnumber                =                    14
(PID.TID 0000.0001) %MON time_secondsf                =   1.4000000000000E+00
(PID.TID 0000.0001) %MON dynstat_eta_max              =   6.6355211563654E-08
(PID.TID 0000.0001) %MON dynstat_eta_min              =  -1.0366087548905E-06
(PID.TID 0000.0001) %MON dynstat_eta_mean             =   3.7043515330776E-08
(PID.TID 0000.0001) %MON dynstat_eta_sd               =   1.5397011142464E-07
(PID.TID 0000.0001) %MON dynstat_eta_del2             =   2.7222696163544E-08
(PID.TID 0000.0001) %MON dynstat_uvel_max             =   1.1956970595479E-05
(PID.TID 0000.0001) %MON dynstat_uvel_min             =  -1.2038415733533E-05
(PID.TID 0000.0001) %MON dynstat_uvel_mean            =   1.2428694262806E-11
(PID.TID 0000.0001) %MON dynstat_uvel_sd              =   1.1851759346997E-06
(PID.TID 0000.0001) %MON dynstat_uvel_del2            =   1.3040967267604E-07
(PID.TID 0000.0001) %MON dynstat_vvel_max             =   6.3400293357354E-05
(PID.TID 0000.0001) %MON dynstat_vvel_min             =  -6.4311617160546E-05
(PID.TID 0000.0001) %MON dynstat_vvel_mean            =  -1.9251143887369E-17
(PID.TID 0000.0001) %MON dynstat_vvel_sd              =   5.2197241690674E-06
(PID.TID 0000.0001) %MON dynstat_vvel_del2            =   2.2483176778839E-07
(PID.TID 0000.0001) %MON dynstat_wvel_max             =   2.0912318679989E-05
(PID.TID 0000.0001) %MON dynstat_wvel_min             =  -1.0950691639785E-04
(PID.TID 0000.0001) %MON dynstat_wvel_mean            =   2.7910241000133E-22
(PID.TID 0000.0001) %MON dynstat_wvel_sd              =   1.2383185760318E-05
(PID.TID 0000.0001) %MON dynstat_wvel_del2            =   3.6327378485630E-06
(PID.TID 0000.0001) %MON dynstat_theta_max            =   2.0000968514992E+01
(PID.TID 0000.0001) %MON dynstat_theta_min            =   1.9922638924930E+01
(PID.TID 0000.0001) %MON dynstat_theta_mean           =   1.9998901403078E+01
(PID.TID 0000.0001) %MON dynstat_theta_sd             =   1.0925444840334E-02
(PID.TID 0000.0001) %MON dynstat_theta_del2           =   1.9236640388375E-03
(PID.TID 0000.0001) %MON dynstat_salt_max             =   3.5000000000000E+01
(PID.TID 0000.0001) %MON dynstat_salt_min             =   3.5000000000000E+01
(PID.TID 0000.0001) %MON dynstat_salt_mean            =   3.4999999999986E+01
(PID.TID 0000.0001) %MON dynstat_salt_sd              =   1.4040324458618E-11
(PID.TID 0000.0001) %MON dynstat_salt_del2            =   0.0000000000000E+00
(PID.TID 0000.0001) %MON advcfl_uvel_max              =   2.4201768896677E-04
(PID.TID 0000.0001) %MON advcfl_vvel_max              =   6.4311617160546E-04
(PID.TID 0000.0001) %MON advcfl_wvel_max              =   2.1901383279570E-03
(PID.TID 0000.0001) %MON advcfl_W_hf_max              =   2.1901383279570E-03
(PID.TID 0000.0001) %MON pe_b_mean                    =   8.4836261767613E-13
(PID.TID 0000.0001) %MON ke_max                       =   1.3214318435527E-09
(PID.TID 0000.0001) %MON ke_mean                      =   1.3705864825989E-11
(PID.TID 0000.0001) %MON ke_vol                       =   3.8082386146826E-02
(PID.TID 0000.0001) %MON vort_r_min                   =  -8.8268458803167E-04
(PID.TID 0000.0001) %MON vort_r_max                   =   8.9691347277137E-04
(PID.TID 0000.0001) %MON vort_a_mean                  =   5.0000000000221E-01
(PID.TID 0000.0001) %MON vort_a_sd                    =   5.3236418690561E-05
(PID.TID 0000.0001) %MON vort_p_mean                  =   5.3488372093260E-01
(PID.TID 0000.0001) %MON vort_p_sd                    =   2.2607238923807E-01
(PID.TID 0000.0001) %MON surfExpan_theta_mean         =   0.0000000000000E+00
(PID.TID 0000.0001) %MON surfExpan_salt_mean          =   0.0000000000000E+00
(PID.TID 0000.0001) // =======================================================
(PID.TID 0000.0001) // End MONITOR dynamic field statistics
(PID.TID 0000.0001) // =======================================================
 cg2d: Sum(rhs),rhsMax =   3.86669862795230E-14  2.49657935923559E-06
(PID.TID 0000.0001)                    cg2d_init_res =    9.53217687601758E-01
(PID.TID 0000.0001)                       cg2d_iters =    39
(PID.TID 0000.0001)                         cg2d_res =    7.27752186711516E-08
 cg3d: Sum(rhs),rhsMax =  -1.76973019572202E-13  8.72134185959204E-07
(PID.TID 0000.0001)                    cg3d_init_res =    3.07959954625664E+00
(PID.TID 0000.0001)                       cg3d_iters =    10
(PID.TID 0000.0001)                         cg3d_res =    3.37383106749038E-01
(PID.TID 0000.0001) // =======================================================
(PID.TID 0000.0001) // Begin MONITOR dynamic field statistics
(PID.TID 0000.0001) // =======================================================
(PID.TID 0000.0001) %MON time_tsnumber                =                    15
(PID.TID 0000.0001) %MON time_secondsf                =   1.5000000000000E+00
(PID.TID 0000.0001) %MON dynstat_eta_max              =   7.0700503107861E-08
(PID.TID 0000.0001) %MON dynstat_eta_min              =  -1.1107022167872E-06
(PID.TID 0000.0001) %MON dynstat_eta_mean             =   3.9752476292366E-08
(PID.TID 0000.0001) %MON dynstat_eta_sd               =   1.6504832290446E-07
(PID.TID 0000.0001) %MON dynstat_eta_del2             =   2.8905985602550E-08
(PID.TID 0000.0001) %MON dynstat_uvel_max             =   1.4551359095449E-05
(PID.TID 0000.0001) %MON dynstat_uvel_min             =  -1.4621973014854E-05
(PID.TID 0000.0001) %MON dynstat_uvel_mean            =   1.8554682989808E-11
(PID.TID 0000.0001) %MON dynstat_uvel_sd              =   1.4403776949007E-06
(PID.TID 0000.0001) %MON dynstat_uvel_del2            =   1.4506968362500E-07
(PID.TID 0000.0001) %MON dynstat_vvel_max             =   7.2134020383104E-05
(PID.TID 0000.0001) %MON dynstat_vvel_min             =  -7.3230377923468E-05
(PID.TID 0000.0001) %MON dynstat_vvel_mean            =   4.3905543948903E-17
(PID.TID 0000.0001) %MON dynstat_vvel_sd              =   5.9293423154506E-06
(PID.TID 0000.0001) %MON dynstat_vvel_del2            =   2.4884905043828E-07
(PID.TID 0000.0001) %MON dynstat_wvel_max             =   2.3702399032309E-05
(PID.TID 0000.0001) %MON dynstat_wvel_min             =  -1.2410998998729E-04
(PID.TID 0000.0001) %MON dynstat_wvel_mean            =   1.0580144717615E-22
(PID.TID 0000.0001) %MON dynstat_wvel_sd              =   1.4110845347771E-05
(PID.TID 0000.0001) %MON dynstat_wvel_del2            =   4.0344705573829E-06
(PID.TID 0000.0001) %MON dynstat_theta_max            =   2.0000967114401E+01
(PID.TID 0000.0001) %MON dynstat_theta_min            =   1.9917201985833E+01
(PID.TID 0000.0001) %MON dynstat_theta_mean           =   1.9998787019805E+01
(PID.TID 0000.0001) %MON dynstat_theta_sd             =   1.1689198228143E-02
(PID.TID 0000.0001) %MON dynstat_theta_del2           =   2.0396153916910E-03
(PID.TID 0000.0001) %MON dynstat_salt_max             =   3.5000000000000E+01
(PID.TID 0000.0001) %MON dynstat_salt_min             =   3.5000000000000E+01
(PID.TID 0000.0001) %MON dynstat_salt_mean            =   3.4999999999986E+01
(PID.TID 0000.0001) %MON dynstat_salt_sd              =   1.4040324458618E-11
(PID.TID 0000.0001) %MON dynstat_salt_del2            =   0.0000000000000E+00
(PID.TID 0000.0001) %MON advcfl_uvel_max              =   2.9395696207204E-04
(PID.TID 0000.0001) %MON advcfl_vvel_max              =   7.3230377923468E-04
(PID.TID 0000.0001) %MON advcfl_wvel_max              =   2.4821997997458E-03
(PID.TID 0000.0001) %MON advcfl_W_hf_max              =   2.4821997997458E-03
(PID.TID 0000.0001) %MON pe_b_mean                    =   9.7495190716928E-13
(PID.TID 0000.0001) %MON ke_max                       =   1.7295615062891E-09
(PID.TID 0000.0001) %MON ke_mean                      =   1.7816869092369E-11
(PID.TID 0000.0001) %MON ke_vol                       =   3.8082386146826E-02
(PID.TID 0000.0001) %MON vort_r_min                   =  -1.0608195132211E-03
(PID.TID 0000.0001) %MON vort_r_max                   =   1.0728949064162E-03
(PID.TID 0000.0001) %MON vort_a_mean                  =   5.0000000000220E-01
(PID.TID 0000.0001) %MON vort_a_sd                    =   6.4962230895833E-05
(PID.TID 0000.0001) %MON vort_p_mean                  =   5.3488372093259E-01
(PID.TID 0000.0001) %MON vort_p_sd                    =   2.2607240898769E-01
(PID.TID 0000.0001) %MON surfExpan_theta_mean         =   0.0000000000000E+00
(PID.TID 0000.0001) %MON surfExpan_salt_mean          =   0.0000000000000E+00
(PID.TID 0000.0001) // =======================================================
(PID.TID 0000.0001) // End MONITOR dynamic field statistics
(PID.TID 0000.0001) // =======================================================
 cg2d: Sum(rhs),rhsMax =   6.16035000788884E-14  2.64709994165147E-06
(PID.TID 0000.0001)                    cg2d_init_res =    8.93228657971085E-01
(PID.TID 0000.0001)                       cg2d_iters =    38
(PID.TID 0000.0001)                         cg2d_res =    9.81069623848397E-08
 cg3d: Sum(rhs),rhsMax =   1.88900978193018E-13  9.24012413951286E-07
(PID.TID 0000.0001)                    cg3d_init_res =    2.88762682856724E+00
(PID.TID 0000.0001)                       cg3d_iters =    10
(PID.TID 0000.0001)                         cg3d_res =    3.04630067185615E-01
(PID.TID 0000.0001) // =======================================================
(PID.TID 0000.0001) // Begin MONITOR dynamic field statistics
(PID.TID 0000.0001) // =======================================================
(PID.TID 0000.0001) %MON time_tsnumber                =                    16
(PID.TID 0000.0001) %MON time_secondsf                =   1.6000000000000E+00
(PID.TID 0000.0001) %MON dynstat_eta_max              =   7.5042251275771E-08
(PID.TID 0000.0001) %MON dynstat_eta_min              =  -1.1845659529711E-06
(PID.TID 0000.0001) %MON dynstat_eta_mean             =   4.2458843704137E-08
(PID.TID 0000.0001) %MON dynstat_eta_sd               =   1.7609381148538E-07
(PID.TID 0000.0001) %MON dynstat_eta_del2             =   3.0582948101510E-08
(PID.TID 0000.0001) %MON dynstat_uvel_max             =   1.7300107468295E-05
(PID.TID 0000.0001) %MON dynstat_uvel_min             =  -1.7416087389070E-05
(PID.TID 0000.0001) %MON dynstat_uvel_mean            =   2.6963885212509E-11
(PID.TID 0000.0001) %MON dynstat_uvel_sd              =   1.7285112930350E-06
(PID.TID 0000.0001) %MON dynstat_uvel_del2            =   1.5695172346427E-07
(PID.TID 0000.0001) %MON dynstat_vvel_max             =   8.1436918906549E-05
(PID.TID 0000.0001) %MON dynstat_vvel_min             =  -8.2711905313694E-05
(PID.TID 0000.0001) %MON dynstat_vvel_mean            =  -1.5311054838365E-17
(PID.TID 0000.0001) %MON dynstat_vvel_sd              =   6.6807932986515E-06
(PID.TID 0000.0001) %MON dynstat_vvel_del2            =   2.7052091793222E-07
(PID.TID 0000.0001) %MON dynstat_wvel_max             =   2.6005326957910E-05
(PID.TID 0000.0001) %MON dynstat_wvel_min             =  -1.3908521704734E-04
(PID.TID 0000.0001) %MON dynstat_wvel_mean            =  -2.2617740455620E-22
(PID.TID 0000.0001) %MON dynstat_wvel_sd              =   1.5944338989225E-05
(PID.TID 0000.0001) %MON dynstat_wvel_del2            =   4.3906484660343E-06
(PID.TID 0000.0001) %MON dynstat_theta_max            =   2.0000965713290E+01
(PID.TID 0000.0001) %MON dynstat_theta_min            =   1.9911774390877E+01
(PID.TID 0000.0001) %MON dynstat_theta_mean           =   1.9998672667570E+01
(PID.TID 0000.0001) %MON dynstat_theta_sd             =   1.2450828743606E-02
(PID.TID 0000.0001) %MON dynstat_theta_del2           =   2.1551472739709E-03
(PID.TID 0000.0001) %MON dynstat_salt_max             =   3.5000000000000E+01
(PID.TID 0000.0001) %MON dynstat_salt_min             =   3.5000000000000E+01
(PID.TID 0000.0001) %MON dynstat_salt_mean            =   3.4999999999986E+01
(PID.TID 0000.0001) %MON dynstat_salt_sd              =   1.4040324458618E-11
(PID.TID 0000.0001) %MON dynstat_salt_del2            =   0.0000000000000E+00
(PID.TID 0000.0001) %MON advcfl_uvel_max              =   3.5012922913148E-04
(PID.TID 0000.0001) %MON advcfl_vvel_max              =   8.2711905313694E-04
(PID.TID 0000.0001) %MON advcfl_wvel_max              =   2.7817043409468E-03
(PID.TID 0000.0001) %MON advcfl_W_hf_max              =   2.7817043409468E-03
(PID.TID 0000.0001) %MON pe_b_mean                    =   1.1099434468600E-12
(PID.TID 0000.0001) %MON ke_max                       =   2.2247428269308E-09
(PID.TID 0000.0001) %MON ke_mean                      =   2.2795988851919E-11
(PID.TID 0000.0001) %MON ke_vol                       =   3.8082386146826E-02
(PID.TID 0000.0001) %MON vort_r_min                   =  -1.2643578778717E-03
(PID.TID 0000.0001) %MON vort_r_max                   =   1.2852561819512E-03
(PID.TID 0000.0001) %MON vort_a_mean                  =   5.0000000000219E-01
(PID.TID 0000.0001) %MON vort_a_sd                    =   7.8246551147955E-05
(PID.TID 0000.0001) %MON vort_p_mean                  =   5.3488372093259E-01
(PID.TID 0000.0001) %MON vort_p_sd                    =   2.2607243626290E-01
(PID.TID 0000.0001) %MON surfExpan_theta_mean         =   0.0000000000000E+00
(PID.TID 0000.0001) %MON surfExpan_salt_mean          =   0.0000000000000E+00
(PID.TID 0000.0001) // =======================================================
(PID.TID 0000.0001) // End MONITOR dynamic field statistics
(PID.TID 0000.0001) // =======================================================
 cg2d: Sum(rhs),rhsMax =  -3.08503222967715E-14  2.79700109779713E-06
(PID.TID 0000.0001)                    cg2d_init_res =    8.39928922692622E-01
(PID.TID 0000.0001)                       cg2d_iters =    38
(PID.TID 0000.0001)                         cg2d_res =    9.54437064492471E-08
 cg3d: Sum(rhs),rhsMax =  -1.46795769984109E-13  9.75521829585598E-07
(PID.TID 0000.0001)                    cg3d_init_res =    2.71532096584963E+00
(PID.TID 0000.0001)                       cg3d_iters =    10
(PID.TID 0000.0001)                         cg3d_res =    2.94545235903713E-01
(PID.TID 0000.0001) // =======================================================
(PID.TID 0000.0001) // Begin MONITOR dynamic field statistics
(PID.TID 0000.0001) // =======================================================
(PID.TID 0000.0001) %MON time_tsnumber                =                    17
(PID.TID 0000.0001) %MON time_secondsf                =   1.7000000000000E+00
(PID.TID 0000.0001) %MON dynstat_eta_max              =   7.9380243542717E-08
(PID.TID 0000.0001) %MON dynstat_eta_min              =  -1.2581989559335E-06
(PID.TID 0000.0001) %MON dynstat_eta_mean             =   4.5162523326478E-08
(PID.TID 0000.0001) %MON dynstat_eta_sd               =   1.8710643742232E-07
(PID.TID 0000.0001) %MON dynstat_eta_del2             =   3.2254276099469E-08
(PID.TID 0000.0001) %MON dynstat_uvel_max             =   2.0546672159767E-05
(PID.TID 0000.0001) %MON dynstat_uvel_min             =  -2.0652456490349E-05
(PID.TID 0000.0001) %MON dynstat_uvel_mean            =   3.8276873264781E-11
(PID.TID 0000.0001) %MON dynstat_uvel_sd              =   2.0519094804667E-06
(PID.TID 0000.0001) %MON dynstat_uvel_del2            =   1.7353094361830E-07
(PID.TID 0000.0001) %MON dynstat_vvel_max             =   9.1141208908334E-05
(PID.TID 0000.0001) %MON dynstat_vvel_min             =  -9.2629337254428E-05
(PID.TID 0000.0001) %MON dynstat_vvel_mean            =   1.0193193173755E-16
(PID.TID 0000.0001) %MON dynstat_vvel_sd              =   7.4712203921450E-06
(PID.TID 0000.0001) %MON dynstat_vvel_del2            =   2.9562281220894E-07
(PID.TID 0000.0001) %MON dynstat_wvel_max             =   2.8979121248257E-05
(PID.TID 0000.0001) %MON dynstat_wvel_min             =  -1.5505235966142E-04
(PID.TID 0000.0001) %MON dynstat_wvel_mean            =   5.9051452880435E-22
(PID.TID 0000.0001) %MON dynstat_wvel_sd              =   1.7885067256662E-05
(PID.TID 0000.0001) %MON dynstat_wvel_del2            =   4.8116291262488E-06
(PID.TID 0000.0001) %MON dynstat_theta_max            =   2.0000964311840E+01
(PID.TID 0000.0001) %MON dynstat_theta_min            =   1.9906355415073E+01
(PID.TID 0000.0001) %MON dynstat_theta_mean           =   1.9998558346284E+01
(PID.TID 0000.0001) %MON dynstat_theta_sd             =   1.3210344739220E-02
(PID.TID 0000.0001) %MON dynstat_theta_del2           =   2.2702686894801E-03
(PID.TID 0000.0001) %MON dynstat_salt_max             =   3.5000000000000E+01
(PID.TID 0000.0001) %MON dynstat_salt_min             =   3.5000000000000E+01
(PID.TID 0000.0001) %MON dynstat_salt_mean            =   3.4999999999986E+01
(PID.TID 0000.0001) %MON dynstat_salt_sd              =   1.4040324458618E-11
(PID.TID 0000.0001) %MON dynstat_salt_del2            =   0.0000000000000E+00
(PID.TID 0000.0001) %MON advcfl_uvel_max              =   4.1519248893844E-04
(PID.TID 0000.0001) %MON advcfl_vvel_max              =   9.2629337254428E-04
(PID.TID 0000.0001) %MON advcfl_wvel_max              =   3.1010471932284E-03
(PID.TID 0000.0001) %MON advcfl_W_hf_max              =   3.1010471932284E-03
(PID.TID 0000.0001) %MON pe_b_mean                    =   1.2532603952329E-12
(PID.TID 0000.0001) %MON ke_max                       =   2.8180152854593E-09
(PID.TID 0000.0001) %MON ke_mean                      =   2.8746116647558E-11
(PID.TID 0000.0001) %MON ke_vol                       =   3.8082386146826E-02
(PID.TID 0000.0001) %MON vort_r_min                   =  -1.4907202633216E-03
(PID.TID 0000.0001) %MON vort_r_max                   =   1.5088406919119E-03
(PID.TID 0000.0001) %MON vort_a_mean                  =   5.0000000000220E-01
(PID.TID 0000.0001) %MON vort_a_sd                    =   9.3191511258847E-05
(PID.TID 0000.0001) %MON vort_p_mean                  =   5.3488372093260E-01
(PID.TID 0000.0001) %MON vort_p_sd                    =   2.2607247317294E-01
(PID.TID 0000.0001) %MON surfExpan_theta_mean         =   0.0000000000000E+00
(PID.TID 0000.0001) %MON surfExpan_salt_mean          =   0.0000000000000E+00
(PID.TID 0000.0001) // =======================================================
(PID.TID 0000.0001) // End MONITOR dynamic field statistics
(PID.TID 0000.0001) // =======================================================
 cg2d: Sum(rhs),rhsMax =  -1.39020739364781E-14  2.94629382927996E-06
(PID.TID 0000.0001)                    cg2d_init_res =    7.92260793414270E-01
(PID.TID 0000.0001)                       cg2d_iters =    38
(PID.TID 0000.0001)                         cg2d_res =    9.26105058746361E-08
 cg3d: Sum(rhs),rhsMax =  -4.58705989858643E-13  1.02669479991934E-06
(PID.TID 0000.0001)                    cg3d_init_res =    2.56276477366287E+00
(PID.TID 0000.0001)                       cg3d_iters =    10
(PID.TID 0000.0001)                         cg3d_res =    2.69588177627956E-01
(PID.TID 0000.0001) // =======================================================
(PID.TID 0000.0001) // Begin MONITOR dynamic field statistics
(PID.TID 0000.0001) // =======================================================
(PID.TID 0000.0001) %MON time_tsnumber                =                    18
(PID.TID 0000.0001) %MON time_secondsf                =   1.8000000000000E+00
(PID.TID 0000.0001) %MON dynstat_eta_max              =   8.3714346544161E-08
(PID.TID 0000.0001) %MON dynstat_eta_min              =  -1.3316009065078E-06
(PID.TID 0000.0001) %MON dynstat_eta_mean             =   4.7863403783511E-08
(PID.TID 0000.0001) %MON dynstat_eta_sd               =   1.9808605829232E-07
(PID.TID 0000.0001) %MON dynstat_eta_del2             =   3.3918289721802E-08
(PID.TID 0000.0001) %MON dynstat_uvel_max             =   2.3990130908808E-05
(PID.TID 0000.0001) %MON dynstat_uvel_min             =  -2.4145042191389E-05
(PID.TID 0000.0001) %MON dynstat_uvel_mean            =   5.3221322182390E-11
(PID.TID 0000.0001) %MON dynstat_uvel_sd              =   2.4118095995597E-06
(PID.TID 0000.0001) %MON dynstat_uvel_del2            =   1.8802405209604E-07
(PID.TID 0000.0001) %MON dynstat_vvel_max             =   1.0139275471455E-04
(PID.TID 0000.0001) %MON dynstat_vvel_min             =  -1.0308395229466E-04
(PID.TID 0000.0001) %MON dynstat_vvel_mean            =  -1.0980755282778E-17
(PID.TID 0000.0001) %MON dynstat_vvel_sd              =   8.3017849522912E-06
(PID.TID 0000.0001) %MON dynstat_vvel_del2            =   3.1870975974885E-07
(PID.TID 0000.0001) %MON dynstat_wvel_max             =   3.1487109154071E-05
(PID.TID 0000.0001) %MON dynstat_wvel_min             =  -1.7176128097716E-04
(PID.TID 0000.0001) %MON dynstat_wvel_mean            =   3.4949821160073E-22
(PID.TID 0000.0001) %MON dynstat_wvel_sd              =   1.9929750324136E-05
(PID.TID 0000.0001) %MON dynstat_wvel_del2            =   5.1948985678924E-06
(PID.TID 0000.0001) %MON dynstat_theta_max            =   2.0000962910082E+01
(PID.TID 0000.0001) %MON dynstat_theta_min            =   1.9900944231933E+01
(PID.TID 0000.0001) %MON dynstat_theta_mean           =   1.9998444055860E+01
(PID.TID 0000.0001) %MON dynstat_theta_sd             =   1.3967755666027E-02
(PID.TID 0000.0001) %MON dynstat_theta_del2           =   2.3848323930815E-03
(PID.TID 0000.0001) %MON dynstat_salt_max             =   3.5000000000000E+01
(PID.TID 0000.0001) %MON dynstat_salt_min             =   3.5000000000000E+01
(PID.TID 0000.0001) %MON dynstat_salt_mean            =   3.4999999999986E+01
(PID.TID 0000.0001) %MON dynstat_salt_sd              =   1.4040324458618E-11
(PID.TID 0000.0001) %MON dynstat_salt_del2            =   0.0000000000000E+00
(PID.TID 0000.0001) %MON advcfl_uvel_max              =   4.8540667148487E-04
(PID.TID 0000.0001) %MON advcfl_vvel_max              =   1.0308395229466E-03
(PID.TID 0000.0001) %MON advcfl_wvel_max              =   3.4352256195432E-03
(PID.TID 0000.0001) %MON advcfl_W_hf_max              =   3.4352256195432E-03
(PID.TID 0000.0001) %MON pe_b_mean                    =   1.4048255539725E-12
(PID.TID 0000.0001) %MON ke_max                       =   3.5219566191080E-09
(PID.TID 0000.0001) %MON ke_mean                      =   3.5801874166303E-11
(PID.TID 0000.0001) %MON ke_vol                       =   3.8082386146826E-02
(PID.TID 0000.0001) %MON vort_r_min                   =  -1.7417020883795E-03
(PID.TID 0000.0001) %MON vort_r_max                   =   1.7714104986382E-03
(PID.TID 0000.0001) %MON vort_a_mean                  =   5.0000000000220E-01
(PID.TID 0000.0001) %MON vort_a_sd                    =   1.0986913739094E-04
(PID.TID 0000.0001) %MON vort_p_mean                  =   5.3488372093259E-01
(PID.TID 0000.0001) %MON vort_p_sd                    =   2.2607252217234E-01
(PID.TID 0000.0001) %MON surfExpan_theta_mean         =   0.0000000000000E+00
(PID.TID 0000.0001) %MON surfExpan_salt_mean          =   0.0000000000000E+00
(PID.TID 0000.0001) // =======================================================
(PID.TID 0000.0001) // End MONITOR dynamic field statistics
(PID.TID 0000.0001) // =======================================================
 cg2d: Sum(rhs),rhsMax =  -2.53477794309731E-14  3.09496479829010E-06
(PID.TID 0000.0001)                    cg2d_init_res =    7.49383894699700E-01
(PID.TID 0000.0001)                       cg2d_iters =    38
(PID.TID 0000.0001)                         cg2d_res =    8.95451477302528E-08
 cg3d: Sum(rhs),rhsMax =  -1.20169499351341E-13  1.07747995627415E-06
(PID.TID 0000.0001)                    cg3d_init_res =    2.42429583853437E+00
(PID.TID 0000.0001)                       cg3d_iters =    10
(PID.TID 0000.0001)                         cg3d_res =    2.60138241571463E-01
(PID.TID 0000.0001) // =======================================================
(PID.TID 0000.0001) // Begin MONITOR dynamic field statistics
(PID.TID 0000.0001) // =======================================================
(PID.TID 0000.0001) %MON time_tsnumber                =                    19
(PID.TID 0000.0001) %MON time_secondsf                =   1.9000000000000E+00
(PID.TID 0000.0001) %MON dynstat_eta_max              =   8.8044119413235E-08
(PID.TID 0000.0001) %MON dynstat_eta_min              =  -1.4047707831719E-06
(PID.TID 0000.0001) %MON dynstat_eta_mean             =   5.0561378985964E-08
(PID.TID 0000.0001) %MON dynstat_eta_sd               =   2.0903253630308E-07
(PID.TID 0000.0001) %MON dynstat_eta_del2             =   3.5573919370630E-08
(PID.TID 0000.0001) %MON dynstat_uvel_max             =   2.7954275783258E-05
(PID.TID 0000.0001) %MON dynstat_uvel_min             =  -2.8096109490924E-05
(PID.TID 0000.0001) %MON dynstat_uvel_mean            =   7.2654086949636E-11
(PID.TID 0000.0001) %MON dynstat_uvel_sd              =   2.8103505909165E-06
(PID.TID 0000.0001) %MON dynstat_uvel_del2            =   2.0695982219574E-07
(PID.TID 0000.0001) %MON dynstat_vvel_max             =   1.1201862792998E-04
(PID.TID 0000.0001) %MON dynstat_vvel_min             =  -1.1394347171536E-04
(PID.TID 0000.0001) %MON dynstat_vvel_mean            =   5.7837789958522E-17
(PID.TID 0000.0001) %MON dynstat_vvel_sd              =   9.1697750969239E-06
(PID.TID 0000.0001) %MON dynstat_vvel_del2            =   3.4490253116154E-07
(PID.TID 0000.0001) %MON dynstat_wvel_max             =   3.4620535274217E-05
(PID.TID 0000.0001) %MON dynstat_wvel_min             =  -1.8930136516472E-04
(PID.TID 0000.0001) %MON dynstat_wvel_mean            =   3.4586537598623E-22
(PID.TID 0000.0001) %MON dynstat_wvel_sd              =   2.2078395085305E-05
(PID.TID 0000.0001) %MON dynstat_wvel_del2            =   5.6338530278329E-06
(PID.TID 0000.0001) %MON dynstat_theta_max            =   2.0000961508186E+01
(PID.TID 0000.0001) %MON dynstat_theta_min            =   1.9895540066509E+01
(PID.TID 0000.0001) %MON dynstat_theta_mean           =   1.9998329796212E+01
(PID.TID 0000.0001) %MON dynstat_theta_sd             =   1.4723071753042E-02
(PID.TID 0000.0001) %MON dynstat_theta_del2           =   2.4988243640255E-03
(PID.TID 0000.0001) %MON dynstat_salt_max             =   3.5000000000000E+01
(PID.TID 0000.0001) %MON dynstat_salt_min             =   3.5000000000000E+01
(PID.TID 0000.0001) %MON dynstat_salt_mean            =   3.4999999999986E+01
(PID.TID 0000.0001) %MON dynstat_salt_sd              =   1.4040324458618E-11
(PID.TID 0000.0001) %MON dynstat_salt_del2            =   0.0000000000000E+00
(PID.TID 0000.0001) %MON advcfl_uvel_max              =   5.6483806826926E-04
(PID.TID 0000.0001) %MON advcfl_vvel_max              =   1.1394347171536E-03
(PID.TID 0000.0001) %MON advcfl_wvel_max              =   3.7860273032945E-03
(PID.TID 0000.0001) %MON advcfl_W_hf_max              =   3.7860273032945E-03
(PID.TID 0000.0001) %MON pe_b_mean                    =   1.5645615257573E-12
(PID.TID 0000.0001) %MON ke_max                       =   4.3483650871878E-09
(PID.TID 0000.0001) %MON ke_mean                      =   4.4080405267547E-11
(PID.TID 0000.0001) %MON ke_vol                       =   3.8082386146826E-02
(PID.TID 0000.0001) %MON vort_r_min                   =  -2.0228992055459E-03
(PID.TID 0000.0001) %MON vort_r_max                   =   2.0486071513542E-03
(PID.TID 0000.0001) %MON vort_a_mean                  =   5.0000000000220E-01
(PID.TID 0000.0001) %MON vort_a_sd                    =   1.2837399556075E-04
(PID.TID 0000.0001) %MON vort_p_mean                  =   5.3488372093260E-01
(PID.TID 0000.0001) %MON vort_p_sd                    =   2.2607258618663E-01
(PID.TID 0000.0001) %MON surfExpan_theta_mean         =   0.0000000000000E+00
(PID.TID 0000.0001) %MON surfExpan_salt_mean          =   0.0000000000000E+00
(PID.TID 0000.0001) // =======================================================
(PID.TID 0000.0001) // End MONITOR dynamic field statistics
(PID.TID 0000.0001) // =======================================================
 cg2d: Sum(rhs),rhsMax =  -2.09381123550401E-15  3.24302108373515E-06
(PID.TID 0000.0001)                    cg2d_init_res =    7.10612990432299E-01
(PID.TID 0000.0001)                       cg2d_iters =    38
(PID.TID 0000.0001)                         cg2d_res =    8.68704564674605E-08
 cg3d: Sum(rhs),rhsMax =   1.43027950594288E-14  1.12790948790934E-06
(PID.TID 0000.0001)                    cg3d_init_res =    2.30020974362117E+00
(PID.TID 0000.0001)                       cg3d_iters =    10
(PID.TID 0000.0001)                         cg3d_res =    2.40155054481154E-01
(PID.TID 0000.0001) // =======================================================
(PID.TID 0000.0001) // Begin MONITOR dynamic field statistics
(PID.TID 0000.0001) // =======================================================
(PID.TID 0000.0001) %MON time_tsnumber                =                    20
(PID.TID 0000.0001) %MON time_secondsf                =   2.0000000000000E+00
(PID.TID 0000.0001) %MON dynstat_eta_max              =   9.2369637241152E-08
(PID.TID 0000.0001) %MON dynstat_eta_min              =  -1.4777079161195E-06
(PID.TID 0000.0001) %MON dynstat_eta_mean             =   5.3256324588485E-08
(PID.TID 0000.0001) %MON dynstat_eta_sd               =   2.1994572222657E-07
(PID.TID 0000.0001) %MON dynstat_eta_del2             =   3.7221237247036E-08
(PID.TID 0000.0001) %MON dynstat_uvel_max             =   3.2154640001359E-05
(PID.TID 0000.0001) %MON dynstat_uvel_min             =  -3.2344429184129E-05
(PID.TID 0000.0001) %MON dynstat_uvel_mean            =   9.7560075095201E-11
(PID.TID 0000.0001) %MON dynstat_uvel_sd              =   3.2487890633039E-06
(PID.TID 0000.0001) %MON dynstat_uvel_del2            =   2.2435361176934E-07
(PID.TID 0000.0001) %MON dynstat_vvel_max             =   1.2316885775088E-04
(PID.TID 0000.0001) %MON dynstat_vvel_min             =  -1.2531332080256E-04
(PID.TID 0000.0001) %MON dynstat_vvel_mean            =  -1.9740157059425E-17
(PID.TID 0000.0001) %MON dynstat_vvel_sd              =   1.0076138995778E-05
(PID.TID 0000.0001) %MON dynstat_vvel_del2            =   3.6940512896213E-07
(PID.TID 0000.0001) %MON dynstat_wvel_max             =   3.7294187562696E-05
(PID.TID 0000.0001) %MON dynstat_wvel_min             =  -2.0740949283056E-04
(PID.TID 0000.0001) %MON dynstat_wvel_mean            =  -1.1046868990139E-21
(PID.TID 0000.0001) %MON dynstat_wvel_sd              =   2.4328576740983E-05
(PID.TID 0000.0001) %MON dynstat_wvel_del2            =   6.0427282974226E-06
(PID.TID 0000.0001) %MON dynstat_theta_max            =   2.0000960106181E+01
(PID.TID 0000.0001) %MON dynstat_theta_min            =   1.9890142042603E+01
(PID.TID 0000.0001) %MON dynstat_theta_mean           =   1.9998215567254E+01
(PID.TID 0000.0001) %MON dynstat_theta_sd             =   1.5476303781839E-02
(PID.TID 0000.0001) %MON dynstat_theta_del2           =   2.6122496347553E-03
(PID.TID 0000.0001) %MON dynstat_salt_max             =   3.5000000000000E+01
(PID.TID 0000.0001) %MON dynstat_salt_min             =   3.5000000000000E+01
(PID.TID 0000.0001) %MON dynstat_salt_mean            =   3.4999999999986E+01
(PID.TID 0000.0001) %MON dynstat_salt_sd              =   1.4040324458618E-11
(PID.TID 0000.0001) %MON dynstat_salt_del2            =   0.0000000000000E+00
(PID.TID 0000.0001) %MON advcfl_uvel_max              =   6.5024536245978E-04
(PID.TID 0000.0001) %MON advcfl_vvel_max              =   1.2531332080256E-03
(PID.TID 0000.0001) %MON advcfl_wvel_max              =   4.1481898566112E-03
(PID.TID 0000.0001) %MON advcfl_W_hf_max              =   4.1481898566112E-03
(PID.TID 0000.0001) %MON pe_b_mean                    =   1.7323904156750E-12
(PID.TID 0000.0001) %MON ke_max                       =   5.3117543562361E-09
(PID.TID 0000.0001) %MON ke_mean                      =   5.3734136064282E-11
(PID.TID 0000.0001) %MON ke_vol                       =   3.8082386146826E-02
(PID.TID 0000.0001) %MON vort_r_min                   =  -2.3252159145899E-03
(PID.TID 0000.0001) %MON vort_r_max                   =   2.3645001338031E-03
(PID.TID 0000.0001) %MON vort_a_mean                  =   5.0000000000220E-01
(PID.TID 0000.0001) %MON vort_a_sd                    =   1.4877772453290E-04
(PID.TID 0000.0001) %MON vort_p_mean                  =   5.3488372093259E-01
(PID.TID 0000.0001) %MON vort_p_sd                    =   2.2607266856264E-01
(PID.TID 0000.0001) %MON surfExpan_theta_mean         =   0.0000000000000E+00
(PID.TID 0000.0001) %MON surfExpan_salt_mean          =   0.0000000000000E+00
(PID.TID 0000.0001) // =======================================================
(PID.TID 0000.0001) // End MONITOR dynamic field statistics
(PID.TID 0000.0001) // =======================================================
(PID.TID 0000.0001)   Seconds in section "ALL                    [THE_MODEL_MAIN]":
(PID.TID 0000.0001)           User time:  46.414943
(PID.TID 0000.0001)         System time:  1.38679001
(PID.TID 0000.0001)     Wall clock time:  48.388052
(PID.TID 0000.0001)          No. starts: 1
(PID.TID 0000.0001)           No. stops: 1
(PID.TID 0000.0001)   Seconds in section "INITIALISE_FIXED       [THE_MODEL_MAIN]":
(PID.TID 0000.0001)           User time:  7.23590023
(PID.TID 0000.0001)         System time:  0.675897989
(PID.TID 0000.0001)     Wall clock time:  8.36972594
(PID.TID 0000.0001)          No. starts: 1
(PID.TID 0000.0001)           No. stops: 1
(PID.TID 0000.0001)   Seconds in section "THE_MAIN_LOOP          [THE_MODEL_MAIN]":
(PID.TID 0000.0001)           User time:  39.1790428
(PID.TID 0000.0001)         System time:  0.710892022
(PID.TID 0000.0001)     Wall clock time:  40.0181291
(PID.TID 0000.0001)          No. starts: 1
(PID.TID 0000.0001)           No. stops: 1
(PID.TID 0000.0001)   Seconds in section "INITIALISE_VARIA    [THE_MAIN_LOOP]":
(PID.TID 0000.0001)           User time:  0.126980782
(PID.TID 0000.0001)         System time:  0.0289950371
(PID.TID 0000.0001)     Wall clock time:  0.179877996
(PID.TID 0000.0001)          No. starts: 1
(PID.TID 0000.0001)           No. stops: 1
(PID.TID 0000.0001)   Seconds in section "MONITOR             [THE_MAIN_LOOP]":
(PID.TID 0000.0001)           User time:  1.25080919
(PID.TID 0000.0001)         System time:  0.0039999485
(PID.TID 0000.0001)     Wall clock time:  1.25436711
(PID.TID 0000.0001)          No. starts: 1
(PID.TID 0000.0001)           No. stops: 1
(PID.TID 0000.0001)   Seconds in section "DO_THE_MODEL_IO     [THE_MAIN_LOOP]":
(PID.TID 0000.0001)           User time:  0.261960983
(PID.TID 0000.0001)         System time:  0.123980999
(PID.TID 0000.0001)     Wall clock time:  0.392446041
(PID.TID 0000.0001)          No. starts: 1
(PID.TID 0000.0001)           No. stops: 1
(PID.TID 0000.0001)   Seconds in section "MAIN LOOP           [THE_MAIN_LOOP]":
(PID.TID 0000.0001)           User time:  37.5382919
(PID.TID 0000.0001)         System time:  0.553916037
(PID.TID 0000.0001)     Wall clock time:  38.1912291
(PID.TID 0000.0001)          No. starts: 1
(PID.TID 0000.0001)           No. stops: 1
(PID.TID 0000.0001)   Seconds in section "FORWARD_STEP        [THE_MAIN_LOOP]":
(PID.TID 0000.0001)           User time:  37.5382919
(PID.TID 0000.0001)         System time:  0.55291605
(PID.TID 0000.0001)     Wall clock time:  38.1904652
(PID.TID 0000.0001)          No. starts: 20
(PID.TID 0000.0001)           No. stops: 20
(PID.TID 0000.0001)   Seconds in section "EXTERNAL_FIELDS_LOAD[FORWARD_STEP]":
(PID.TID 0000.0001)           User time:  0.000999450684
(PID.TID 0000.0001)         System time:  0.
(PID.TID 0000.0001)     Wall clock time:  0.000741958618
(PID.TID 0000.0001)          No. starts: 20
(PID.TID 0000.0001)           No. stops: 20
(PID.TID 0000.0001)   Seconds in section "DO_ATMOSPHERIC_PHYS [FORWARD_STEP]":
(PID.TID 0000.0001)           User time:  0.000999450684
(PID.TID 0000.0001)         System time:  0.
(PID.TID 0000.0001)     Wall clock time:  0.000785589218
(PID.TID 0000.0001)          No. starts: 20
(PID.TID 0000.0001)           No. stops: 20
(PID.TID 0000.0001)   Seconds in section "DO_OCEANIC_PHYS     [FORWARD_STEP]":
(PID.TID 0000.0001)           User time:  0.154985428
(PID.TID 0000.0001)         System time:  0.00799900293
(PID.TID 0000.0001)     Wall clock time:  0.163365364
(PID.TID 0000.0001)          No. starts: 20
(PID.TID 0000.0001)           No. stops: 20
(PID.TID 0000.0001)   Seconds in section "THERMODYNAMICS      [FORWARD_STEP]":
(PID.TID 0000.0001)           User time:  4.95424557
(PID.TID 0000.0001)         System time:  0.0109981298
(PID.TID 0000.0001)     Wall clock time:  4.98948908
(PID.TID 0000.0001)          No. starts: 20
(PID.TID 0000.0001)           No. stops: 20
(PID.TID 0000.0001)   Seconds in section "DYNAMICS            [FORWARD_STEP]":
(PID.TID 0000.0001)           User time:  6.38202572
(PID.TID 0000.0001)         System time:  0.0139979124
(PID.TID 0000.0001)     Wall clock time:  6.40663266
(PID.TID 0000.0001)          No. starts: 20
(PID.TID 0000.0001)           No. stops: 20
(PID.TID 0000.0001)   Seconds in section "CALC_GW          [FORWARD_STEP]":
(PID.TID 0000.0001)           User time:  1.28580189
(PID.TID 0000.0001)         System time:  0.00300014019
(PID.TID 0000.0001)     Wall clock time:  1.28950286
(PID.TID 0000.0001)          No. starts: 20
(PID.TID 0000.0001)           No. stops: 20
(PID.TID 0000.0001)   Seconds in section "SOLVE_FOR_PRESSURE  [FORWARD_STEP]":
(PID.TID 0000.0001)           User time:  17.2293835
(PID.TID 0000.0001)         System time:  0.0239959955
(PID.TID 0000.0001)     Wall clock time:  17.2613738
(PID.TID 0000.0001)          No. starts: 20
(PID.TID 0000.0001)           No. stops: 20
(PID.TID 0000.0001)   Seconds in section "UV_CORRECTION_STEP  [FORWARD_STEP]":
(PID.TID 0000.0001)           User time:  0.684896469
(PID.TID 0000.0001)         System time:  0.
(PID.TID 0000.0001)     Wall clock time:  0.686162949
(PID.TID 0000.0001)          No. starts: 20
(PID.TID 0000.0001)           No. stops: 20
(PID.TID 0000.0001)   Seconds in section "TS_CORRECTION_STEP  [FORWARD_STEP]":
(PID.TID 0000.0001)           User time:  0.140981674
(PID.TID 0000.0001)         System time:  0.
(PID.TID 0000.0001)     Wall clock time:  0.138465166
(PID.TID 0000.0001)          No. starts: 20
(PID.TID 0000.0001)           No. stops: 20
(PID.TID 0000.0001)   Seconds in section "BLOCKING_EXCHANGES  [FORWARD_STEP]":
(PID.TID 0000.0001)           User time:  0.200967789
(PID.TID 0000.0001)         System time:  0.00100004673
(PID.TID 0000.0001)     Wall clock time:  0.203531981
(PID.TID 0000.0001)          No. starts: 20
(PID.TID 0000.0001)           No. stops: 20
(PID.TID 0000.0001)   Seconds in section "DO_STATEVARS_TAVE   [FORWARD_STEP]":
(PID.TID 0000.0001)           User time:  0.000999450684
(PID.TID 0000.0001)         System time:  0.
(PID.TID 0000.0001)     Wall clock time:  0.000709056854
(PID.TID 0000.0001)          No. starts: 20
(PID.TID 0000.0001)           No. stops: 20
(PID.TID 0000.0001)   Seconds in section "MONITOR             [FORWARD_STEP]":
(PID.TID 0000.0001)           User time:  5.17621326
(PID.TID 0000.0001)         System time:  0.0309938192
(PID.TID 0000.0001)     Wall clock time:  5.20848012
(PID.TID 0000.0001)          No. starts: 20
(PID.TID 0000.0001)           No. stops: 20
(PID.TID 0000.0001)   Seconds in section "DO_THE_MODEL_IO     [FORWARD_STEP]":
(PID.TID 0000.0001)           User time:  0.526918411
(PID.TID 0000.0001)         System time:  0.168975055
(PID.TID 0000.0001)     Wall clock time:  0.707150221
(PID.TID 0000.0001)          No. starts: 20
(PID.TID 0000.0001)           No. stops: 20
(PID.TID 0000.0001)   Seconds in section "WRITE_CHECKPOINT    [FORWARD_STEP]":
(PID.TID 0000.0001)           User time:  0.786878586
(PID.TID 0000.0001)         System time:  0.291955948
(PID.TID 0000.0001)     Wall clock time:  1.12305307
(PID.TID 0000.0001)          No. starts: 20
(PID.TID 0000.0001)           No. stops: 20
(PID.TID 0000.0001)   Seconds in section "WRITE_CHECKPOINT       [THE_MODEL_MAIN]":
(PID.TID 0000.0001)           User time:  0.
(PID.TID 0000.0001)         System time:  0.
(PID.TID 0000.0001)     Wall clock time:  3.60012054E-05
(PID.TID 0000.0001)          No. starts: 1
(PID.TID 0000.0001)           No. stops: 1
(PID.TID 0000.0001) // ======================================================
(PID.TID 0000.0001) // Tile <-> Tile communication statistics
(PID.TID 0000.0001) // ======================================================
(PID.TID 0000.0001) // o Tile number: 000001
(PID.TID 0000.0001) //         No. X exchanges =              0
(PID.TID 0000.0001) //            Max. X spins =              0
(PID.TID 0000.0001) //            Min. X spins =     1000000000
(PID.TID 0000.0001) //          Total. X spins =              0
(PID.TID 0000.0001) //            Avg. X spins =       0.00E+00
(PID.TID 0000.0001) //         No. Y exchanges =              0
(PID.TID 0000.0001) //            Max. Y spins =              0
(PID.TID 0000.0001) //            Min. Y spins =     1000000000
(PID.TID 0000.0001) //          Total. Y spins =              0
(PID.TID 0000.0001) //            Avg. Y spins =       0.00E+00
(PID.TID 0000.0001) // o Thread number: 000001
(PID.TID 0000.0001) //            No. barriers =          20082
(PID.TID 0000.0001) //      Max. barrier spins =              1
(PID.TID 0000.0001) //      Min. barrier spins =              1
(PID.TID 0000.0001) //     Total barrier spins =          20082
(PID.TID 0000.0001) //      Avg. barrier spins =       1.00E+00
