(PID.TID 0000.0001) 
(PID.TID 0000.0001) // ======================================================
(PID.TID 0000.0001) //                      MITgcm UV
(PID.TID 0000.0001) //                      =========
(PID.TID 0000.0001) // ======================================================
(PID.TID 0000.0001) // execution environment starting up...
(PID.TID 0000.0001) 
(PID.TID 0000.0001) // MITgcmUV version:  checkpoint61o
(PID.TID 0000.0001) // Build user:        jmc
(PID.TID 0000.0001) // Build host:        faulks
(PID.TID 0000.0001) // Build date:        Thu May 28 19:23:33 EDT 2009
(PID.TID 0000.0001) 
(PID.TID 0000.0001) // =======================================================
(PID.TID 0000.0001) // Execution Environment parameter file "eedata"
(PID.TID 0000.0001) // =======================================================
(PID.TID 0000.0001) ># Example "eedata" file
(PID.TID 0000.0001) ># Lines beginning "#" are comments
(PID.TID 0000.0001) ># nTx - No. threads per process in X
(PID.TID 0000.0001) ># nTy - No. threads per process in Y
(PID.TID 0000.0001) > &EEPARMS
(PID.TID 0000.0001) > useCubedSphereExchange=.TRUE.,
(PID.TID 0000.0001) > nTx=1,
(PID.TID 0000.0001) > nTy=1,
(PID.TID 0000.0001) > &
(PID.TID 0000.0001) ># Note: Some systems use & as the
(PID.TID 0000.0001) ># namelist terminator. Other systems
(PID.TID 0000.0001) ># use a / character (as shown here).
(PID.TID 0000.0001) 
(PID.TID 0000.0001) // =======================================================
(PID.TID 0000.0001) // Computational Grid Specification ( see files "SIZE.h" )
(PID.TID 0000.0001) //                                  ( and "eedata"       )
(PID.TID 0000.0001) // =======================================================
(PID.TID 0000.0001)      nPx =    1 ; /* No. processes in X */
(PID.TID 0000.0001)      nPy =    1 ; /* No. processes in Y */
(PID.TID 0000.0001)      nSx =   12 ; /* No. tiles in X per process */
(PID.TID 0000.0001)      nSy =    1 ; /* No. tiles in Y per process */
(PID.TID 0000.0001)      sNx =   32 ; /* Tile size in X */
(PID.TID 0000.0001)      sNy =   16 ; /* Tile size in Y */
(PID.TID 0000.0001)      OLx =    4 ; /* Tile overlap distance in X */
(PID.TID 0000.0001)      OLy =    4 ; /* Tile overlap distance in Y */
(PID.TID 0000.0001)      nTx =    1 ; /* No. threads in X per process */
(PID.TID 0000.0001)      nTy =    1 ; /* No. threads in Y per process */
(PID.TID 0000.0001)       Nr =   15 ; /* No. levels in the vertical   */
(PID.TID 0000.0001)       Nx =  384 ; /* Total domain size in X ( = nPx*nSx*sNx ) */
(PID.TID 0000.0001)       Ny =   16 ; /* Total domain size in Y ( = nPy*nSy*sNy ) */
(PID.TID 0000.0001)   nTiles =   12 ; /* Total no. tiles per process ( = nSx*nSy ) */
(PID.TID 0000.0001)   nProcs =    1 ; /* Total no. processes ( = nPx*nPy ) */
(PID.TID 0000.0001) nThreads =    1 ; /* Total no. threads per process ( = nTx*nTy ) */
(PID.TID 0000.0001) usingMPI =    F ; /* Flag used to control whether MPI is in use */
(PID.TID 0000.0001)                   /*  note: To execute a program with MPI calls */
(PID.TID 0000.0001)                   /*  it must be launched appropriately e.g     */
(PID.TID 0000.0001)                   /*  "mpirun -np 64 ......"                    */
(PID.TID 0000.0001) useCoupler=    F ;/* Flag used to control communications with   */
(PID.TID 0000.0001)                   /*  other model components, through a coupler */
(PID.TID 0000.0001) printMapIncludesZeros=    F ; /* print zeros in Std.Output maps */
(PID.TID 0000.0001) maxLengthPrt1D=   65 /* maxLength of 1D array printed to StdOut */
(PID.TID 0000.0001) 
(PID.TID 0000.0001) // ======================================================
(PID.TID 0000.0001) // Mapping of tiles to threads
(PID.TID 0000.0001) // ======================================================
(PID.TID 0000.0001) // -o- Thread   1, tiles (   1:  12,   1:   1)
(PID.TID 0000.0001) 
(PID.TID 0000.0001) W2_READPARMS: file data.exch2 not found
(PID.TID 0000.0001) => use W2_EXCH2 default: regular 6-facets Cube
(PID.TID 0000.0001) ===== Start setting W2 TOPOLOGY:
(PID.TID 0000.0001)  write to log-file: w2_tile_topology.0000.log
(PID.TID 0000.0001) =====       setting W2 TOPOLOGY: Done
(PID.TID 0000.0001) 
(PID.TID 0000.0001) // =======================================================
(PID.TID 0000.0001) // Model parameter file "data"
(PID.TID 0000.0001) // =======================================================
(PID.TID 0000.0001) ># ====================
(PID.TID 0000.0001) ># | Model parameters |
(PID.TID 0000.0001) ># ====================
(PID.TID 0000.0001) >#
(PID.TID 0000.0001) ># Continuous equation parameters
(PID.TID 0000.0001) > &PARM01
(PID.TID 0000.0001) > tRef=15*20.,
(PID.TID 0000.0001) > sRef=15*35.,
(PID.TID 0000.0001) > viscAh =1.E5,
(PID.TID 0000.0001) >#- biharmonic Viscosity: 3.e15 is close to the stability limit with deltaTmom=20mn
(PID.TID 0000.0001) > viscA4 =3.E14,
(PID.TID 0000.0001) > viscAr =1.E-3,
(PID.TID 0000.0001) > diffKhT=0.,
(PID.TID 0000.0001) > diffK4T=0.,
(PID.TID 0000.0001) > diffKrT=3.E-5,
(PID.TID 0000.0001) > diffKhS=0.,
(PID.TID 0000.0001) > diffK4S=0.,
(PID.TID 0000.0001) > diffKrS=3.E-5,
(PID.TID 0000.0001) > ivdc_kappa=10.,
(PID.TID 0000.0001) > implicitDiffusion=.TRUE.,
(PID.TID 0000.0001) > gravity=9.81,
(PID.TID 0000.0001) > rhonil=1035.,
(PID.TID 0000.0001) > rhoConstFresh=1000.,
(PID.TID 0000.0001) > eosType='JMD95Z',
(PID.TID 0000.0001) > staggerTimeStep=.TRUE.,
(PID.TID 0000.0001) > vectorInvariantMomentum=.TRUE.,
(PID.TID 0000.0001) > implicitFreeSurface=.TRUE.,
(PID.TID 0000.0001) > exactConserv=.TRUE.,
(PID.TID 0000.0001) > nonHydrostatic=.TRUE.,
(PID.TID 0000.0001) > useNHMTerms=.TRUE.,
(PID.TID 0000.0001) > hFacInf=0.2,
(PID.TID 0000.0001) > hFacSup=2.0,
(PID.TID 0000.0001) > useRealFreshWaterFlux=.TRUE.,
(PID.TID 0000.0001) > allowFreezing=.TRUE.,
(PID.TID 0000.0001) > hFacMin=.1,
(PID.TID 0000.0001) > hFacMinDr=20.,
(PID.TID 0000.0001) > readBinaryPrec=64,
(PID.TID 0000.0001) > useSingleCpuIO=.TRUE.,
(PID.TID 0000.0001) > &
(PID.TID 0000.0001) >
(PID.TID 0000.0001) ># Elliptic solver parameters
(PID.TID 0000.0001) > &PARM02
(PID.TID 0000.0001) > cg2dMaxIters=200,
(PID.TID 0000.0001) >#cg2dTargetResidual=1.E-9,
(PID.TID 0000.0001) > cg2dTargetResWunit=1.E-14,
(PID.TID 0000.0001) > cg3dMaxIters=60,
(PID.TID 0000.0001) > cg3dTargetResidual=1.E-9,
(PID.TID 0000.0001) > &
(PID.TID 0000.0001) >
(PID.TID 0000.0001) ># Time stepping parameters
(PID.TID 0000.0001) > &PARM03
(PID.TID 0000.0001) > nIter0=86400,
(PID.TID 0000.0001) > nTimeSteps=10,
(PID.TID 0000.0001) > deltaTClock =3600.,
(PID.TID 0000.0001) > abEps = 0.12,
(PID.TID 0000.0001) > forcing_In_AB=.FALSE.,
(PID.TID 0000.0001) > pickupStrictlyMatch=.FALSE.,
(PID.TID 0000.0001) > pChkptFreq  =31104000.,
(PID.TID 0000.0001) >#chkptFreq   =311040000.,
(PID.TID 0000.0001) > taveFreq    =31104000.,
(PID.TID 0000.0001) > dumpFreq    =31104000.,
(PID.TID 0000.0001) > monitorFreq =86400.,
(PID.TID 0000.0001) > periodicExternalForcing=.TRUE.,
(PID.TID 0000.0001) > externForcingPeriod=2592000.,
(PID.TID 0000.0001) > externForcingCycle=31104000.,
(PID.TID 0000.0001) ># 2 months restoring timescale for temperature
(PID.TID 0000.0001) > tauThetaClimRelax = 5184000.,
(PID.TID 0000.0001) ># 2yrs restoring timescale for salinity
(PID.TID 0000.0001) > tauSaltClimRelax = 62208000.,
(PID.TID 0000.0001) > monitorFreq =1.,
(PID.TID 0000.0001) > &
(PID.TID 0000.0001) >
(PID.TID 0000.0001) ># Gridding parameters
(PID.TID 0000.0001) > &PARM04
(PID.TID 0000.0001) > usingCurvilinearGrid=.TRUE.,
(PID.TID 0000.0001) > horizGridFile='grid_cs32',
(PID.TID 0000.0001) > delR= 50., 70., 100., 140., 190.,
(PID.TID 0000.0001) >       240., 290., 340., 390., 440.,
(PID.TID 0000.0001) >       490., 540., 590., 640., 690.,
(PID.TID 0000.0001) > &
(PID.TID 0000.0001) >
(PID.TID 0000.0001) ># Input datasets
(PID.TID 0000.0001) > &PARM05
(PID.TID 0000.0001) > bathyFile      ='bathy_Hmin50.bin',
(PID.TID 0000.0001) > hydrogThetaFile='lev_T_cs_15k.bin',
(PID.TID 0000.0001) > hydrogSaltFile ='lev_S_cs_15k.bin',
(PID.TID 0000.0001) > zonalWindFile  ='trenberth_taux.bin',
(PID.TID 0000.0001) > meridWindFile  ='trenberth_tauy.bin',
(PID.TID 0000.0001) > thetaClimFile  ='lev_surfT_cs_12m.bin',
(PID.TID 0000.0001) > saltClimFile   ='lev_surfS_cs_12m.bin',
(PID.TID 0000.0001) > surfQFile      ='shiQnet_cs32.bin',
(PID.TID 0000.0001) > EmPmRFile      ='shiEmPR_cs32.bin',
(PID.TID 0000.0001) > &
(PID.TID 0000.0001) 
(PID.TID 0000.0001) S/R INI_PARMS ; starts to read PARM01
(PID.TID 0000.0001) S/R INI_PARMS ; read PARM01 : OK
(PID.TID 0000.0001) S/R INI_PARMS ; starts to read PARM02
(PID.TID 0000.0001) S/R INI_PARMS ; read PARM02 : OK
(PID.TID 0000.0001) S/R INI_PARMS ; starts to read PARM03
(PID.TID 0000.0001) S/R INI_PARMS ; read PARM03 : OK
(PID.TID 0000.0001) S/R INI_PARMS ; starts to read PARM04
(PID.TID 0000.0001) S/R INI_PARMS ; read PARM04 : OK
(PID.TID 0000.0001) S/R INI_PARMS ; starts to read PARM05
(PID.TID 0000.0001) S/R INI_PARMS ; read PARM05 : OK
(PID.TID 0000.0001)  PACKAGES_BOOT: opening data.pkg
(PID.TID 0000.0001)  OPEN_COPY_DATA_FILE: opening file data.pkg
(PID.TID 0000.0001) // =======================================================
(PID.TID 0000.0001) // Parameter file "data.pkg"
(PID.TID 0000.0001) // =======================================================
(PID.TID 0000.0001) ># Packages
(PID.TID 0000.0001) > &PACKAGES
(PID.TID 0000.0001) > useGMRedi=.TRUE.,
(PID.TID 0000.0001) >#useBulkforce=.TRUE.,
(PID.TID 0000.0001) >#useThSIce=.TRUE.,
(PID.TID 0000.0001) >#useDiagnostics=.TRUE.,
(PID.TID 0000.0001) >#useMNC=.TRUE.,
(PID.TID 0000.0001) > &
(PID.TID 0000.0001) 
(PID.TID 0000.0001)  PACKAGES_BOOT: finished reading data.pkg
(PID.TID 0000.0001)  GM_READPARMS: opening data.gmredi
(PID.TID 0000.0001)  OPEN_COPY_DATA_FILE: opening file data.gmredi
(PID.TID 0000.0001) // =======================================================
(PID.TID 0000.0001) // Parameter file "data.gmredi"
(PID.TID 0000.0001) // =======================================================
(PID.TID 0000.0001) ># GM+Redi package parameters:
(PID.TID 0000.0001) >
(PID.TID 0000.0001) >#-from MOM :
(PID.TID 0000.0001) ># GM_background_K: 	G & Mc.W  diffusion coefficient
(PID.TID 0000.0001) ># GM_maxSlope    :	max slope of isopycnals
(PID.TID 0000.0001) ># GM_Scrit       :	transition for scaling diffusion coefficient
(PID.TID 0000.0001) ># GM_Sd          :	half width scaling for diffusion coefficient
(PID.TID 0000.0001) ># GM_taper_scheme:	slope clipping or one of the tapering schemes
(PID.TID 0000.0001) ># GM_Kmin_horiz  :	horizontal diffusion minimum value
(PID.TID 0000.0001) >
(PID.TID 0000.0001) >#-Option parameters (needs to "define" options in GMREDI_OPTIONS.h")
(PID.TID 0000.0001) ># GM_isopycK     :	isopycnal diffusion coefficient (default=GM_background_K)
(PID.TID 0000.0001) ># GM_AdvForm     :	turn on GM Advective form       (default=Skew flux form)
(PID.TID 0000.0001) >
(PID.TID 0000.0001) > &GM_PARM01
(PID.TID 0000.0001) >  GM_background_K    = 800.,
(PID.TID 0000.0001) >  GM_taper_scheme    = 'gkw91',
(PID.TID 0000.0001) >  GM_maxSlope        = 1.e-2,
(PID.TID 0000.0001) >  GM_Kmin_horiz      = 50.,
(PID.TID 0000.0001) >  GM_Scrit           = 4.e-3,
(PID.TID 0000.0001) >  GM_Sd              = 1.e-3,
(PID.TID 0000.0001) ># GM_Visbeck_alpha   = 0.,
(PID.TID 0000.0001) ># GM_Visbeck_length  = 2.e+5,
(PID.TID 0000.0001) ># GM_Visbeck_depth   = 1.e+3,
(PID.TID 0000.0001) ># GM_Visbeck_maxval_K= 2.5e+3,
(PID.TID 0000.0001) > &
(PID.TID 0000.0001) >
(PID.TID 0000.0001) >
(PID.TID 0000.0001) 
(PID.TID 0000.0001)  GM_READPARMS: finished reading data.gmredi
(PID.TID 0000.0001) SET_PARMS: done
(PID.TID 0000.0001) Enter INI_VERTICAL_GRID: setInterFDr=    T ; setCenterDr=    F
(PID.TID 0000.0001) tile:   1 ; Read from file grid_cs32.face001.bin
(PID.TID 0000.0001)   => xC yC dxF dyF rA xG yG dxV dyU rAz dxC dyC rAw rAs dxG dyG AngleCS AngleSN
(PID.TID 0000.0001) tile:   2 ; Read from file grid_cs32.face001.bin
(PID.TID 0000.0001)   => xC yC dxF dyF rA xG yG dxV dyU rAz dxC dyC rAw rAs dxG dyG AngleCS AngleSN
(PID.TID 0000.0001) tile:   3 ; Read from file grid_cs32.face002.bin
(PID.TID 0000.0001)   => xC yC dxF dyF rA xG yG dxV dyU rAz dxC dyC rAw rAs dxG dyG AngleCS AngleSN
(PID.TID 0000.0001) tile:   4 ; Read from file grid_cs32.face002.bin
(PID.TID 0000.0001)   => xC yC dxF dyF rA xG yG dxV dyU rAz dxC dyC rAw rAs dxG dyG AngleCS AngleSN
(PID.TID 0000.0001) tile:   5 ; Read from file grid_cs32.face003.bin
(PID.TID 0000.0001)   => xC yC dxF dyF rA xG yG dxV dyU rAz dxC dyC rAw rAs dxG dyG AngleCS AngleSN
(PID.TID 0000.0001) tile:   6 ; Read from file grid_cs32.face003.bin
(PID.TID 0000.0001)   => xC yC dxF dyF rA xG yG dxV dyU rAz dxC dyC rAw rAs dxG dyG AngleCS AngleSN
(PID.TID 0000.0001) tile:   7 ; Read from file grid_cs32.face004.bin
(PID.TID 0000.0001)   => xC yC dxF dyF rA xG yG dxV dyU rAz dxC dyC rAw rAs dxG dyG AngleCS AngleSN
(PID.TID 0000.0001) tile:   8 ; Read from file grid_cs32.face004.bin
(PID.TID 0000.0001)   => xC yC dxF dyF rA xG yG dxV dyU rAz dxC dyC rAw rAs dxG dyG AngleCS AngleSN
(PID.TID 0000.0001) tile:   9 ; Read from file grid_cs32.face005.bin
(PID.TID 0000.0001)   => xC yC dxF dyF rA xG yG dxV dyU rAz dxC dyC rAw rAs dxG dyG AngleCS AngleSN
(PID.TID 0000.0001) tile:  10 ; Read from file grid_cs32.face005.bin
(PID.TID 0000.0001)   => xC yC dxF dyF rA xG yG dxV dyU rAz dxC dyC rAw rAs dxG dyG AngleCS AngleSN
(PID.TID 0000.0001) tile:  11 ; Read from file grid_cs32.face006.bin
(PID.TID 0000.0001)   => xC yC dxF dyF rA xG yG dxV dyU rAz dxC dyC rAw rAs dxG dyG AngleCS AngleSN
(PID.TID 0000.0001) tile:  12 ; Read from file grid_cs32.face006.bin
(PID.TID 0000.0001)   => xC yC dxF dyF rA xG yG dxV dyU rAz dxC dyC rAw rAs dxG dyG AngleCS AngleSN
(PID.TID 0000.0001) %MON XC_max                       =   1.7854351589505E+02
(PID.TID 0000.0001) %MON XC_min                       =  -1.7854351589505E+02
(PID.TID 0000.0001) %MON XC_mean                      =  -1.4199289892029E-14
(PID.TID 0000.0001) %MON XC_sd                        =   1.0355545336287E+02
(PID.TID 0000.0001) %MON XG_max                       =   1.8000000000000E+02
(PID.TID 0000.0001) %MON XG_min                       =  -1.7708797161002E+02
(PID.TID 0000.0001) %MON XG_mean                      =   1.8603515625000E+00
(PID.TID 0000.0001) %MON XG_sd                        =   1.0357130300504E+02
(PID.TID 0000.0001) %MON DXC_max                      =   3.2375185836900E+05
(PID.TID 0000.0001) %MON DXC_min                      =   1.1142031410131E+05
(PID.TID 0000.0001) %MON DXC_mean                     =   2.8605689051214E+05
(PID.TID 0000.0001) %MON DXC_sd                       =   3.4042087138252E+04
(PID.TID 0000.0001) %MON DXF_max                      =   3.2369947500827E+05
(PID.TID 0000.0001) %MON DXF_min                      =   1.2020820513318E+05
(PID.TID 0000.0001) %MON DXF_mean                     =   2.8605437324820E+05
(PID.TID 0000.0001) %MON DXF_sd                       =   3.4050524252539E+04
(PID.TID 0000.0001) %MON DXG_max                      =   3.2375195872773E+05
(PID.TID 0000.0001) %MON DXG_min                      =   1.0098378008791E+05
(PID.TID 0000.0001) %MON DXG_mean                     =   2.8603818508931E+05
(PID.TID 0000.0001) %MON DXG_sd                       =   3.4140406908005E+04
(PID.TID 0000.0001) %MON DXV_max                      =   3.2380418162750E+05
(PID.TID 0000.0001) %MON DXV_min                      =   8.0152299824136E+04
(PID.TID 0000.0001) %MON DXV_mean                     =   2.8603970633619E+05
(PID.TID 0000.0001) %MON DXV_sd                       =   3.4145142117723E+04
(PID.TID 0000.0001) %MON YC_max                       =   8.7940663871962E+01
(PID.TID 0000.0001) %MON YC_min                       =  -8.7940663871962E+01
(PID.TID 0000.0001) %MON YC_mean                      =  -2.3684757858670E-15
(PID.TID 0000.0001) %MON YC_sd                        =   3.8676242969072E+01
(PID.TID 0000.0001) %MON YG_max                       =   9.0000000000000E+01
(PID.TID 0000.0001) %MON YG_min                       =  -9.0000000000000E+01
(PID.TID 0000.0001) %MON YG_mean                      =  -4.1448326252673E-15
(PID.TID 0000.0001) %MON YG_sd                        =   3.8676895860710E+01
(PID.TID 0000.0001) %MON DYC_max                      =   3.2375185836900E+05
(PID.TID 0000.0001) %MON DYC_min                      =   1.1142031410131E+05
(PID.TID 0000.0001) %MON DYC_mean                     =   2.8605689051214E+05
(PID.TID 0000.0001) %MON DYC_sd                       =   3.4042087138252E+04
(PID.TID 0000.0001) %MON DYF_max                      =   3.2369947500827E+05
(PID.TID 0000.0001) %MON DYF_min                      =   1.2020820513318E+05
(PID.TID 0000.0001) %MON DYF_mean                     =   2.8605437324820E+05
(PID.TID 0000.0001) %MON DYF_sd                       =   3.4050524252539E+04
(PID.TID 0000.0001) %MON DYG_max                      =   3.2375195872773E+05
(PID.TID 0000.0001) %MON DYG_min                      =   1.0098378008791E+05
(PID.TID 0000.0001) %MON DYG_mean                     =   2.8603818508931E+05
(PID.TID 0000.0001) %MON DYG_sd                       =   3.4140406908005E+04
(PID.TID 0000.0001) %MON DYU_max                      =   3.2380418162750E+05
(PID.TID 0000.0001) %MON DYU_min                      =   8.0152299824136E+04
(PID.TID 0000.0001) %MON DYU_mean                     =   2.8603970633619E+05
(PID.TID 0000.0001) %MON DYU_sd                       =   3.4145142117723E+04
(PID.TID 0000.0001) %MON RA_max                       =   1.0479260248419E+11
(PID.TID 0000.0001) %MON RA_min                       =   1.4019007022556E+10
(PID.TID 0000.0001) %MON RA_mean                      =   8.2992246709265E+10
(PID.TID 0000.0001) %MON RA_sd                        =   1.7509089299457E+10
(PID.TID 0000.0001) %MON RAW_max                      =   1.0480965274559E+11
(PID.TID 0000.0001) %MON RAW_min                      =   1.2166903467143E+10
(PID.TID 0000.0001) %MON RAW_mean                     =   8.2992246709235E+10
(PID.TID 0000.0001) %MON RAW_sd                       =   1.7481917919656E+10
(PID.TID 0000.0001) %MON RAS_max                      =   1.0480965274559E+11
(PID.TID 0000.0001) %MON RAS_min                      =   1.2166903467143E+10
(PID.TID 0000.0001) %MON RAS_mean                     =   8.2992246709235E+10
(PID.TID 0000.0001) %MON RAS_sd                       =   1.7481917919656E+10
(PID.TID 0000.0001) %MON RAZ_max                      =   1.0484349334619E+11
(PID.TID 0000.0001) %MON RAZ_min                      =   8.8317900612505E+09
(PID.TID 0000.0001) %MON RAZ_mean                     =   8.2992246709235E+10
(PID.TID 0000.0001) %MON RAZ_sd                       =   1.7482297311044E+10
(PID.TID 0000.0001) %MON AngleCS_max                  =   9.9999994756719E-01
(PID.TID 0000.0001) %MON AngleCS_min                  =  -9.9968286884824E-01
(PID.TID 0000.0001) %MON AngleCS_mean                 =   3.3078850405987E-01
(PID.TID 0000.0001) %MON AngleCS_sd                   =   6.2496317138039E-01
(PID.TID 0000.0001) %MON AngleSN_max                  =   9.9968286884824E-01
(PID.TID 0000.0001) %MON AngleSN_min                  =  -9.9999994756719E-01
(PID.TID 0000.0001) %MON AngleSN_mean                 =  -3.3078850405987E-01
(PID.TID 0000.0001) %MON AngleSN_sd                   =   6.2496317138039E-01
(PID.TID 0000.0001)  MDS_READ_FIELD: opening global file: bathy_Hmin50.bin
(PID.TID 0000.0001) // =======================================================
(PID.TID 0000.0001) // Field Model R_low (ini_masks_etc) at iteration          1
(PID.TID 0000.0001) // CMIN =         -5.200000000000000E+03
(PID.TID 0000.0001) // CMAX =         -5.000000000000000E+01
(PID.TID 0000.0001) // CINT =          1.907407407407407E+02
(PID.TID 0000.0001) // SYMBOLS (CMIN->CMAX): -abcdefghijklmnopqrstuvwxyz+
(PID.TID 0000.0001) //                  0.0: .
(PID.TID 0000.0001) // RANGE I (Lo:Hi:Step):(  -3: 388:   1)
(PID.TID 0000.0001) // RANGE J (Lo:Hi:Step):(  20:  -3:  -1)
(PID.TID 0000.0001) // RANGE K (Lo:Hi:Step):(   1:   1:   1)
(PID.TID 0000.0001) // =======================================================
(PID.TID 0000.0001) K =   1
(PID.TID 0000.0001) //                I=6       I=16      I=26      I=36      I=38      I=48      I=58      I=68      I=70      I=80      I=90      I=100     I=102     I=112     I=122     I=132     I=134     I=144     I=154     I=164     I=166     I=176     I=186     I=196     I=198     I=208     I=218     I=228     I=230     I=240     I=250     I=260     I=262     I=272     I=282     I=292     I=294     I=304     I=314     I=324     I=326     I=336     I=346     I=356     I=358     I=368     I=378     I=388
(PID.TID 0000.0001) // |--J--|321012345|789012345|789012345|789012345|901234567|901234567|901234567|901234567|123456789|123456789|123456789|123456789|345678901|345678901|345678901|345678901|567890123|567890123|567890123|567890123|789012345|789012345|789012345|789012345|901234567|901234567|901234567|901234567|123456789|123456789|123456789|123456789|345678901|345678901|345678901|345678901|567890123|567890123|567890123|567890123|789012345|789012345|789012345|789012345|901234567|901234567|901234567|901234567|
(PID.TID 0000.0001) //     20 fbbbcgfcaa-aae+.......................lccbbc-ddcbcdehkhhmn..++........................lcgfdddhq.+hiilnz++.+oquxyz--adgkf................................okn.skkodcaabcfmtooyxz......+yuiiy....++gb--------a-fc----bba-cp.............tfeecccbbdegb--------ddcca-a-----acbaa------bbaaaabecccbbdeddedcdcccdddcddffggghiggfffdeeff........ywxy.lulo.lv...kcdgddffefffilyx+ijlihjlica---a--cgffel.+edfgeedflcbahgflfffilyx+fffk.+xyyy.........mgeimvskjkllllcbahgfllfhdffhkfffca-aady...llnabdoa--a
(PID.TID 0000.0001) //     19 zmfeccdghfeegcbt......................aadcac--cbbeefjkfefw+..........zpu..............aafifccgnrzgghjry.+++sr+lq.--edfkk................................kqnzrqqkoxtkblwnnsp.vv......skhggt...+++t---------b-da----bbbbfu..............fdddccaadct---------bdaf---------edd-------adlaaaaddccaadcdddcbbbbcdddcccdffffghgffffddeff+..........vnhzy.tllqiedccdhggfggffiiggflligfiljfba---aafddehy...pwvlhfffcbagfccgffiiggfcbdgy..yz..........xigqophijkkiifcbagfcceeffffjlkjgaa---bfvheeln-aesaaab
(PID.TID 0000.0001) //     18 ..wifedfkhfegbbcivlqfoz..............jaad--ba-abcehjnldcclz+........spps.............jaacfihggokeeffgt..++++..hhlfdeddke...............................vkqn+xnnnz..qcz+.zwxtsttz..ysrkhot++++++zig------cabbcbba--aabfu+..............hcbaaaaaccig--------b--f---------egqqqaa----frb---baaaaaccdccbaaabbddddccdffffghfeeeeedeff+........+kkrhw.vqmlnieddcdehgggffgigedbjiffefilhfcaaaacgceei.......zomggfcaecbbffgigedbaaceiy.............zilrddefikkhhgfcaecbbccddefilihecbaacbaajfega-aesfeed
(PID.TID 0000.0001) //     17 ..+wfeefikhgcbbccaaacgn.............icaa--abbbccceiomkfdbbc+.......+s...............icaaccfihfoedddeedy..++...nnqwgfeeke...............................xsrxzz+z.yy.z++..+zsjjllllljllpjos+++.+zhhi-----efdcddb-----adu+...............hcbaa--acchi-----e-----ea--------foqqoqqo--hlwgea-baa--accddba--bbbddddccdfffhhgfeeddccedd.........+nk+..xiioonhfefddegihhghigfdbahfeddfgikhfffdfgccffw........zohhgebbaaaghigfdbaaabdgx..............nheddefiklhghgebbaaaaaccdfhlhfefdcccaabjefbaaafoosso
(PID.TID 0000.0001) //     16 ....wiheddeccdfhfbabdfl............jdbad--bddefhhkqqlgfaakqz..v.+..+...............jdbaddddgifkccccdccd+.++..++ynvz.tkkq.............................++..u+....z.mu....++zyslllllkhggkmpy++...ihhi-----eigfdba----adu+................kdcaaa-acchi-----ea---feb-----a-acnoohfghknvmwnucacaaa-accdcb---bbbcdddddefffggfeeedcccccb..........qhu..hhhkojgffgeefghihhiieedbaccbbdcdfgghhiihcbeiw.........+ynjgebaaaahiieedbaaabcdy..............ygddeghiljgfjgebaaaa-aacccfikkhecccbbbaaabaadfklnqpp
(PID.TID 0000.0001) //     15 ......ylea--acfihebcbbes..........sfcbbnabbcffijnpnqneaaat..umrr+s.z..............sfcbbngfffigcaaabdbcac+.+++++zgmpx...y.............................+++++.ztsvd.mm....++..zslwz.yhhhhnz+++...rhgc----ablifeb--dfdfu+................+lkdca--abcgc----ab----ige----acaaalllkddfiy..yswxbdca--abcccb---bbbbddddeffflhfeeeecbbbbaa..........thk.xgghiligfghfefhhhhiiheedcdba-abbacbcdceffbbfw+..........++ujfbaaa-iiheedcdbbabdmz.............zfdeghikkifdujfbaaa----aacffiljgfffcca--adfikkiihhhf
(PID.TID 0000.0001) //     14 ........c---acgkhdcc--di..........ofddch--adgillkkkifcadcx.ymmqzqikvnnps..........ofddchohffikaaaaabaaa-aw+.+ysnggox++...............................+++++wmegt-.qrv..........yzzzzrjil+++....qhgd-----ajlifcacdlqx+++...............mligea---abgd-----a-----i---cccdeabkklldinqssy..xxvgea---abbbb---abaaddddeedkmeddefdbbbaaaa...........+y.uhghikihgfghefgihhhgeeeeedbc---b--aaaaabaabm..............+viba---hgeeeeeddbaadhw.............nedeghjjhfed+viba-------acdefinmlgiieb-chnnnmlmlgffc
(PID.TID 0000.0001) //     13 .......+b----cfkhec---afz.........nhfdff--cfiljigfjd--efdozy...+ximpnnuz..........nhfdffholghkaaaaaba-a---flkkuswyy++++y..............................+++yqddhp-+zr...........zzzzz++ry++......yd-------iljhcbbchz+......++.........+mmhffc----ad--------------aeecdeidfkkqnqlmqquukqqmfffc----aaba------acdddcbcineddgdbaaa----..............iihiijjhfefgefhjihiffgggffcdd--a------aa-bfz...............+qe---aiffgggffecaabelx...........zjecehijhfecc.+qe---aa---aedeegknmlgiigcdfhpokkimlfdb
(PID.TID 0000.0001) //     12 .......ec----chjhec---ag..........skiqdd-abgkhfcccea-bdei........t................skiqddeiiiifaaabae--a---dd--iu+++.+++s..............................++zwgfcfk-xq++..........+z+++++.+++....++.s-------gknhccbbhwwy.....+++........+njfeed-----s------------a-ceccdejhlllkqlkklssiccdeeeed-----aa-------abddcabcnfddegcaaa-----.............wjkkkjjjigeefffgjiiighiiihhhlf------------dk+................+ja---ighiiihhhdaabdffghtxx......mfccehjiffdb-..+ja------bffdddehfd--bedaacfhpnligiihd
(PID.TID 0000.0001) //     11 ......pdca--achlheba--ai..........nkn.fd-acghfbaaaa-achmy......................+..nkn.fdemijidaaaabi-------a--q+....++.z.......+++....................++vnbbbcleiis...........+++++..........+yyza----b-fkpkeeecflmqxy....++........+lhfeecc----za----b-----a--ccccddkhieekkossssfbbbbcdeecc------------aaadcbabcfhddccba-------............njjijhhihijhgggggjjjjijkkkkjzqd-----------irw.................++e---jijkkkkjjhcaacddeegpy.....xfdccdhjgfdda-..++e-----mhmijddda--------ahhfiokhedegg
(PID.TID 0000.0001) //     10 ......wfdb--achlhea---an.........uos..dc-adhfca-----bfiv.......................+.uos..dcemikkfdcaabi-------equ+................++sy...................+tq-fdbblcmk...........................zyvuq----ccjknqiheddefhiksz++++........zkhfdccb----uq----cc----a---dcfhkopqjeissrnpfbbcccdedccb------------aabdcaaaacfddbca-------a..........zslihhigghgijjihhhhkllkkkkkkjk+xfa-abb-----vvv...................+wa--kkkkkkjkkkedccdeeeeipz..zwhccbcdhgfddcam...+wa---mlmkijhc----------cjjffiheb-aad
(PID.TID 0000.0001) //      9 ......vgec---bfikca--cjl+.......+nnv.+cc-achfa------ch+..................w......+nnv.+ccffhkkiddaadha-----as++...........w.......njo+................+x-----bcgipvz++........................zxuuk------diqqojfefiiiijmy.++.........zkhfdbaa----uk------a---a----djmqrrnlllsoiddcccccdjfdbaa-------daa---acccaaaacccca--------ac.........+zjijhfgfggffhjkkkiillljihhghgi.+udaabbb----tei...................++qdejihhghgihighdeeffgghimnnjgecbbcdgfeccbas...++qdeqnghiljcaaaaidaa----beedeeca--bb
(PID.TID 0000.0001) //      8 .....zleca---afjfca--hdfz.......vkky.jceaaeifa--acbcei...................w......vkky.jceddefijffdddhb--a-afv.............w.......likn+.....++.....++znpa----bbdinn..ss.........................+yku------fnlmnjhinlksssw............qhfeca------yku--------------ejnpqqnninnritqdccchkmfca--------addc--aeffaaaaaaccb-a----a--bd+.......wihgghgeffffeefhijkjkljiigeeffef.++udbbaba---ven....................++xyigeeffefffhjhhikkklljklmhffeeeggfdcbaay.....++xywnfgllcbbabegkecba----ddddcaacdc
(PID.TID 0000.0001) //      7 ...+zohec--abcfkhecbchbdx.......qiht.faaabfida-aabchjk...................zz.....qiht.faaaabdgijgfededcdcb-f+.............zz.....nhhijz....tqq.....+ujgzgd---abcinn...pz.........................+zu------cegklkkknols..xuu..........zgfdba------+zu--------------edefqgqddsz+......+yuddba--------bcd---affaaadffabbb-----aa-bccmm+....tiggfggfeeeefeeefiiiijkiihheddddd.+.+ufb-----l.gx...........s.........++zhheddddddddjjllliijhfkmmkkjjhijgdcba--q......++zzkfilfccccoz..ulkcd---bccnfddddd
(PID.TID 0000.0001) //      6 ..+yomfddcaabefkifdchaadt......uqdeisc---afhfaa---bfgi....................zz..rnqdeisc----dfefgifffkklldc--v..............zz..rnjffggm...nlmn+....+sffzya--aabciup...pp.........................v.x-----eaaffdfhimrmp...yuu.++.......zudba------v.x---------a----fbbpqgzenx+........zdbcba--------adc---dda-adffe-aa--------aaacmllkhhfffffffgfeeeeeeeefhhhhijihhffddcbb....+ufc-baaqvhh..........dcfeeh......++hffddcbbbbdhhiihedddb-cfhhhjjjieca----+.......++zggqvifefhz......zobbaccfwuffeee
(PID.TID 0000.0001) //      5 ..+nhgffkghccfhkhffgdaackz....uoibcimlaababcgca----abe.....................ysstlibcimlaaacfbddfjjhijeehf-a-c...............ysstlgeeeeoz..ijklt+....lfjzzf---adfczs...su.........................qk.yi---fdaadcehllotq....yy+++zzs.....+zcba-----qk.yi-------gha-fjddqs+xkrz.........q-bccba-------cdd--aaa----df------------aaachikdccdeeeeeeedddedddddgghhhhjhhgffcbbaa.....+upjdcy.vohq.......+idcdfeeefwz....gffcbbaaaaddfegecca----dfeefhfgdb-----+.efwz....+hhn.vklox.........gdccfjwrigffh
(PID.TID 0000.0001) //      4 .+ujhgfllfhdffhkfffca-aady...llnabdopfcbfbbbcgfcaa-aae+.......................lcabdopfcbdgdbcdehlihgfddc--ms..................lcgfdddhq.+hiilnz++.+oquxyz--adgkf................................okn.zd--dcaabcfmtooyxz......+yuiiy....++gb------okn.zd---eciiiicfkeeqy.ysz..........n-aagb--------ddcca-a-----acbaa------bbaaaabfgdcbbdeddedcdcccdddcddffggghiggfffdbaa-........ywxy.lulo.lv...kcdgddffefffilyx+fffdbaa---acdcccba--abvfedeffdcca----b+.fffilyx+fffk.+xyyy.........mgeimvskjklll
(PID.TID 0000.0001) //      3 +vjggfcceeffffjlkjgaa---bfvheeln-aesphfdzmfeccdghfeegcbt......................aa-aesphfdhgabddeflihhgfecbaaayq+++++...........aafifccgnrzgghjry.+++sr+lq.--edfkk................................kqnz.vtpoxtkblwnnsp.vv......skhggt...+++t-------kqnz.vtpkllgdccfkkkkk..++..........+g---t---------bdaf---------edd-------adlaaaafecaaadcdddcbbbbcdddcccdffffghgffffdcaa-+..........vnhzy.tllqiedccdhggfggffiiggffffdcaa----abcaaaa-acxxmecdjmdbba----r+.gffiiggfcbdgy..yz..........xigqophijkkii
(PID.TID 0000.0001) //      2 qifeecbbccddefilihecbaacbaajfega-aesqhff..wifedfkhfegbbcivlqfoz..............jaa-aesqhffiea-cdeflkkljifeddcba---bry+.........jaacfihggokeeffgt..++++..hhlfdeddke...............................vkqn+.sghz..qcz+.zwxtsttz..ysrkhot++++++zig------kqn+.sghfcbcbbbdgfdek.++++.........+l---ig--------b--f---------egqqqaa----frb---caaaaaccdccbaaabbddddccdffffghfeeeeecba-+........+kkrhw.vqmlnieddcdehgggffgigedbeeeecba------baaaa-euwxqdbcdkud-----sy+.ffgigedbaaceiy.............zilrddefikkhh
(PID.TID 0000.0001) //      1 ebbbbaaaaaccdfhlhfefdcccaabjefbaaafonhgl..+wfeefikhgcbbccaaacgn.............icaaaafonhglid--adfgkkkklkhffddca-----s++++.....icaaccfihfoedddeedy..++...nnqwgfeeke...............................xsrxz.tedyy.z++..+zsjjllllljllpjos+++.+zhhi-----esrxz.tedcbbbbaaadddet.++++.........+l---hi-----e-----ea--------foqqoqqo--hlwgea----a-accddba--bbbddddccdfffhhgfeeddccba-.........+nk+..xiioonhfefddegihhghigfdbaeddccba-------aaaabgns.qcbcchyzqngll++..ghigfdbaaabdgx..............nheddefiklhg
(PID.TID 0000.0001) //      0 -aaaaaaa-aacccfikkhecccbbbaaabaadfkllilm....wiheddeccdfhfbabdfl............jdbaddfkllilmgebaadfijjiiikjhffdcba-----lllgn...jdbaddddgifkccccdccd+.++..++ynvz.tkkq.............................++..u+..zmd.mu....++zyslllllkhggkmpy++...ihhi-----e.u+..zmdfbd---a-aeef.xx+..........+++s--hi-----ea---feb-----a-acnoohfghknvmwnuca-----accdcb---bbbcdddddefffggfeeedcccbba..........qhu..hhhkojgffgeefghihhiieedbaedcccbba----aa--alrwwy.kcbccc+...++++...hiieedbaaabcdy..............ygddeghiljgf
(PID.TID 0000.0001) //     -1 --aaaaa----aacffiljgfffcca--adfikkiikimi......ylea--acfihebcbbes..........sfcbbnkkiikimiiheccfurkiffhijjigfecb-----l----..sfcbbngfffigcaaabdbcac+.+++++zgmpx...y.............................+++++.z+.wq.mm....++..zslwz.yhhhhnz+++...rhgc----ab++.z+.wqgbf-------dgzpoy+........+ys+yrbgc----ab----ige----acaaalllkddfiy..yswxb--aa-abcccb---bbbbddddeffflhfeeeecbbcbba..........thk.xgghiligfghfefhhhhiiheedcdecbbcbbaa----a--bdflm.yuibbcc.......+...iiheedcdbbabdmz.............zfdeghikkifd
(PID.TID 0000.0001) //     -2 --aaa-------acdefinmlgiieb-chnnnmlmlfklk........c---acgkhdcc--di..........ofddchmlmlfklklkhednwwsheeghhijjgfdca----g---a..ofddchohffikaaaaabaaa-aw+.+ysnggox++...............................+++++wmu++y.qrv..........yzzzzrjil+++....qhgd-----a++wmu++ywn--------fwvmgy+........+r-.+++gd-----a-----i---cccdeabkklldinqssy..xxv-abc--abbbb---abaaddddeedkmeddefdbbbdcba...........+y.uhghikihgfghefgihhhgeeeeeddbbbdcbaa-------ba-hv.susfbcc.......+...hgeeeeeddbaadhw.............nedeghjjhfed
(PID.TID 0000.0001) //     -3 a--a---aa---aedeegknmlgiigcdfhpokkimdkmk.......+b----cfkhec---afz.........nhfdffkkimdkmknoiedcfjvpddegghhhhgfdcbaa-n---a..nhfdffholghkaaaaaba-a---flkkuswyy++++y..............................+++yqd.++++zr...........zzzzz++ry++......yd-------+yqd.+++zvq--dafz.lqnggw+........+b-....d--------------aeecdeidfkkqnqlmqquukqqmfabcc---aaba------acdddcbcineddgdbaaaeedb..............iihiijjhfefgefhjihiffgggffbaaaeedbaa----------nysqssfcd...........iffgggffecaabelx...........zjecehijhfecc
(PID.TID 0000.0001) // =======================================================
(PID.TID 0000.0001) // END OF FIELD                                          =
(PID.TID 0000.0001) // =======================================================
(PID.TID 0000.0001) 
(PID.TID 0000.0001) // =======================================================
(PID.TID 0000.0001) // Field Model Ro_surf (ini_masks_etc) at iteration          1
(PID.TID 0000.0001) // CMIN =         -7.105427357601002E-15
(PID.TID 0000.0001) // CMAX =         -7.105427357601002E-15
(PID.TID 0000.0001) // CINT =          0.000000000000000E+00
(PID.TID 0000.0001) // SYMBOLS (CMIN->CMAX): -abcdefghijklmnopqrstuvwxyz+
(PID.TID 0000.0001) //                  0.0: .
(PID.TID 0000.0001) // RANGE I (Lo:Hi:Step):(  -3: 388:   1)
(PID.TID 0000.0001) // RANGE J (Lo:Hi:Step):(  20:  -3:  -1)
(PID.TID 0000.0001) // RANGE K (Lo:Hi:Step):(   1:   1:   1)
(PID.TID 0000.0001) // =======================================================
(PID.TID 0000.0001) // =======================================================
(PID.TID 0000.0001) // END OF FIELD                                          =
(PID.TID 0000.0001) // =======================================================
(PID.TID 0000.0001) 
(PID.TID 0000.0001) // =======================================================
(PID.TID 0000.0001) // Field hFacC at iteration          1
(PID.TID 0000.0001) // CMIN =          1.000000000000000E+00
(PID.TID 0000.0001) // CMAX =          1.000000000000000E+00
(PID.TID 0000.0001) // CINT =          0.000000000000000E+00
(PID.TID 0000.0001) // SYMBOLS (CMIN->CMAX): -abcdefghijklmnopqrstuvwxyz+
(PID.TID 0000.0001) //                  0.0: .
(PID.TID 0000.0001) // RANGE I (Lo:Hi:Step):(  -3: 388:   1)
(PID.TID 0000.0001) // RANGE J (Lo:Hi:Step):(  20:  -3:  -1)
(PID.TID 0000.0001) // RANGE K (Lo:Hi:Step):(   1:   1:   1)
(PID.TID 0000.0001) // =======================================================
(PID.TID 0000.0001) // =======================================================
(PID.TID 0000.0001) // END OF FIELD                                          =
(PID.TID 0000.0001) // =======================================================
(PID.TID 0000.0001) 
(PID.TID 0000.0001) // =======================================================
(PID.TID 0000.0001) // Field hFacW at iteration          1
(PID.TID 0000.0001) // CMIN =          1.000000000000000E+00
(PID.TID 0000.0001) // CMAX =          1.000000000000000E+00
(PID.TID 0000.0001) // CINT =          0.000000000000000E+00
(PID.TID 0000.0001) // SYMBOLS (CMIN->CMAX): -abcdefghijklmnopqrstuvwxyz+
(PID.TID 0000.0001) //                  0.0: .
(PID.TID 0000.0001) // RANGE I (Lo:Hi:Step):(  -3: 388:   1)
(PID.TID 0000.0001) // RANGE J (Lo:Hi:Step):(  20:  -3:  -1)
(PID.TID 0000.0001) // RANGE K (Lo:Hi:Step):(   1:   1:   1)
(PID.TID 0000.0001) // =======================================================
(PID.TID 0000.0001) // =======================================================
(PID.TID 0000.0001) // END OF FIELD                                          =
(PID.TID 0000.0001) // =======================================================
(PID.TID 0000.0001) 
(PID.TID 0000.0001) // =======================================================
(PID.TID 0000.0001) // Field hFacS at iteration          1
(PID.TID 0000.0001) // CMIN =          1.000000000000000E+00
(PID.TID 0000.0001) // CMAX =          1.000000000000000E+00
(PID.TID 0000.0001) // CINT =          0.000000000000000E+00
(PID.TID 0000.0001) // SYMBOLS (CMIN->CMAX): -abcdefghijklmnopqrstuvwxyz+
(PID.TID 0000.0001) //                  0.0: .
(PID.TID 0000.0001) // RANGE I (Lo:Hi:Step):(  -3: 388:   1)
(PID.TID 0000.0001) // RANGE J (Lo:Hi:Step):(  20:  -3:  -1)
(PID.TID 0000.0001) // RANGE K (Lo:Hi:Step):(   1:   1:   1)
(PID.TID 0000.0001) // =======================================================
(PID.TID 0000.0001) // =======================================================
(PID.TID 0000.0001) // END OF FIELD                                          =
(PID.TID 0000.0001) // =======================================================
(PID.TID 0000.0001) 
(PID.TID 0000.0001) 
(PID.TID 0000.0001) // ===================================
(PID.TID 0000.0001) // GAD parameters :
(PID.TID 0000.0001) // ===================================
(PID.TID 0000.0001) tempAdvScheme =   /* Temp. Horiz.Advection scheme selector */
(PID.TID 0000.0001)                       2
(PID.TID 0000.0001)     ;
(PID.TID 0000.0001) tempVertAdvScheme =   /* Temp. Vert. Advection scheme selector */
(PID.TID 0000.0001)                       2
(PID.TID 0000.0001)     ;
(PID.TID 0000.0001) tempMultiDimAdvec =   /* use Muti-Dim Advec method for Temp */
(PID.TID 0000.0001)                   F
(PID.TID 0000.0001)     ;
(PID.TID 0000.0001) tempSOM_Advection = /* use 2nd Order Moment Advection for Temp */
(PID.TID 0000.0001)                   F
(PID.TID 0000.0001)     ;
(PID.TID 0000.0001) AdamsBashforthGt = /* apply Adams-Bashforth extrapolation on Gt */
(PID.TID 0000.0001)                   T
(PID.TID 0000.0001)     ;
(PID.TID 0000.0001) AdamsBashforth_T = /* apply Adams-Bashforth extrapolation on Temp */
(PID.TID 0000.0001)                   F
(PID.TID 0000.0001)     ;
(PID.TID 0000.0001) saltAdvScheme =   /* Salt. Horiz.advection scheme selector */
(PID.TID 0000.0001)                       2
(PID.TID 0000.0001)     ;
(PID.TID 0000.0001) saltVertAdvScheme =   /* Salt. Vert. Advection scheme selector */
(PID.TID 0000.0001)                       2
(PID.TID 0000.0001)     ;
(PID.TID 0000.0001) saltMultiDimAdvec =   /* use Muti-Dim Advec method for Salt */
(PID.TID 0000.0001)                   F
(PID.TID 0000.0001)     ;
(PID.TID 0000.0001) saltSOM_Advection = /* use 2nd Order Moment Advection for Salt */
(PID.TID 0000.0001)                   F
(PID.TID 0000.0001)     ;
(PID.TID 0000.0001) AdamsBashforthGs = /* apply Adams-Bashforth extrapolation on Gs */
(PID.TID 0000.0001)                   T
(PID.TID 0000.0001)     ;
(PID.TID 0000.0001) AdamsBashforth_S = /* apply Adams-Bashforth extrapolation on Salt */
(PID.TID 0000.0001)                   F
(PID.TID 0000.0001)     ;
(PID.TID 0000.0001) // ===================================
(PID.TID 0000.0001) %MON fCori_max                    =   1.4574827780704E-04
(PID.TID 0000.0001) %MON fCori_min                    =  -1.4574827780704E-04
(PID.TID 0000.0001) %MON fCori_mean                   =   3.3881317890172E-21
(PID.TID 0000.0001) %MON fCori_sd                     =   8.4202189509968E-05
(PID.TID 0000.0001) %MON fCoriG_max                   =   1.4584247033981E-04
(PID.TID 0000.0001) %MON fCoriG_min                   =  -1.4584247033981E-04
(PID.TID 0000.0001) %MON fCoriG_mean                  =  -1.6940658945086E-20
(PID.TID 0000.0001) %MON fCoriG_sd                    =   8.4202189509968E-05
(PID.TID 0000.0001) %MON fCoriCos_max                 =   1.4580166994612E-04
(PID.TID 0000.0001) %MON fCoriCos_min                 =   5.2407700865903E-06
(PID.TID 0000.0001) %MON fCoriCos_mean                =   1.1514045869113E-04
(PID.TID 0000.0001) %MON fCoriCos_sd                  =   3.0375849106513E-05
(PID.TID 0000.0001) INI_CG2D: CG2D normalisation factor =  1.9156564154949553E-04
(PID.TID 0000.0001) INI_CG2D: cg2dTolerance = 1.936338786725099E-07 (Area=3.6388673751E+14)
(PID.TID 0000.0001) 
(PID.TID 0000.0001) INI_CG3D: CG3D normalisation factor =  5.7255949921703569E-10
(PID.TID 0000.0001) 
(PID.TID 0000.0001) // =======================================================
(PID.TID 0000.0001) // Model configuration
(PID.TID 0000.0001) // =======================================================
(PID.TID 0000.0001) //
(PID.TID 0000.0001) // "Physical" paramters ( PARM01 in namelist )
(PID.TID 0000.0001) //
(PID.TID 0000.0001) buoyancyRelation = /* Type of relation to get Buoyancy */
(PID.TID 0000.0001)               'OCEANIC'
(PID.TID 0000.0001)     ;
(PID.TID 0000.0001) fluidIsAir  =  /* fluid major constituent is Air */
(PID.TID 0000.0001)                   F
(PID.TID 0000.0001)     ;
(PID.TID 0000.0001) fluidIsWater=  /* fluid major constituent is Water */
(PID.TID 0000.0001)                   T
(PID.TID 0000.0001)     ;
(PID.TID 0000.0001) usingPCoords =  /* use p (or p*) vertical coordinate */
(PID.TID 0000.0001)                   F
(PID.TID 0000.0001)     ;
(PID.TID 0000.0001) usingZCoords =  /* use z (or z*) vertical coordinate */
(PID.TID 0000.0001)                   T
(PID.TID 0000.0001)     ;
(PID.TID 0000.0001) tRef =   /* Reference temperature profile ( oC or K ) */
(PID.TID 0000.0001)    15 @  2.000000000000000E+01              /* K =  1: 15 */
(PID.TID 0000.0001)     ;
(PID.TID 0000.0001) sRef =   /* Reference salinity profile ( psu ) */
(PID.TID 0000.0001)    15 @  3.500000000000000E+01              /* K =  1: 15 */
(PID.TID 0000.0001)     ;
(PID.TID 0000.0001) viscAh =   /* Lateral eddy viscosity ( m^2/s ) */
(PID.TID 0000.0001)                 1.000000000000000E+05
(PID.TID 0000.0001)     ;
(PID.TID 0000.0001) viscAhMax =   /* Maximum lateral eddy viscosity ( m^2/s ) */
(PID.TID 0000.0001)                 1.000000000000000E+21
(PID.TID 0000.0001)     ;
(PID.TID 0000.0001) viscAhGrid =   /* Grid dependent lateral eddy viscosity ( non-dim. ) */
(PID.TID 0000.0001)                 0.000000000000000E+00
(PID.TID 0000.0001)     ;
(PID.TID 0000.0001) useFullLeith =   /* Use Full Form of Leith Viscosity on/off flag*/
(PID.TID 0000.0001)                   F
(PID.TID 0000.0001)     ;
(PID.TID 0000.0001) useStrainTensionVisc =   /* Use StrainTension Form of Viscous Operator on/off flag*/
(PID.TID 0000.0001)                   F
(PID.TID 0000.0001)     ;
(PID.TID 0000.0001) useAreaViscLength =   /* Use area for visc length instead of geom. mean*/
(PID.TID 0000.0001)                   F
(PID.TID 0000.0001)     ;
(PID.TID 0000.0001) viscC2leith = /* Leith harmonic visc. factor (on grad(vort),non-dim.) */
(PID.TID 0000.0001)                 0.000000000000000E+00
(PID.TID 0000.0001)     ;
(PID.TID 0000.0001) viscC2leithD = /* Leith harmonic viscosity factor (on grad(div),non-dim.) */
(PID.TID 0000.0001)                 0.000000000000000E+00
(PID.TID 0000.0001)     ;
(PID.TID 0000.0001) viscC2smag =   /* Smagorinsky harmonic viscosity factor (non-dim.) */
(PID.TID 0000.0001)                 0.000000000000000E+00
(PID.TID 0000.0001)     ;
(PID.TID 0000.0001) viscA4 =   /* Lateral biharmonic viscosity ( m^4/s ) */
(PID.TID 0000.0001)                 3.000000000000000E+14
(PID.TID 0000.0001)     ;
(PID.TID 0000.0001) viscA4Max =   /* Maximum biharmonic viscosity ( m^2/s ) */
(PID.TID 0000.0001)                 1.000000000000000E+21
(PID.TID 0000.0001)     ;
(PID.TID 0000.0001) viscA4Grid =   /* Grid dependent biharmonic viscosity ( non-dim. ) */
(PID.TID 0000.0001)                 0.000000000000000E+00
(PID.TID 0000.0001)     ;
(PID.TID 0000.0001) viscC4leith = /* Leith biharm viscosity factor (on grad(vort), non-dim.) */
(PID.TID 0000.0001)                 0.000000000000000E+00
(PID.TID 0000.0001)     ;
(PID.TID 0000.0001) viscC4leithD = /* Leith biharm viscosity factor (on grad(div), non-dim.) */
(PID.TID 0000.0001)                 0.000000000000000E+00
(PID.TID 0000.0001)     ;
(PID.TID 0000.0001) viscC4Smag = /* Smagorinsky biharm viscosity factor (non-dim) */
(PID.TID 0000.0001)                 0.000000000000000E+00
(PID.TID 0000.0001)     ;
(PID.TID 0000.0001) no_slip_sides =  /* Viscous BCs: No-slip sides */
(PID.TID 0000.0001)                   T
(PID.TID 0000.0001)     ;
(PID.TID 0000.0001) sideDragFactor = /* side-drag scaling factor (non-dim) */
(PID.TID 0000.0001)                 2.000000000000000E+00
(PID.TID 0000.0001)     ;
(PID.TID 0000.0001) viscAr =   /* Vertical eddy viscosity ( m^2/s ) */
(PID.TID 0000.0001)                 1.000000000000000E-03
(PID.TID 0000.0001)     ;
(PID.TID 0000.0001) no_slip_bottom =  /* Viscous BCs: No-slip bottom */
(PID.TID 0000.0001)                   T
(PID.TID 0000.0001)     ;
(PID.TID 0000.0001) bottomDragLinear = /* linear bottom-drag coefficient ( m/s ) */
(PID.TID 0000.0001)                 0.000000000000000E+00
(PID.TID 0000.0001)     ;
(PID.TID 0000.0001) bottomDragQuadratic = /* quadratic bottom-drag coefficient (-) */
(PID.TID 0000.0001)                 0.000000000000000E+00
(PID.TID 0000.0001)     ;
(PID.TID 0000.0001) diffKhT =   /* Laplacian diffusion of heat laterally ( m^2/s ) */
(PID.TID 0000.0001)                 0.000000000000000E+00
(PID.TID 0000.0001)     ;
(PID.TID 0000.0001) diffK4T =   /* Biharmonic diffusion of heat laterally ( m^4/s ) */
(PID.TID 0000.0001)                 0.000000000000000E+00
(PID.TID 0000.0001)     ;
(PID.TID 0000.0001) diffKhS =   /* Laplacian diffusion of salt laterally ( m^2/s ) */
(PID.TID 0000.0001)                 0.000000000000000E+00
(PID.TID 0000.0001)     ;
(PID.TID 0000.0001) diffK4S =   /* Biharmonic diffusion of salt laterally ( m^4/s ) */
(PID.TID 0000.0001)                 0.000000000000000E+00
(PID.TID 0000.0001)     ;
(PID.TID 0000.0001) diffKrNrT = /* vertical profile of vertical diffusion of Temp ( m^2/s )*/
(PID.TID 0000.0001)    15 @  3.000000000000000E-05              /* K =  1: 15 */
(PID.TID 0000.0001)     ;
(PID.TID 0000.0001) diffKrNrS = /* vertical profile of vertical diffusion of Salt ( m^2/s )*/
(PID.TID 0000.0001)    15 @  3.000000000000000E-05              /* K =  1: 15 */
(PID.TID 0000.0001)     ;
(PID.TID 0000.0001) diffKrBL79surf = /* Surface diffusion for Bryan and Lewis 79 ( m^2/s ) */
(PID.TID 0000.0001)                 0.000000000000000E+00
(PID.TID 0000.0001)     ;
(PID.TID 0000.0001) diffKrBL79deep = /* Deep diffusion for Bryan and Lewis 1979 ( m^2/s ) */
(PID.TID 0000.0001)                 0.000000000000000E+00
(PID.TID 0000.0001)     ;
(PID.TID 0000.0001) diffKrBL79scl = /* Depth scale for Bryan and Lewis 1979 ( m ) */
(PID.TID 0000.0001)                 2.000000000000000E+02
(PID.TID 0000.0001)     ;
(PID.TID 0000.0001) diffKrBL79Ho = /* Turning depth for Bryan and Lewis 1979 ( m ) */
(PID.TID 0000.0001)                -2.000000000000000E+03
(PID.TID 0000.0001)     ;
(PID.TID 0000.0001) ivdc_kappa = /* Implicit Vertical Diffusivity for Convection ( m^2/s ) */
(PID.TID 0000.0001)                 1.000000000000000E+01
(PID.TID 0000.0001)     ;
(PID.TID 0000.0001) hMixCriteria=  /* Criteria for mixed-layer diagnostic */
(PID.TID 0000.0001)                -8.000000000000000E-01
(PID.TID 0000.0001)     ;
(PID.TID 0000.0001) dRhoSmall=  /* Parameter for mixed-layer diagnostic */
(PID.TID 0000.0001)                 1.000000000000000E-06
(PID.TID 0000.0001)     ;
(PID.TID 0000.0001) hMixSmooth=  /* Smoothing parameter for mixed-layer diagnostic */
(PID.TID 0000.0001)                 0.000000000000000E+00
(PID.TID 0000.0001)     ;
(PID.TID 0000.0001) eosType =  /* Type of Equation of State */
(PID.TID 0000.0001)               'JMD95Z'
(PID.TID 0000.0001)     ;
(PID.TID 0000.0001) tAlpha =   /* Linear EOS thermal expansion coefficient ( 1/oC ) */
(PID.TID 0000.0001)                 1.234567000000000E+05
(PID.TID 0000.0001)     ;
(PID.TID 0000.0001) sBeta =   /* Linear EOS haline contraction coefficient ( 1/psu ) */
(PID.TID 0000.0001)                 1.234567000000000E+05
(PID.TID 0000.0001)     ;
(PID.TID 0000.0001) rhonil =   /* Reference density ( kg/m^3 ) */
(PID.TID 0000.0001)                 1.035000000000000E+03
(PID.TID 0000.0001)     ;
(PID.TID 0000.0001) rhoConst =   /* Reference density ( kg/m^3 ) */
(PID.TID 0000.0001)                 1.035000000000000E+03
(PID.TID 0000.0001)     ;
(PID.TID 0000.0001) rhoFacC = /* normalized Reference density @ cell-Center (-) */
(PID.TID 0000.0001)    15 @  1.000000000000000E+00              /* K =  1: 15 */
(PID.TID 0000.0001)     ;
(PID.TID 0000.0001) rhoFacF = /* normalized Reference density @ W-Interface (-) */
(PID.TID 0000.0001)    16 @  1.000000000000000E+00              /* K =  1: 16 */
(PID.TID 0000.0001)     ;
(PID.TID 0000.0001) rhoConstFresh =   /* Reference density ( kg/m^3 ) */
(PID.TID 0000.0001)                 1.000000000000000E+03
(PID.TID 0000.0001)     ;
(PID.TID 0000.0001) gravity =   /* Gravitational acceleration ( m/s^2 ) */
(PID.TID 0000.0001)                 9.810000000000000E+00
(PID.TID 0000.0001)     ;
(PID.TID 0000.0001) gBaro =   /* Barotropic gravity ( m/s^2 ) */
(PID.TID 0000.0001)                 9.810000000000000E+00
(PID.TID 0000.0001)     ;
(PID.TID 0000.0001) rotationPeriod =   /* Rotation Period ( s ) */
(PID.TID 0000.0001)                 8.616400000000000E+04
(PID.TID 0000.0001)     ;
(PID.TID 0000.0001) omega =   /* Angular velocity ( rad/s ) */
(PID.TID 0000.0001)                 7.292123516990375E-05
(PID.TID 0000.0001)     ;
(PID.TID 0000.0001) f0 =   /* Reference coriolis parameter ( 1/s ) */
(PID.TID 0000.0001)                 1.000000000000000E-04
(PID.TID 0000.0001)     ;
(PID.TID 0000.0001) beta =   /* Beta ( 1/(m.s) ) */
(PID.TID 0000.0001)                 9.999999999999999E-12
(PID.TID 0000.0001)     ;
(PID.TID 0000.0001) freeSurfFac =   /* Implicit free surface factor */
(PID.TID 0000.0001)                 1.000000000000000E+00
(PID.TID 0000.0001)     ;
(PID.TID 0000.0001) implicitFreeSurface =   /* Implicit free surface on/off flag */
(PID.TID 0000.0001)                   T
(PID.TID 0000.0001)     ;
(PID.TID 0000.0001) rigidLid =   /* Rigid lid on/off flag */
(PID.TID 0000.0001)                   F
(PID.TID 0000.0001)     ;
(PID.TID 0000.0001) implicSurfPress =   /* Surface Pressure implicit factor (0-1)*/
(PID.TID 0000.0001)                 1.000000000000000E+00
(PID.TID 0000.0001)     ;
(PID.TID 0000.0001) implicDiv2Dflow =   /* Barot. Flow Div. implicit factor (0-1)*/
(PID.TID 0000.0001)                 1.000000000000000E+00
(PID.TID 0000.0001)     ;
(PID.TID 0000.0001) exactConserv =   /* Exact Volume Conservation on/off flag*/
(PID.TID 0000.0001)                   T
(PID.TID 0000.0001)     ;
(PID.TID 0000.0001) linFSConserveTr =   /* Tracer correction for Lin Free Surface on/off flag*/
(PID.TID 0000.0001)                   F
(PID.TID 0000.0001)     ;
(PID.TID 0000.0001) uniformLin_PhiSurf =   /* use uniform Bo_surf on/off flag*/
(PID.TID 0000.0001)                   T
(PID.TID 0000.0001)     ;
(PID.TID 0000.0001) nonlinFreeSurf =   /* Non-linear Free Surf. options (-1,0,1,2,3)*/
(PID.TID 0000.0001)                       0
(PID.TID 0000.0001)     ;
(PID.TID 0000.0001)      -1,0= Off ; 1,2,3= On, 2=+rescale gU,gV, 3=+update cg2d solv.
(PID.TID 0000.0001) hFacInf =   /* lower threshold for hFac (nonlinFreeSurf only)*/
(PID.TID 0000.0001)                 2.000000000000000E-01
(PID.TID 0000.0001)     ;
(PID.TID 0000.0001) hFacSup =   /* upper threshold for hFac (nonlinFreeSurf only)*/
(PID.TID 0000.0001)                 2.000000000000000E+00
(PID.TID 0000.0001)     ;
(PID.TID 0000.0001) select_rStar = /* r* Vertical coord. options (=0 r coord.; > 0 uses r*) */
(PID.TID 0000.0001)                       0
(PID.TID 0000.0001)     ;
(PID.TID 0000.0001) selectAddFluid = /* option for mass source/sink of fluid (=0: off) */
(PID.TID 0000.0001)                       0
(PID.TID 0000.0001)     ;
(PID.TID 0000.0001) useRealFreshWaterFlux = /* Real Fresh Water Flux on/off flag*/
(PID.TID 0000.0001)                   T
(PID.TID 0000.0001)     ;
(PID.TID 0000.0001) temp_EvPrRn = /* Temp. of Evap/Prec/R (UNSET=use local T)(oC)*/
(PID.TID 0000.0001)                 1.234567000000000E+05
(PID.TID 0000.0001)     ;
(PID.TID 0000.0001) salt_EvPrRn = /* Salin. of Evap/Prec/R (UNSET=use local S)(ppt)*/
(PID.TID 0000.0001)                 0.000000000000000E+00
(PID.TID 0000.0001)     ;
(PID.TID 0000.0001) convertFW2Salt = /* convert F.W. Flux to Salt Flux (-1=use local S)(ppt)*/
(PID.TID 0000.0001)                -1.000000000000000E+00
(PID.TID 0000.0001)     ;
(PID.TID 0000.0001) use3Dsolver = /* use 3-D pressure solver on/off flag */
(PID.TID 0000.0001)                   T
(PID.TID 0000.0001)     ;
(PID.TID 0000.0001) nonHydrostatic =  /* Non-Hydrostatic on/off flag */
(PID.TID 0000.0001)                   T
(PID.TID 0000.0001)     ;
(PID.TID 0000.0001) nh_Am2 = /* Non-Hydrostatic terms scaling factor */
(PID.TID 0000.0001)                 1.000000000000000E+00
(PID.TID 0000.0001)     ;
(PID.TID 0000.0001) quasiHydrostatic = /* Quasi-Hydrostatic on/off flag */
(PID.TID 0000.0001)                   F
(PID.TID 0000.0001)     ;
(PID.TID 0000.0001) momStepping =  /* Momentum equation on/off flag */
(PID.TID 0000.0001)                   T
(PID.TID 0000.0001)     ;
(PID.TID 0000.0001) vectorInvariantMomentum= /* Vector-Invariant Momentum on/off */
(PID.TID 0000.0001)                   T
(PID.TID 0000.0001)     ;
(PID.TID 0000.0001) momAdvection =  /* Momentum advection on/off flag */
(PID.TID 0000.0001)                   T
(PID.TID 0000.0001)     ;
(PID.TID 0000.0001) momViscosity =  /* Momentum viscosity on/off flag */
(PID.TID 0000.0001)                   T
(PID.TID 0000.0001)     ;
(PID.TID 0000.0001) momImplVertAdv =/* Momentum implicit vert. advection on/off*/
(PID.TID 0000.0001)                   F
(PID.TID 0000.0001)     ;
(PID.TID 0000.0001) implicitViscosity = /* Implicit viscosity on/off flag */
(PID.TID 0000.0001)                   F
(PID.TID 0000.0001)     ;
(PID.TID 0000.0001) metricTerms =  /* metric-Terms on/off flag */
(PID.TID 0000.0001)                   F
(PID.TID 0000.0001)     ;
(PID.TID 0000.0001) useNHMTerms = /* Non-Hydrostatic Metric-Terms on/off */
(PID.TID 0000.0001)                   T
(PID.TID 0000.0001)     ;
(PID.TID 0000.0001) useConstantF =  /* use Constant f0 Coriolis flag */
(PID.TID 0000.0001)                   F
(PID.TID 0000.0001)     ;
(PID.TID 0000.0001) useBetaPlaneF = /* use Beta-Plane Coriolis flag */
(PID.TID 0000.0001)                   F
(PID.TID 0000.0001)     ;
(PID.TID 0000.0001) useSphereF  =   /* use Spherical Coriolis flag */
(PID.TID 0000.0001)                   T
(PID.TID 0000.0001)     ;
(PID.TID 0000.0001) use3dCoriolis = /* 3-D Coriolis on/off flag */
(PID.TID 0000.0001)                   T
(PID.TID 0000.0001)     ;
(PID.TID 0000.0001) useCoriolis =  /* Coriolis on/off flag */
(PID.TID 0000.0001)                   T
(PID.TID 0000.0001)     ;
(PID.TID 0000.0001) useCDscheme =  /* CD scheme on/off flag */
(PID.TID 0000.0001)                   F
(PID.TID 0000.0001)     ;
(PID.TID 0000.0001) useJamartWetPoints= /* Coriolis WetPoints method flag */
(PID.TID 0000.0001)                   F
(PID.TID 0000.0001)     ;
(PID.TID 0000.0001) useJamartMomAdv= /* V.I. Non-linear terms Jamart flag */
(PID.TID 0000.0001)                   F
(PID.TID 0000.0001)     ;
(PID.TID 0000.0001) useAbsVorticity= /* Work with f+zeta in Coriolis */
(PID.TID 0000.0001)                   F
(PID.TID 0000.0001)     ;
(PID.TID 0000.0001) selectVortScheme= /* Scheme selector for Vorticity-Term */
(PID.TID 0000.0001)                       1
(PID.TID 0000.0001)    = 0 : enstrophy (Shallow-Water Eq.) conserving scheme by Sadourny, JAS 75
(PID.TID 0000.0001)    = 1 : same as 0 with modified hFac
(PID.TID 0000.0001)    = 2 : energy conserving scheme (used by Sadourny in JAS 75 paper)
(PID.TID 0000.0001)    = 3 : energy (general) and enstrophy (2D, nonDiv.) conserving scheme
(PID.TID 0000.0001)          from Sadourny (Burridge & Haseler, ECMWF Rep.4, 1977)
(PID.TID 0000.0001)     ;
(PID.TID 0000.0001) upwindVorticity= /* Upwind bias vorticity flag */
(PID.TID 0000.0001)                   F
(PID.TID 0000.0001)     ;
(PID.TID 0000.0001) highOrderVorticity= /* High order interp. of vort. flag */
(PID.TID 0000.0001)                   F
(PID.TID 0000.0001)     ;
(PID.TID 0000.0001) upwindShear= /* Upwind vertical Shear advection flag */
(PID.TID 0000.0001)                   F
(PID.TID 0000.0001)     ;
(PID.TID 0000.0001) selectKEscheme= /* Kinetic Energy scheme selector */
(PID.TID 0000.0001)                       0
(PID.TID 0000.0001)     ;
(PID.TID 0000.0001) momForcing =  /* Momentum forcing on/off flag */
(PID.TID 0000.0001)                   T
(PID.TID 0000.0001)     ;
(PID.TID 0000.0001) momPressureForcing =  /* Momentum pressure term on/off flag */
(PID.TID 0000.0001)                   T
(PID.TID 0000.0001)     ;
(PID.TID 0000.0001) implicitIntGravWave= /* Implicit Internal Gravity Wave flag */
(PID.TID 0000.0001)                   F
(PID.TID 0000.0001)     ;
(PID.TID 0000.0001) staggerTimeStep =   /* Stagger time stepping on/off flag */
(PID.TID 0000.0001)                   T
(PID.TID 0000.0001)     ;
(PID.TID 0000.0001) multiDimAdvection =   /* enable/disable Multi-Dim Advection */
(PID.TID 0000.0001)                   T
(PID.TID 0000.0001)     ;
(PID.TID 0000.0001) useMultiDimAdvec =   /* Multi-Dim Advection is/is-not used */
(PID.TID 0000.0001)                   F
(PID.TID 0000.0001)     ;
(PID.TID 0000.0001) implicitDiffusion =/* Implicit Diffusion on/off flag */
(PID.TID 0000.0001)                   T
(PID.TID 0000.0001)     ;
(PID.TID 0000.0001) tempStepping =  /* Temperature equation on/off flag */
(PID.TID 0000.0001)                   T
(PID.TID 0000.0001)     ;
(PID.TID 0000.0001) tempAdvection=  /* Temperature advection on/off flag */
(PID.TID 0000.0001)                   T
(PID.TID 0000.0001)     ;
(PID.TID 0000.0001) tempImplVertAdv =/* Temp. implicit vert. advection on/off */
(PID.TID 0000.0001)                   F
(PID.TID 0000.0001)     ;
(PID.TID 0000.0001) tempForcing  =  /* Temperature forcing on/off flag */
(PID.TID 0000.0001)                   T
(PID.TID 0000.0001)     ;
(PID.TID 0000.0001) tempIsActiveTr = /* Temp. is a dynamically Active Tracer */
(PID.TID 0000.0001)                   T
(PID.TID 0000.0001)     ;
(PID.TID 0000.0001) saltStepping =  /* Salinity equation on/off flag */
(PID.TID 0000.0001)                   T
(PID.TID 0000.0001)     ;
(PID.TID 0000.0001) saltAdvection=  /* Salinity advection on/off flag */
(PID.TID 0000.0001)                   T
(PID.TID 0000.0001)     ;
(PID.TID 0000.0001) saltImplVertAdv =/* Sali. implicit vert. advection on/off */
(PID.TID 0000.0001)                   F
(PID.TID 0000.0001)     ;
(PID.TID 0000.0001) saltForcing  =  /* Salinity forcing on/off flag */
(PID.TID 0000.0001)                   T
(PID.TID 0000.0001)     ;
(PID.TID 0000.0001) saltIsActiveTr = /* Salt  is a dynamically Active Tracer */
(PID.TID 0000.0001)                   T
(PID.TID 0000.0001)     ;
(PID.TID 0000.0001)  readBinaryPrec = /* Precision used for reading binary files */
(PID.TID 0000.0001)                      64
(PID.TID 0000.0001)     ;
(PID.TID 0000.0001) writeBinaryPrec = /* Precision used for writing binary files */
(PID.TID 0000.0001)                      32
(PID.TID 0000.0001)     ;
(PID.TID 0000.0001)  globalFiles = /* write "global" (=not per tile) files */
(PID.TID 0000.0001)                   F
(PID.TID 0000.0001)     ;
(PID.TID 0000.0001)  useSingleCpuIO = /* only master MPI process does I/O */
(PID.TID 0000.0001)                   T
(PID.TID 0000.0001)     ;
(PID.TID 0000.0001)  debugMode  =  /* Debug Mode on/off flag */
(PID.TID 0000.0001)                   F
(PID.TID 0000.0001)     ;
(PID.TID 0000.0001)    debLevA  =  /* 1rst level of debugging */
(PID.TID 0000.0001)                       1
(PID.TID 0000.0001)     ;
(PID.TID 0000.0001)    debLevB  =  /* 2nd  level of debugging */
(PID.TID 0000.0001)                       2
(PID.TID 0000.0001)     ;
(PID.TID 0000.0001)  debugLevel =  /* select debugging level */
(PID.TID 0000.0001)                       1
(PID.TID 0000.0001)     ;
(PID.TID 0000.0001) //
(PID.TID 0000.0001) // Elliptic solver(s) paramters ( PARM02 in namelist )
(PID.TID 0000.0001) //
(PID.TID 0000.0001) cg2dMaxIters =   /* Upper limit on 2d con. grad iterations  */
(PID.TID 0000.0001)                     200
(PID.TID 0000.0001)     ;
(PID.TID 0000.0001) cg2dChkResFreq =   /* 2d con. grad convergence test frequency */
(PID.TID 0000.0001)                       1
(PID.TID 0000.0001)     ;
(PID.TID 0000.0001) cg2dTargetResidual =   /* 2d con. grad target residual  */
(PID.TID 0000.0001)                 1.000000000000000E-07
(PID.TID 0000.0001)     ;
(PID.TID 0000.0001) cg2dTargetResWunit =   /* CG2d target residual [W units] */
(PID.TID 0000.0001)                 1.000000000000000E-14
(PID.TID 0000.0001)     ;
(PID.TID 0000.0001) cg2dPreCondFreq =   /* Freq. for updating cg2d preconditioner */
(PID.TID 0000.0001)                       1
(PID.TID 0000.0001)     ;
(PID.TID 0000.0001) //
(PID.TID 0000.0001) // Time stepping paramters ( PARM03 in namelist )
(PID.TID 0000.0001) //
(PID.TID 0000.0001) deltaTmom =   /* Momentum equation timestep ( s ) */
(PID.TID 0000.0001)                 3.600000000000000E+03
(PID.TID 0000.0001)     ;
(PID.TID 0000.0001) deltaTfreesurf = /* FreeSurface equation timestep ( s ) */
(PID.TID 0000.0001)                 3.600000000000000E+03
(PID.TID 0000.0001)     ;
(PID.TID 0000.0001) dTtracerLev =  /* Tracer equation timestep ( s ) */
(PID.TID 0000.0001)    15 @  3.600000000000000E+03              /* K =  1: 15 */
(PID.TID 0000.0001)     ;
(PID.TID 0000.0001) deltaTClock  =   /* Model clock timestep ( s ) */
(PID.TID 0000.0001)                 3.600000000000000E+03
(PID.TID 0000.0001)     ;
(PID.TID 0000.0001) cAdjFreq =   /* Convective adjustment interval ( s ) */
(PID.TID 0000.0001)                 0.000000000000000E+00
(PID.TID 0000.0001)     ;
(PID.TID 0000.0001) momForcingOutAB = /* =1: take Momentum Forcing out of Adams-Bash. stepping */
(PID.TID 0000.0001)                       1
(PID.TID 0000.0001)     ;
(PID.TID 0000.0001) tracForcingOutAB = /* =1: take T,S,pTr Forcing out of Adams-Bash. stepping */
(PID.TID 0000.0001)                       1
(PID.TID 0000.0001)     ;
(PID.TID 0000.0001) momDissip_In_AB = /* put Dissipation Tendency in Adams-Bash. stepping */
(PID.TID 0000.0001)                   T
(PID.TID 0000.0001)     ;
(PID.TID 0000.0001) doAB_onGtGs = /* apply AB on Tendencies (rather than on T,S)*/
(PID.TID 0000.0001)                   T
(PID.TID 0000.0001)     ;
(PID.TID 0000.0001) abEps =   /* Adams-Bashforth-2 stabilizing weight */
(PID.TID 0000.0001)                 1.200000000000000E-01
(PID.TID 0000.0001)     ;
(PID.TID 0000.0001) pickupStrictlyMatch= /* stop if pickup do not strictly match */
(PID.TID 0000.0001)                   F
(PID.TID 0000.0001)     ;
(PID.TID 0000.0001) nIter0 =   /* Run starting timestep number  */
(PID.TID 0000.0001)                   86400
(PID.TID 0000.0001)     ;
(PID.TID 0000.0001) nTimeSteps =   /* Number of timesteps */
(PID.TID 0000.0001)                      10
(PID.TID 0000.0001)     ;
(PID.TID 0000.0001) baseTime =   /* Model base time ( s ). */
(PID.TID 0000.0001)                 0.000000000000000E+00
(PID.TID 0000.0001)     ;
(PID.TID 0000.0001) startTime =   /* Run start time ( s ). */
(PID.TID 0000.0001)                 3.110400000000000E+08
(PID.TID 0000.0001)     ;
(PID.TID 0000.0001) endTime =   /* Integration ending time ( s ). */
(PID.TID 0000.0001)                 3.110760000000000E+08
(PID.TID 0000.0001)     ;
(PID.TID 0000.0001) pChkPtFreq =   /* Permanent restart/checkpoint file interval ( s ). */
(PID.TID 0000.0001)                 3.110400000000000E+07
(PID.TID 0000.0001)     ;
(PID.TID 0000.0001) chkPtFreq =   /* Rolling restart/checkpoint file interval ( s ). */
(PID.TID 0000.0001)                 0.000000000000000E+00
(PID.TID 0000.0001)     ;
(PID.TID 0000.0001) pickup_write_mdsio =   /* Model IO flag. */
(PID.TID 0000.0001)                   T
(PID.TID 0000.0001)     ;
(PID.TID 0000.0001) pickup_read_mdsio =   /* Model IO flag. */
(PID.TID 0000.0001)                   T
(PID.TID 0000.0001)     ;
(PID.TID 0000.0001) pickup_write_mnc =   /* Model IO flag. */
(PID.TID 0000.0001)                   F
(PID.TID 0000.0001)     ;
(PID.TID 0000.0001) pickup_read_mnc =   /* Model IO flag. */
(PID.TID 0000.0001)                   F
(PID.TID 0000.0001)     ;
(PID.TID 0000.0001) pickup_write_immed =   /* Model IO flag. */
(PID.TID 0000.0001)                   F
(PID.TID 0000.0001)     ;
(PID.TID 0000.0001) writePickupAtEnd =   /* Model IO flag. */
(PID.TID 0000.0001)                   T
(PID.TID 0000.0001)     ;
(PID.TID 0000.0001) dumpFreq =   /* Model state write out interval ( s ). */
(PID.TID 0000.0001)                 3.110400000000000E+07
(PID.TID 0000.0001)     ;
(PID.TID 0000.0001) dumpInitAndLast= /* write out Initial & Last iter. model state */
(PID.TID 0000.0001)                   T
(PID.TID 0000.0001)     ;
(PID.TID 0000.0001) snapshot_mdsio =   /* Model IO flag. */
(PID.TID 0000.0001)                   T
(PID.TID 0000.0001)     ;
(PID.TID 0000.0001) snapshot_mnc =   /* Model IO flag. */
(PID.TID 0000.0001)                   F
(PID.TID 0000.0001)     ;
(PID.TID 0000.0001) monitorFreq =   /* Monitor output interval ( s ). */
(PID.TID 0000.0001)                 1.000000000000000E+00
(PID.TID 0000.0001)     ;
(PID.TID 0000.0001) monitorSelect = /* select group of variables to monitor */
(PID.TID 0000.0001)                       3
(PID.TID 0000.0001)     ;
(PID.TID 0000.0001) monitor_stdio =   /* Model IO flag. */
(PID.TID 0000.0001)                   T
(PID.TID 0000.0001)     ;
(PID.TID 0000.0001) monitor_mnc =   /* Model IO flag. */
(PID.TID 0000.0001)                   F
(PID.TID 0000.0001)     ;
(PID.TID 0000.0001) externForcingPeriod =   /* forcing period (s) */
(PID.TID 0000.0001)                 2.592000000000000E+06
(PID.TID 0000.0001)     ;
(PID.TID 0000.0001) externForcingCycle =   /* period of the cyle (s). */
(PID.TID 0000.0001)                 3.110400000000000E+07
(PID.TID 0000.0001)     ;
(PID.TID 0000.0001) tauThetaClimRelax =   /* relaxation time scale (s) */
(PID.TID 0000.0001)                 5.184000000000000E+06
(PID.TID 0000.0001)     ;
(PID.TID 0000.0001) tauSaltClimRelax =   /* relaxation time scale (s) */
(PID.TID 0000.0001)                 6.220800000000000E+07
(PID.TID 0000.0001)     ;
(PID.TID 0000.0001) latBandClimRelax =   /* max. Lat. where relaxation */
(PID.TID 0000.0001)                 1.800000000000000E+02
(PID.TID 0000.0001)     ;
(PID.TID 0000.0001) //
(PID.TID 0000.0001) // Gridding paramters ( PARM04 in namelist )
(PID.TID 0000.0001) //
(PID.TID 0000.0001) usingCartesianGrid = /* Cartesian coordinates flag ( True/False ) */
(PID.TID 0000.0001)                   F
(PID.TID 0000.0001)     ;
(PID.TID 0000.0001) usingCylindricalGrid = /* Cylindrical coordinates flag ( True/False ) */
(PID.TID 0000.0001)                   F
(PID.TID 0000.0001)     ;
(PID.TID 0000.0001) usingSphericalPolarGrid = /* Spherical coordinates flag ( True/False ) */
(PID.TID 0000.0001)                   F
(PID.TID 0000.0001)     ;
(PID.TID 0000.0001) usingCurvilinearGrid = /* Curvilinear coordinates flag ( True/False ) */
(PID.TID 0000.0001)                   T
(PID.TID 0000.0001)     ;
(PID.TID 0000.0001) Ro_SeaLevel = /* r(1) ( units of r ==  m ) */
(PID.TID 0000.0001)                 0.000000000000000E+00
(PID.TID 0000.0001)     ;
(PID.TID 0000.0001) rkSign =   /* index orientation relative to vertical coordinate */
(PID.TID 0000.0001)                -1.000000000000000E+00
(PID.TID 0000.0001)     ;
(PID.TID 0000.0001) gravitySign = /* gravity orientation relative to vertical coordinate */
(PID.TID 0000.0001)                -1.000000000000000E+00
(PID.TID 0000.0001)     ;
(PID.TID 0000.0001) mass2rUnit = /* convert mass per unit area [kg/m2] to r-units [m] */
(PID.TID 0000.0001)                 9.661835748792270E-04
(PID.TID 0000.0001)     ;
(PID.TID 0000.0001) rUnit2mass = /* convert r-units [m] to mass per unit area [kg/m2] */
(PID.TID 0000.0001)                 1.035000000000000E+03
(PID.TID 0000.0001)     ;
(PID.TID 0000.0001) drC =   /* C spacing ( units of r ) */
(PID.TID 0000.0001)                 2.500000000000000E+01,      /* K =  1 */
(PID.TID 0000.0001)                 6.000000000000000E+01,      /* K =  2 */
(PID.TID 0000.0001)                 8.500000000000000E+01,      /* K =  3 */
(PID.TID 0000.0001)                 1.200000000000000E+02,      /* K =  4 */
(PID.TID 0000.0001)                 1.650000000000000E+02,      /* K =  5 */
(PID.TID 0000.0001)                 2.150000000000000E+02,      /* K =  6 */
(PID.TID 0000.0001)                 2.650000000000000E+02,      /* K =  7 */
(PID.TID 0000.0001)                 3.150000000000000E+02,      /* K =  8 */
(PID.TID 0000.0001)                 3.650000000000000E+02,      /* K =  9 */
(PID.TID 0000.0001)                 4.150000000000000E+02,      /* K = 10 */
(PID.TID 0000.0001)                 4.650000000000000E+02,      /* K = 11 */
(PID.TID 0000.0001)                 5.150000000000000E+02,      /* K = 12 */
(PID.TID 0000.0001)                 5.650000000000000E+02,      /* K = 13 */
(PID.TID 0000.0001)                 6.150000000000000E+02,      /* K = 14 */
(PID.TID 0000.0001)                 6.650000000000000E+02       /* K = 15 */
(PID.TID 0000.0001)     ;
(PID.TID 0000.0001) drF =   /* W spacing ( units of r ) */
(PID.TID 0000.0001)                 5.000000000000000E+01,      /* K =  1 */
(PID.TID 0000.0001)                 7.000000000000000E+01,      /* K =  2 */
(PID.TID 0000.0001)                 1.000000000000000E+02,      /* K =  3 */
(PID.TID 0000.0001)                 1.400000000000000E+02,      /* K =  4 */
(PID.TID 0000.0001)                 1.900000000000000E+02,      /* K =  5 */
(PID.TID 0000.0001)                 2.400000000000000E+02,      /* K =  6 */
(PID.TID 0000.0001)                 2.900000000000000E+02,      /* K =  7 */
(PID.TID 0000.0001)                 3.400000000000000E+02,      /* K =  8 */
(PID.TID 0000.0001)                 3.900000000000000E+02,      /* K =  9 */
(PID.TID 0000.0001)                 4.400000000000000E+02,      /* K = 10 */
(PID.TID 0000.0001)                 4.900000000000000E+02,      /* K = 11 */
(PID.TID 0000.0001)                 5.400000000000000E+02,      /* K = 12 */
(PID.TID 0000.0001)                 5.900000000000000E+02,      /* K = 13 */
(PID.TID 0000.0001)                 6.400000000000000E+02,      /* K = 14 */
(PID.TID 0000.0001)                 6.900000000000000E+02       /* K = 15 */
(PID.TID 0000.0001)     ;
(PID.TID 0000.0001) xgOrigin = /* X-axis origin of West  edge (cartesian: m, lat-lon: deg.) */
(PID.TID 0000.0001)                 0.000000000000000E+00
(PID.TID 0000.0001)     ;
(PID.TID 0000.0001) ygOrigin = /* Y-axis origin of South edge (cartesian: m, lat-lon: deg.) */
(PID.TID 0000.0001)                 0.000000000000000E+00
(PID.TID 0000.0001)     ;
(PID.TID 0000.0001) rSphere =  /* Radius ( ignored - cartesian, m - spherical ) */
(PID.TID 0000.0001)                 6.370000000000000E+06
(PID.TID 0000.0001)     ;
(PID.TID 0000.0001) deepAtmosphere = /* Deep/Shallow Atmosphere flag (True/False) */
(PID.TID 0000.0001)                   F
(PID.TID 0000.0001)     ;
(PID.TID 0000.0001) xC =  /* xC(:,1,:,1) : P-point X coord ( deg. or m if cartesian) */
(PID.TID 0000.0001)                -4.439521994760536E+01,      /* I =  1 */
(PID.TID 0000.0001)                -4.295641272275883E+01,      /* I =  2 */
(PID.TID 0000.0001)                -4.122055553388957E+01,      /* I =  3 */
(PID.TID 0000.0001)      . . .
(PID.TID 0000.0001)                 1.312205555338896E+02,      /* I = 94 */
(PID.TID 0000.0001)                 1.329564127227588E+02,      /* I = 95 */
(PID.TID 0000.0001)                 1.343952199476053E+02,      /* I = 96 */
(PID.TID 0000.0001)                 4.635509675007168E+01,      /* I = 97 */
(PID.TID 0000.0001)                 4.906731228843647E+01,      /* I = 98 */
(PID.TID 0000.0001)                 5.178550688214704E+01,      /* I = 99 */
(PID.TID 0000.0001)      . . .
(PID.TID 0000.0001)                -1.778001716525716E+02,      /* I =190 */
(PID.TID 0000.0001)                -1.779288225675308E+02,      /* I =191 */
(PID.TID 0000.0001)                -1.780367200854751E+02,      /* I =192 */
(PID.TID 0000.0001)                 1.356047800523947E+02,      /* I =193 */
(PID.TID 0000.0001)                 1.358367907661329E+02,      /* I =194 */
(PID.TID 0000.0001)                 1.359720382181193E+02,      /* I =195 */
(PID.TID 0000.0001)      . . .
(PID.TID 0000.0001)                -1.340279617818807E+02,      /* I =286 */
(PID.TID 0000.0001)                -1.341632092338671E+02,      /* I =287 */
(PID.TID 0000.0001)                -1.343952199476053E+02,      /* I =288 */
(PID.TID 0000.0001)                -8.812739148696656E+01,      /* I =289 */
(PID.TID 0000.0001)                -8.820362659721324E+01,      /* I =290 */
(PID.TID 0000.0001)                -8.826768106944316E+01,      /* I =291 */
(PID.TID 0000.0001)      . . .
(PID.TID 0000.0001)                 8.780017165257156E+01,      /* I =382 */
(PID.TID 0000.0001)                 8.792882256753080E+01,      /* I =383 */
(PID.TID 0000.0001)                 8.803672008547504E+01       /* I =384 */
(PID.TID 0000.0001)     ;
(PID.TID 0000.0001) yC =  /* yC(1,:,1,:) : P-point Y coord ( deg. or m if cartesian) */
(PID.TID 0000.0001)                -3.497677942598243E+01,      /* J =  1 */
(PID.TID 0000.0001)                -3.374005967394886E+01,      /* J =  2 */
(PID.TID 0000.0001)                -3.220655175667454E+01,      /* J =  3 */
(PID.TID 0000.0001)                -3.045756348838641E+01,      /* J =  4 */
(PID.TID 0000.0001)                -2.853728129852918E+01,      /* J =  5 */
(PID.TID 0000.0001)                -2.647426640173173E+01,      /* J =  6 */
(PID.TID 0000.0001)                -2.428936657094636E+01,      /* J =  7 */
(PID.TID 0000.0001)                -2.199915808312262E+01,      /* J =  8 */
(PID.TID 0000.0001)                -1.961768597440146E+01,      /* J =  9 */
(PID.TID 0000.0001)                -1.715743888281371E+01,      /* J = 10 */
(PID.TID 0000.0001)                -1.462993396899330E+01,      /* J = 11 */
(PID.TID 0000.0001)                -1.204608340464756E+01,      /* J = 12 */
(PID.TID 0000.0001)                -9.416429130284818E+00,      /* J = 13 */
(PID.TID 0000.0001)                -6.751293662992216E+00,      /* J = 14 */
(PID.TID 0000.0001)                -4.060875511835959E+00,      /* J = 15 */
(PID.TID 0000.0001)                -1.355307764409121E+00       /* J = 16 */
(PID.TID 0000.0001)     ;
(PID.TID 0000.0001) rcoord = /* P-point R coordinate (  units of r ) */
(PID.TID 0000.0001)                -2.500000000000000E+01,      /* K =  1 */
(PID.TID 0000.0001)                -8.500000000000000E+01,      /* K =  2 */
(PID.TID 0000.0001)                -1.700000000000000E+02,      /* K =  3 */
(PID.TID 0000.0001)                -2.900000000000000E+02,      /* K =  4 */
(PID.TID 0000.0001)                -4.550000000000000E+02,      /* K =  5 */
(PID.TID 0000.0001)                -6.700000000000000E+02,      /* K =  6 */
(PID.TID 0000.0001)                -9.350000000000000E+02,      /* K =  7 */
(PID.TID 0000.0001)                -1.250000000000000E+03,      /* K =  8 */
(PID.TID 0000.0001)                -1.615000000000000E+03,      /* K =  9 */
(PID.TID 0000.0001)                -2.030000000000000E+03,      /* K = 10 */
(PID.TID 0000.0001)                -2.495000000000000E+03,      /* K = 11 */
(PID.TID 0000.0001)                -3.010000000000000E+03,      /* K = 12 */
(PID.TID 0000.0001)                -3.575000000000000E+03,      /* K = 13 */
(PID.TID 0000.0001)                -4.190000000000000E+03,      /* K = 14 */
(PID.TID 0000.0001)                -4.855000000000000E+03       /* K = 15 */
(PID.TID 0000.0001)     ;
(PID.TID 0000.0001) rF =   /* W-Interf. R coordinate (  units of r ) */
(PID.TID 0000.0001)                 0.000000000000000E+00,      /* K =  1 */
(PID.TID 0000.0001)                -5.000000000000000E+01,      /* K =  2 */
(PID.TID 0000.0001)                -1.200000000000000E+02,      /* K =  3 */
(PID.TID 0000.0001)                -2.200000000000000E+02,      /* K =  4 */
(PID.TID 0000.0001)                -3.600000000000000E+02,      /* K =  5 */
(PID.TID 0000.0001)                -5.500000000000000E+02,      /* K =  6 */
(PID.TID 0000.0001)                -7.900000000000000E+02,      /* K =  7 */
(PID.TID 0000.0001)                -1.080000000000000E+03,      /* K =  8 */
(PID.TID 0000.0001)                -1.420000000000000E+03,      /* K =  9 */
(PID.TID 0000.0001)                -1.810000000000000E+03,      /* K = 10 */
(PID.TID 0000.0001)                -2.250000000000000E+03,      /* K = 11 */
(PID.TID 0000.0001)                -2.740000000000000E+03,      /* K = 12 */
(PID.TID 0000.0001)                -3.280000000000000E+03,      /* K = 13 */
(PID.TID 0000.0001)                -3.870000000000000E+03,      /* K = 14 */
(PID.TID 0000.0001)                -4.510000000000000E+03,      /* K = 15 */
(PID.TID 0000.0001)                -5.200000000000000E+03       /* K = 16 */
(PID.TID 0000.0001)     ;
(PID.TID 0000.0001) deepFacC = /* deep-model grid factor @ cell-Center (-) */
(PID.TID 0000.0001)    15 @  1.000000000000000E+00              /* K =  1: 15 */
(PID.TID 0000.0001)     ;
(PID.TID 0000.0001) deepFacF = /* deep-model grid factor @ W-Interface (-) */
(PID.TID 0000.0001)    16 @  1.000000000000000E+00              /* K =  1: 16 */
(PID.TID 0000.0001)     ;
(PID.TID 0000.0001) rVel2wUnit = /* convert units: rVel -> wSpeed (=1 if z-coord)*/
(PID.TID 0000.0001)    16 @  1.000000000000000E+00              /* K =  1: 16 */
(PID.TID 0000.0001)     ;
(PID.TID 0000.0001) wUnit2rVel = /* convert units: wSpeed -> rVel (=1 if z-coord)*/
(PID.TID 0000.0001)    16 @  1.000000000000000E+00              /* K =  1: 16 */
(PID.TID 0000.0001)     ;
(PID.TID 0000.0001) dBdrRef = /* Vertical gradient of reference boyancy [(m/s/r)^2)] */
(PID.TID 0000.0001)    15 @  0.000000000000000E+00              /* K =  1: 15 */
(PID.TID 0000.0001)     ;
(PID.TID 0000.0001) rotateGrid = /* use rotated grid ( True/False ) */
(PID.TID 0000.0001)                   F
(PID.TID 0000.0001)     ;
(PID.TID 0000.0001) phiEuler = /* Euler angle, rotation about original z-coordinate [rad] */
(PID.TID 0000.0001)                 0.000000000000000E+00
(PID.TID 0000.0001)     ;
(PID.TID 0000.0001) thetaEuler = /* Euler angle, rotation about new x-coordinate [rad] */
(PID.TID 0000.0001)                 0.000000000000000E+00
(PID.TID 0000.0001)     ;
(PID.TID 0000.0001) psiEuler = /* Euler angle, rotation about new z-coordinate [rad] */
(PID.TID 0000.0001)                 0.000000000000000E+00
(PID.TID 0000.0001)     ;
(PID.TID 0000.0001) dxF =  /* dxF(:,1,:,1) ( units: m ) */
(PID.TID 0000.0001)                 1.202082051331828E+05,      /* I =  1 */
(PID.TID 0000.0001)                 1.563594089971120E+05,      /* I =  2 */
(PID.TID 0000.0001)                 1.835530058121492E+05,      /* I =  3 */
(PID.TID 0000.0001)      . . .
(PID.TID 0000.0001)                 1.835530058121492E+05,      /* I = 94 */
(PID.TID 0000.0001)                 1.563594089971120E+05,      /* I = 95 */
(PID.TID 0000.0001)                 1.202082051331828E+05,      /* I = 96 */
(PID.TID 0000.0001)                 3.012844832048790E+05,      /* I = 97 */
(PID.TID 0000.0001)                 3.017314519159184E+05,      /* I = 98 */
(PID.TID 0000.0001)                 3.026061571839506E+05,      /* I = 99 */
(PID.TID 0000.0001)      . . .
(PID.TID 0000.0001)                 3.026061571839506E+05,      /* I =190 */
(PID.TID 0000.0001)                 3.017314519159184E+05,      /* I =191 */
(PID.TID 0000.0001)                 3.012844832048790E+05,      /* I =192 */
(PID.TID 0000.0001)                 1.202082051331828E+05,      /* I =193 */
(PID.TID 0000.0001)                 1.563594089971120E+05,      /* I =194 */
(PID.TID 0000.0001)                 1.835530058121492E+05,      /* I =195 */
(PID.TID 0000.0001)      . . .
(PID.TID 0000.0001)                 1.835530058121492E+05,      /* I =286 */
(PID.TID 0000.0001)                 1.563594089971120E+05,      /* I =287 */
(PID.TID 0000.0001)                 1.202082051331828E+05,      /* I =288 */
(PID.TID 0000.0001)                 3.012844832048790E+05,      /* I =289 */
(PID.TID 0000.0001)                 3.017314519159184E+05,      /* I =290 */
(PID.TID 0000.0001)                 3.026061571839506E+05,      /* I =291 */
(PID.TID 0000.0001)      . . .
(PID.TID 0000.0001)                 3.026061571839506E+05,      /* I =382 */
(PID.TID 0000.0001)                 3.017314519159184E+05,      /* I =383 */
(PID.TID 0000.0001)                 3.012844832048790E+05       /* I =384 */
(PID.TID 0000.0001)     ;
(PID.TID 0000.0001) dxF =  /* dxF(1,:,1,:) ( units: m ) */
(PID.TID 0000.0001)                 1.202082051331828E+05,      /* J =  1 */
(PID.TID 0000.0001)                 1.572908084538706E+05,      /* J =  2 */
(PID.TID 0000.0001)                 1.840412227747703E+05,      /* J =  3 */
(PID.TID 0000.0001)                 2.048868197919576E+05,      /* J =  4 */
(PID.TID 0000.0001)                 2.220405216043041E+05,      /* J =  5 */
(PID.TID 0000.0001)                 2.365892017348392E+05,      /* J =  6 */
(PID.TID 0000.0001)                 2.491250781852558E+05,      /* J =  7 */
(PID.TID 0000.0001)                 2.599949918261881E+05,      /* J =  8 */
(PID.TID 0000.0001)                 2.694110134598581E+05,      /* J =  9 */
(PID.TID 0000.0001)                 2.775055554645015E+05,      /* J = 10 */
(PID.TID 0000.0001)                 2.843615645344775E+05,      /* J = 11 */
(PID.TID 0000.0001)                 2.900303768613599E+05,      /* J = 12 */
(PID.TID 0000.0001)                 2.945429307892709E+05,      /* J = 13 */
(PID.TID 0000.0001)                 2.979171143158405E+05,      /* J = 14 */
(PID.TID 0000.0001)                 3.001626787528886E+05,      /* J = 15 */
(PID.TID 0000.0001)                 3.012844832048790E+05       /* J = 16 */
(PID.TID 0000.0001)     ;
(PID.TID 0000.0001) dyF =  /* dyF(:,1,:,1) ( units: m ) */
(PID.TID 0000.0001)                 1.202082051331828E+05,      /* I =  1 */
(PID.TID 0000.0001)                 1.572908084538706E+05,      /* I =  2 */
(PID.TID 0000.0001)                 1.840412227747703E+05,      /* I =  3 */
(PID.TID 0000.0001)      . . .
(PID.TID 0000.0001)                 1.840412227747703E+05,      /* I = 94 */
(PID.TID 0000.0001)                 1.572908084538706E+05,      /* I = 95 */
(PID.TID 0000.0001)                 1.202082051331828E+05,      /* I = 96 */
(PID.TID 0000.0001)                 3.012190981969055E+05,      /* I = 97 */
(PID.TID 0000.0001)                 3.016675528553907E+05,      /* I = 98 */
(PID.TID 0000.0001)                 3.025451404065074E+05,      /* I = 99 */
(PID.TID 0000.0001)      . . .
(PID.TID 0000.0001)                 3.025451404065074E+05,      /* I =190 */
(PID.TID 0000.0001)                 3.016675528553907E+05,      /* I =191 */
(PID.TID 0000.0001)                 3.012190981969055E+05,      /* I =192 */
(PID.TID 0000.0001)                 1.202082051331828E+05,      /* I =193 */
(PID.TID 0000.0001)                 1.572908084538706E+05,      /* I =194 */
(PID.TID 0000.0001)                 1.840412227747703E+05,      /* I =195 */
(PID.TID 0000.0001)      . . .
(PID.TID 0000.0001)                 1.840412227747703E+05,      /* I =286 */
(PID.TID 0000.0001)                 1.572908084538706E+05,      /* I =287 */
(PID.TID 0000.0001)                 1.202082051331828E+05,      /* I =288 */
(PID.TID 0000.0001)                 3.012190981969055E+05,      /* I =289 */
(PID.TID 0000.0001)                 3.016675528553907E+05,      /* I =290 */
(PID.TID 0000.0001)                 3.025451404065074E+05,      /* I =291 */
(PID.TID 0000.0001)      . . .
(PID.TID 0000.0001)                 3.025451404065074E+05,      /* I =382 */
(PID.TID 0000.0001)                 3.016675528553907E+05,      /* I =383 */
(PID.TID 0000.0001)                 3.012190981969055E+05       /* I =384 */
(PID.TID 0000.0001)     ;
(PID.TID 0000.0001) dyF =  /* dyF(1,:,1,:) ( units: m ) */
(PID.TID 0000.0001)                 1.202082051331828E+05,      /* J =  1 */
(PID.TID 0000.0001)                 1.563594089971120E+05,      /* J =  2 */
(PID.TID 0000.0001)                 1.835530058121492E+05,      /* J =  3 */
(PID.TID 0000.0001)                 2.045883481718707E+05,      /* J =  4 */
(PID.TID 0000.0001)                 2.218350349844185E+05,      /* J =  5 */
(PID.TID 0000.0001)                 2.364352994647058E+05,      /* J =  6 */
(PID.TID 0000.0001)                 2.490022710862746E+05,      /* J =  7 */
(PID.TID 0000.0001)                 2.598919724358304E+05,      /* J =  8 */
(PID.TID 0000.0001)                 2.693210245495156E+05,      /* J =  9 */
(PID.TID 0000.0001)                 2.774243179696503E+05,      /* J = 10 */
(PID.TID 0000.0001)                 2.842862532064524E+05,      /* J = 11 */
(PID.TID 0000.0001)                 2.899590699694043E+05,      /* J = 12 */
(PID.TID 0000.0001)                 2.944742915095688E+05,      /* J = 13 */
(PID.TID 0000.0001)                 2.978501920522794E+05,      /* J = 14 */
(PID.TID 0000.0001)                 3.000967749619962E+05,      /* J = 15 */
(PID.TID 0000.0001)                 3.012190981969055E+05       /* J = 16 */
(PID.TID 0000.0001)     ;
(PID.TID 0000.0001) dxG =  /* dxG(:,1,:,1) ( units: m ) */
(PID.TID 0000.0001)                 1.009837800879055E+05,      /* I =  1 */
(PID.TID 0000.0001)                 1.534505834330338E+05,      /* I =  2 */
(PID.TID 0000.0001)                 1.823321598773926E+05,      /* I =  3 */
(PID.TID 0000.0001)      . . .
(PID.TID 0000.0001)                 1.823321598773926E+05,      /* I = 94 */
(PID.TID 0000.0001)                 1.534505834330338E+05,      /* I = 95 */
(PID.TID 0000.0001)                 1.009837800879055E+05,      /* I = 96 */
(PID.TID 0000.0001)                 3.014246674484008E+05,      /* I = 97 */
(PID.TID 0000.0001)                 3.018694497480782E+05,      /* I = 98 */
(PID.TID 0000.0001)                 3.027399364062562E+05,      /* I = 99 */
(PID.TID 0000.0001)      . . .
(PID.TID 0000.0001)                 3.027399364062562E+05,      /* I =190 */
(PID.TID 0000.0001)                 3.018694497480782E+05,      /* I =191 */
(PID.TID 0000.0001)                 3.014246674484008E+05,      /* I =192 */
(PID.TID 0000.0001)                 1.009837800879055E+05,      /* I =193 */
(PID.TID 0000.0001)                 1.534505834330338E+05,      /* I =194 */
(PID.TID 0000.0001)                 1.823321598773926E+05,      /* I =195 */
(PID.TID 0000.0001)      . . .
(PID.TID 0000.0001)                 1.823321598773926E+05,      /* I =286 */
(PID.TID 0000.0001)                 1.534505834330338E+05,      /* I =287 */
(PID.TID 0000.0001)                 1.009837800879055E+05,      /* I =288 */
(PID.TID 0000.0001)                 3.014246674484008E+05,      /* I =289 */
(PID.TID 0000.0001)                 3.018694497480782E+05,      /* I =290 */
(PID.TID 0000.0001)                 3.027399364062562E+05,      /* I =291 */
(PID.TID 0000.0001)      . . .
(PID.TID 0000.0001)                 3.027399364062562E+05,      /* I =382 */
(PID.TID 0000.0001)                 3.018694497480782E+05,      /* I =383 */
(PID.TID 0000.0001)                 3.014246674484008E+05       /* I =384 */
(PID.TID 0000.0001)     ;
(PID.TID 0000.0001) dxG =  /* dxG(1,:,1,:) ( units: m ) */
(PID.TID 0000.0001)                 1.009837800879055E+05,      /* J =  1 */
(PID.TID 0000.0001)                 1.403701524205398E+05,      /* J =  2 */
(PID.TID 0000.0001)                 1.716197227386011E+05,      /* J =  3 */
(PID.TID 0000.0001)                 1.950254041626018E+05,      /* J =  4 */
(PID.TID 0000.0001)                 2.138410773065497E+05,      /* J =  5 */
(PID.TID 0000.0001)                 2.295958105911512E+05,      /* J =  6 */
(PID.TID 0000.0001)                 2.430829951739083E+05,      /* J =  7 */
(PID.TID 0000.0001)                 2.547526806712889E+05,      /* J =  8 */
(PID.TID 0000.0001)                 2.648750305193301E+05,      /* J =  9 */
(PID.TID 0000.0001)                 2.736173771018112E+05,      /* J = 10 */
(PID.TID 0000.0001)                 2.810845823202647E+05,      /* J = 11 */
(PID.TID 0000.0001)                 2.873420591008078E+05,      /* J = 12 */
(PID.TID 0000.0001)                 2.924298293668651E+05,      /* J = 13 */
(PID.TID 0000.0001)                 2.963715635865306E+05,      /* J = 14 */
(PID.TID 0000.0001)                 2.991805843171258E+05,      /* J = 15 */
(PID.TID 0000.0001)                 3.008638765647886E+05       /* J = 16 */
(PID.TID 0000.0001)     ;
(PID.TID 0000.0001) dyG =  /* dyG(:,1,:,1) ( units: m ) */
(PID.TID 0000.0001)                 1.009837800879055E+05,      /* I =  1 */
(PID.TID 0000.0001)                 1.403701524205398E+05,      /* I =  2 */
(PID.TID 0000.0001)                 1.716197227386011E+05,      /* I =  3 */
(PID.TID 0000.0001)      . . .
(PID.TID 0000.0001)                 1.950254041626018E+05,      /* I = 94 */
(PID.TID 0000.0001)                 1.716197227386011E+05,      /* I = 95 */
(PID.TID 0000.0001)                 1.403701524205398E+05,      /* I = 96 */
(PID.TID 0000.0001)                 3.011625828699101E+05,      /* I = 97 */
(PID.TID 0000.0001)                 3.013880313304323E+05,      /* I = 98 */
(PID.TID 0000.0001)                 3.020546438966793E+05,      /* I = 99 */
(PID.TID 0000.0001)      . . .
(PID.TID 0000.0001)                 3.031337933484788E+05,      /* I =190 */
(PID.TID 0000.0001)                 3.020546438966793E+05,      /* I =191 */
(PID.TID 0000.0001)                 3.013880313304323E+05,      /* I =192 */
(PID.TID 0000.0001)                 1.009837800879055E+05,      /* I =193 */
(PID.TID 0000.0001)                 1.403701524205398E+05,      /* I =194 */
(PID.TID 0000.0001)                 1.716197227386011E+05,      /* I =195 */
(PID.TID 0000.0001)      . . .
(PID.TID 0000.0001)                 1.950254041626018E+05,      /* I =286 */
(PID.TID 0000.0001)                 1.716197227386011E+05,      /* I =287 */
(PID.TID 0000.0001)                 1.403701524205398E+05,      /* I =288 */
(PID.TID 0000.0001)                 3.011625828699101E+05,      /* I =289 */
(PID.TID 0000.0001)                 3.013880313304323E+05,      /* I =290 */
(PID.TID 0000.0001)                 3.020546438966793E+05,      /* I =291 */
(PID.TID 0000.0001)      . . .
(PID.TID 0000.0001)                 3.031337933484788E+05,      /* I =382 */
(PID.TID 0000.0001)                 3.020546438966793E+05,      /* I =383 */
(PID.TID 0000.0001)                 3.013880313304323E+05       /* I =384 */
(PID.TID 0000.0001)     ;
(PID.TID 0000.0001) dyG =  /* dyG(1,:,1,:) ( units: m ) */
(PID.TID 0000.0001)                 1.009837800879055E+05,      /* J =  1 */
(PID.TID 0000.0001)                 1.534505834330338E+05,      /* J =  2 */
(PID.TID 0000.0001)                 1.823321598773926E+05,      /* J =  3 */
(PID.TID 0000.0001)                 2.038999045536999E+05,      /* J =  4 */
(PID.TID 0000.0001)                 2.213884732245467E+05,      /* J =  5 */
(PID.TID 0000.0001)                 2.361211699596122E+05,      /* J =  6 */
(PID.TID 0000.0001)                 2.487693460283865E+05,      /* J =  7 */
(PID.TID 0000.0001)                 2.597126963772147E+05,      /* J =  8 */
(PID.TID 0000.0001)                 2.691790288994575E+05,      /* J =  9 */
(PID.TID 0000.0001)                 2.773091043277394E+05,      /* J = 10 */
(PID.TID 0000.0001)                 2.841906470085516E+05,      /* J = 11 */
(PID.TID 0000.0001)                 2.898778860929753E+05,      /* J = 12 */
(PID.TID 0000.0001)                 2.944035815526416E+05,      /* J = 13 */
(PID.TID 0000.0001)                 2.977867909042096E+05,      /* J = 14 */
(PID.TID 0000.0001)                 3.000380090330854E+05,      /* J = 15 */
(PID.TID 0000.0001)                 3.011625828699101E+05       /* J = 16 */
(PID.TID 0000.0001)     ;
(PID.TID 0000.0001) dxC =  /* dxC(:,1,:,1) ( units: m ) */
(PID.TID 0000.0001)                 1.114203141013064E+05,      /* I =  1 */
(PID.TID 0000.0001)                 1.391343389937106E+05,      /* I =  2 */
(PID.TID 0000.0001)                 1.709574999026266E+05,      /* I =  3 */
(PID.TID 0000.0001)      . . .
(PID.TID 0000.0001)                 1.946503699269892E+05,      /* I = 94 */
(PID.TID 0000.0001)                 1.709574999026266E+05,      /* I = 95 */
(PID.TID 0000.0001)                 1.391343389937106E+05,      /* I = 96 */
(PID.TID 0000.0001)                 3.012281885409289E+05,      /* I = 97 */
(PID.TID 0000.0001)                 3.014528555318499E+05,      /* I = 98 */
(PID.TID 0000.0001)                 3.021172674809921E+05,      /* I = 99 */
(PID.TID 0000.0001)      . . .
(PID.TID 0000.0001)                 3.031928954490276E+05,      /* I =190 */
(PID.TID 0000.0001)                 3.021172674809921E+05,      /* I =191 */
(PID.TID 0000.0001)                 3.014528555318499E+05,      /* I =192 */
(PID.TID 0000.0001)                 1.114203141013064E+05,      /* I =193 */
(PID.TID 0000.0001)                 1.391343389937106E+05,      /* I =194 */
(PID.TID 0000.0001)                 1.709574999026266E+05,      /* I =195 */
(PID.TID 0000.0001)      . . .
(PID.TID 0000.0001)                 1.946503699269892E+05,      /* I =286 */
(PID.TID 0000.0001)                 1.709574999026266E+05,      /* I =287 */
(PID.TID 0000.0001)                 1.391343389937106E+05,      /* I =288 */
(PID.TID 0000.0001)                 3.012281885409289E+05,      /* I =289 */
(PID.TID 0000.0001)                 3.014528555318499E+05,      /* I =290 */
(PID.TID 0000.0001)                 3.021172674809921E+05,      /* I =291 */
(PID.TID 0000.0001)      . . .
(PID.TID 0000.0001)                 3.031928954490276E+05,      /* I =382 */
(PID.TID 0000.0001)                 3.021172674809921E+05,      /* I =383 */
(PID.TID 0000.0001)                 3.014528555318499E+05       /* I =384 */
(PID.TID 0000.0001)     ;
(PID.TID 0000.0001) dxC =  /* dxC(1,:,1,:) ( units: m ) */
(PID.TID 0000.0001)                 1.114203141013064E+05,      /* J =  1 */
(PID.TID 0000.0001)                 1.549545757850771E+05,      /* J =  2 */
(PID.TID 0000.0001)                 1.829777599966776E+05,      /* J =  3 */
(PID.TID 0000.0001)                 2.042717761866506E+05,      /* J =  4 */
(PID.TID 0000.0001)                 2.216367828252819E+05,      /* J =  5 */
(PID.TID 0000.0001)                 2.363029564123586E+05,      /* J =  6 */
(PID.TID 0000.0001)                 2.489113743322025E+05,      /* J =  7 */
(PID.TID 0000.0001)                 2.598293319150326E+05,      /* J =  8 */
(PID.TID 0000.0001)                 2.692787333338535E+05,      /* J =  9 */
(PID.TID 0000.0001)                 2.773972106720365E+05,      /* J = 10 */
(PID.TID 0000.0001)                 2.842706922224557E+05,      /* J = 11 */
(PID.TID 0000.0001)                 2.899523122489403E+05,      /* J = 12 */
(PID.TID 0000.0001)                 2.944741346384699E+05,      /* J = 13 */
(PID.TID 0000.0001)                 2.978547649292580E+05,      /* J = 14 */
(PID.TID 0000.0001)                 3.001044073506459E+05,      /* J = 15 */
(PID.TID 0000.0001)                 3.012281885409289E+05       /* J = 16 */
(PID.TID 0000.0001)     ;
(PID.TID 0000.0001) dyC =  /* dyC(:,1,:,1) ( units: m ) */
(PID.TID 0000.0001)                 1.114203141013064E+05,      /* I =  1 */
(PID.TID 0000.0001)                 1.549545757850771E+05,      /* I =  2 */
(PID.TID 0000.0001)                 1.829777599966776E+05,      /* I =  3 */
(PID.TID 0000.0001)      . . .
(PID.TID 0000.0001)                 1.829777599966776E+05,      /* I = 94 */
(PID.TID 0000.0001)                 1.549545757850771E+05,      /* I = 95 */
(PID.TID 0000.0001)                 1.114203141013064E+05,      /* I = 96 */
(PID.TID 0000.0001)                 3.013593857228136E+05,      /* I = 97 */
(PID.TID 0000.0001)                 3.018056440786431E+05,      /* I = 98 */
(PID.TID 0000.0001)                 3.026789946729719E+05,      /* I = 99 */
(PID.TID 0000.0001)      . . .
(PID.TID 0000.0001)                 3.026789946729719E+05,      /* I =190 */
(PID.TID 0000.0001)                 3.018056440786431E+05,      /* I =191 */
(PID.TID 0000.0001)                 3.013593857228136E+05,      /* I =192 */
(PID.TID 0000.0001)                 1.114203141013064E+05,      /* I =193 */
(PID.TID 0000.0001)                 1.549545757850771E+05,      /* I =194 */
(PID.TID 0000.0001)                 1.829777599966776E+05,      /* I =195 */
(PID.TID 0000.0001)      . . .
(PID.TID 0000.0001)                 1.829777599966776E+05,      /* I =286 */
(PID.TID 0000.0001)                 1.549545757850771E+05,      /* I =287 */
(PID.TID 0000.0001)                 1.114203141013064E+05,      /* I =288 */
(PID.TID 0000.0001)                 3.013593857228136E+05,      /* I =289 */
(PID.TID 0000.0001)                 3.018056440786431E+05,      /* I =290 */
(PID.TID 0000.0001)                 3.026789946729719E+05,      /* I =291 */
(PID.TID 0000.0001)      . . .
(PID.TID 0000.0001)                 3.026789946729719E+05,      /* I =382 */
(PID.TID 0000.0001)                 3.018056440786431E+05,      /* I =383 */
(PID.TID 0000.0001)                 3.013593857228136E+05       /* I =384 */
(PID.TID 0000.0001)     ;
(PID.TID 0000.0001) dyC =  /* dyC(1,:,1,:) ( units: m ) */
(PID.TID 0000.0001)                 1.114203141013064E+05,      /* J =  1 */
(PID.TID 0000.0001)                 1.391343389937106E+05,      /* J =  2 */
(PID.TID 0000.0001)                 1.709574999026266E+05,      /* J =  3 */
(PID.TID 0000.0001)                 1.946503699269892E+05,      /* J =  4 */
(PID.TID 0000.0001)                 2.135964483342134E+05,      /* J =  5 */
(PID.TID 0000.0001)                 2.294195678257306E+05,      /* J =  6 */
(PID.TID 0000.0001)                 2.429464709770498E+05,      /* J =  7 */
(PID.TID 0000.0001)                 2.546408290696998E+05,      /* J =  8 */
(PID.TID 0000.0001)                 2.647791839299727E+05,      /* J =  9 */
(PID.TID 0000.0001)                 2.735321911346108E+05,      /* J = 10 */
(PID.TID 0000.0001)                 2.810065951609633E+05,      /* J = 11 */
(PID.TID 0000.0001)                 2.872689479506990E+05,      /* J = 12 */
(PID.TID 0000.0001)                 2.923599955312932E+05,      /* J = 13 */
(PID.TID 0000.0001)                 2.963038832565530E+05,      /* J = 14 */
(PID.TID 0000.0001)                 2.991142470004740E+05,      /* J = 15 */
(PID.TID 0000.0001)                 3.007982711627968E+05       /* J = 16 */
(PID.TID 0000.0001)     ;
(PID.TID 0000.0001) dxV =  /* dxV(:,1,:,1) ( units: m ) */
(PID.TID 0000.0001)                 8.015229982413632E+04,      /* I =  1 */
(PID.TID 0000.0001)                 1.333130744933864E+05,      /* I =  2 */
(PID.TID 0000.0001)                 1.691744868129062E+05,      /* I =  3 */
(PID.TID 0000.0001)      . . .
(PID.TID 0000.0001)                 1.937548202849060E+05,      /* I = 94 */
(PID.TID 0000.0001)                 1.691744868129062E+05,      /* I = 95 */
(PID.TID 0000.0001)                 1.333130744933864E+05,      /* I = 96 */
(PID.TID 0000.0001)                 3.013686170436881E+05,      /* I = 97 */
(PID.TID 0000.0001)                 3.015922136961168E+05,      /* I = 98 */
(PID.TID 0000.0001)                 3.022533948177109E+05,      /* I = 99 */
(PID.TID 0000.0001)      . . .
(PID.TID 0000.0001)                 3.033238888442880E+05,      /* I =190 */
(PID.TID 0000.0001)                 3.022533948177109E+05,      /* I =191 */
(PID.TID 0000.0001)                 3.015922136961168E+05,      /* I =192 */
(PID.TID 0000.0001)                 8.015229982413632E+04,      /* I =193 */
(PID.TID 0000.0001)                 1.333130744933864E+05,      /* I =194 */
(PID.TID 0000.0001)                 1.691744868129062E+05,      /* I =195 */
(PID.TID 0000.0001)      . . .
(PID.TID 0000.0001)                 1.937548202849060E+05,      /* I =286 */
(PID.TID 0000.0001)                 1.691744868129062E+05,      /* I =287 */
(PID.TID 0000.0001)                 1.333130744933864E+05,      /* I =288 */
(PID.TID 0000.0001)                 3.013686170436881E+05,      /* I =289 */
(PID.TID 0000.0001)                 3.015922136961168E+05,      /* I =290 */
(PID.TID 0000.0001)                 3.022533948177109E+05,      /* I =291 */
(PID.TID 0000.0001)      . . .
(PID.TID 0000.0001)                 3.033238888442880E+05,      /* I =382 */
(PID.TID 0000.0001)                 3.022533948177109E+05,      /* I =383 */
(PID.TID 0000.0001)                 3.015922136961168E+05       /* I =384 */
(PID.TID 0000.0001)     ;
(PID.TID 0000.0001) dxV =  /* dxV(1,:,1,:) ( units: m ) */
(PID.TID 0000.0001)                 8.015229982413632E+04,      /* J =  1 */
(PID.TID 0000.0001)                 1.362652340208229E+05,      /* J =  2 */
(PID.TID 0000.0001)                 1.701080315742101E+05,      /* J =  3 */
(PID.TID 0000.0001)                 1.942331448101592E+05,      /* J =  4 */
(PID.TID 0000.0001)                 2.133486626971531E+05,      /* J =  5 */
(PID.TID 0000.0001)                 2.292584591272880E+05,      /* J =  6 */
(PID.TID 0000.0001)                 2.428369969078989E+05,      /* J =  7 */
(PID.TID 0000.0001)                 2.545652950875683E+05,      /* J =  8 */
(PID.TID 0000.0001)                 2.647274964828301E+05,      /* J =  9 */
(PID.TID 0000.0001)                 2.734980225206389E+05,      /* J = 10 */
(PID.TID 0000.0001)                 2.809856491525217E+05,      /* J = 11 */
(PID.TID 0000.0001)                 2.872580915202295E+05,      /* J = 12 */
(PID.TID 0000.0001)                 2.923567890694162E+05,      /* J = 13 */
(PID.TID 0000.0001)                 2.963063101754721E+05,      /* J = 14 */
(PID.TID 0000.0001)                 2.991205495886625E+05,      /* J = 15 */
(PID.TID 0000.0001)                 3.008068453676764E+05       /* J = 16 */
(PID.TID 0000.0001)     ;
(PID.TID 0000.0001) dyU =  /* dyU(:,1,:,1) ( units: m ) */
(PID.TID 0000.0001)                 8.015229982413632E+04,      /* I =  1 */
(PID.TID 0000.0001)                 1.362652340208229E+05,      /* I =  2 */
(PID.TID 0000.0001)                 1.701080315742101E+05,      /* I =  3 */
(PID.TID 0000.0001)      . . .
(PID.TID 0000.0001)                 1.942331448101592E+05,      /* I = 94 */
(PID.TID 0000.0001)                 1.701080315742101E+05,      /* I = 95 */
(PID.TID 0000.0001)                 1.362652340208229E+05,      /* I = 96 */
(PID.TID 0000.0001)                 3.013031486919771E+05,      /* I = 97 */
(PID.TID 0000.0001)                 3.015274890091515E+05,      /* I = 98 */
(PID.TID 0000.0001)                 3.021908563699420E+05,      /* I = 99 */
(PID.TID 0000.0001)      . . .
(PID.TID 0000.0001)                 3.032648502024415E+05,      /* I =190 */
(PID.TID 0000.0001)                 3.021908563699420E+05,      /* I =191 */
(PID.TID 0000.0001)                 3.015274890091515E+05,      /* I =192 */
(PID.TID 0000.0001)                 8.015229982413632E+04,      /* I =193 */
(PID.TID 0000.0001)                 1.362652340208229E+05,      /* I =194 */
(PID.TID 0000.0001)                 1.701080315742101E+05,      /* I =195 */
(PID.TID 0000.0001)      . . .
(PID.TID 0000.0001)                 1.942331448101592E+05,      /* I =286 */
(PID.TID 0000.0001)                 1.701080315742101E+05,      /* I =287 */
(PID.TID 0000.0001)                 1.362652340208229E+05,      /* I =288 */
(PID.TID 0000.0001)                 3.013031486919771E+05,      /* I =289 */
(PID.TID 0000.0001)                 3.015274890091515E+05,      /* I =290 */
(PID.TID 0000.0001)                 3.021908563699420E+05,      /* I =291 */
(PID.TID 0000.0001)      . . .
(PID.TID 0000.0001)                 3.032648502024415E+05,      /* I =382 */
(PID.TID 0000.0001)                 3.021908563699420E+05,      /* I =383 */
(PID.TID 0000.0001)                 3.015274890091515E+05       /* I =384 */
(PID.TID 0000.0001)     ;
(PID.TID 0000.0001) dyU =  /* dyU(1,:,1,:) ( units: m ) */
(PID.TID 0000.0001)                 8.015229982413632E+04,      /* J =  1 */
(PID.TID 0000.0001)                 1.333130744933864E+05,      /* J =  2 */
(PID.TID 0000.0001)                 1.691744868129062E+05,      /* J =  3 */
(PID.TID 0000.0001)                 1.937548202849060E+05,      /* J =  4 */
(PID.TID 0000.0001)                 2.130490056267208E+05,      /* J =  5 */
(PID.TID 0000.0001)                 2.290479919481738E+05,      /* J =  6 */
(PID.TID 0000.0001)                 2.426774358027003E+05,      /* J =  7 */
(PID.TID 0000.0001)                 2.544372984215561E+05,      /* J =  8 */
(PID.TID 0000.0001)                 2.646201463834826E+05,      /* J =  9 */
(PID.TID 0000.0001)                 2.734046499619031E+05,      /* J = 10 */
(PID.TID 0000.0001)                 2.809019351693761E+05,      /* J = 11 */
(PID.TID 0000.0001)                 2.871811105274442E+05,      /* J = 12 */
(PID.TID 0000.0001)                 2.922844849381675E+05,      /* J = 13 */
(PID.TID 0000.0001)                 2.962371870847826E+05,      /* J = 14 */
(PID.TID 0000.0001)                 2.990534755671296E+05,      /* J = 15 */
(PID.TID 0000.0001)                 3.007409169495504E+05       /* J = 16 */
(PID.TID 0000.0001)     ;
(PID.TID 0000.0001) rA  =  /* rA (:,1,:,1) ( units: m^2 ) */
(PID.TID 0000.0001)                 1.401900702255611E+10,      /* I =  1 */
(PID.TID 0000.0001)                 2.459906945574446E+10,      /* I =  2 */
(PID.TID 0000.0001)                 3.378518544307869E+10,      /* I =  3 */
(PID.TID 0000.0001)      . . .
(PID.TID 0000.0001)                 3.378518544304265E+10,      /* I = 94 */
(PID.TID 0000.0001)                 2.459906945574446E+10,      /* I = 95 */
(PID.TID 0000.0001)                 1.401900702259215E+10,      /* I = 96 */
(PID.TID 0000.0001)                 9.076111290422060E+10,      /* I = 97 */
(PID.TID 0000.0001)                 9.103111035233499E+10,      /* I = 98 */
(PID.TID 0000.0001)                 9.156064070993231E+10,      /* I = 99 */
(PID.TID 0000.0001)      . . .
(PID.TID 0000.0001)                 9.156064070993231E+10,      /* I =190 */
(PID.TID 0000.0001)                 9.103111035233499E+10,      /* I =191 */
(PID.TID 0000.0001)                 9.076111290418457E+10,      /* I =192 */
(PID.TID 0000.0001)                 1.401900702255611E+10,      /* I =193 */
(PID.TID 0000.0001)                 2.459906945574446E+10,      /* I =194 */
(PID.TID 0000.0001)                 3.378518544307869E+10,      /* I =195 */
(PID.TID 0000.0001)      . . .
(PID.TID 0000.0001)                 3.378518544304265E+10,      /* I =286 */
(PID.TID 0000.0001)                 2.459906945574446E+10,      /* I =287 */
(PID.TID 0000.0001)                 1.401900702259215E+10,      /* I =288 */
(PID.TID 0000.0001)                 9.076111290422060E+10,      /* I =289 */
(PID.TID 0000.0001)                 9.103111035233499E+10,      /* I =290 */
(PID.TID 0000.0001)                 9.156064070993231E+10,      /* I =291 */
(PID.TID 0000.0001)      . . .
(PID.TID 0000.0001)                 9.156064070993231E+10,      /* I =382 */
(PID.TID 0000.0001)                 9.103111035233499E+10,      /* I =383 */
(PID.TID 0000.0001)                 9.076111290418457E+10       /* I =384 */
(PID.TID 0000.0001)     ;
(PID.TID 0000.0001) rA  =  /* rA (1,:,1,:) ( units: m^2 ) */
(PID.TID 0000.0001)                 1.401900702255611E+10,      /* J =  1 */
(PID.TID 0000.0001)                 2.459906945574446E+10,      /* J =  2 */
(PID.TID 0000.0001)                 3.378518544307869E+10,      /* J =  3 */
(PID.TID 0000.0001)                 4.192037169898667E+10,      /* J =  4 */
(PID.TID 0000.0001)                 4.925938996118163E+10,      /* J =  5 */
(PID.TID 0000.0001)                 5.594154126607553E+10,      /* J =  6 */
(PID.TID 0000.0001)                 6.203683527776127E+10,      /* J =  7 */
(PID.TID 0000.0001)                 6.757541173817516E+10,      /* J =  8 */
(PID.TID 0000.0001)                 7.256353271748119E+10,      /* J =  9 */
(PID.TID 0000.0001)                 7.699293007098555E+10,      /* J = 10 */
(PID.TID 0000.0001)                 8.084683449728902E+10,      /* J = 11 */
(PID.TID 0000.0001)                 8.410423102799828E+10,      /* J = 12 */
(PID.TID 0000.0001)                 8.674306976737517E+10,      /* J = 13 */
(PID.TID 0000.0001)                 8.874277443041928E+10,      /* J = 14 */
(PID.TID 0000.0001)                 9.008620045350865E+10,      /* J = 15 */
(PID.TID 0000.0001)                 9.076111290418457E+10       /* J = 16 */
(PID.TID 0000.0001)     ;
(PID.TID 0000.0001) rAw =  /* rAw(:,1,:,1) ( units: m^2 ) */
(PID.TID 0000.0001)                 1.216690346714270E+10,      /* I =  1 */
(PID.TID 0000.0001)                 1.974052138506315E+10,      /* I =  2 */
(PID.TID 0000.0001)                 2.943712825252015E+10,      /* I =  3 */
(PID.TID 0000.0001)      . . .
(PID.TID 0000.0001)                 3.801790263325260E+10,      /* I = 94 */
(PID.TID 0000.0001)                 2.943712825251114E+10,      /* I = 95 */
(PID.TID 0000.0001)                 1.974052138509018E+10,      /* I = 96 */
(PID.TID 0000.0001)                 9.071447638299399E+10,      /* I = 97 */
(PID.TID 0000.0001)                 9.085012105610597E+10,      /* I = 98 */
(PID.TID 0000.0001)                 9.125179254955583E+10,      /* I = 99 */
(PID.TID 0000.0001)      . . .
(PID.TID 0000.0001)                 9.190392048045309E+10,      /* I =190 */
(PID.TID 0000.0001)                 9.125179254954683E+10,      /* I =191 */
(PID.TID 0000.0001)                 9.085012105606993E+10,      /* I =192 */
(PID.TID 0000.0001)                 1.216690346714270E+10,      /* I =193 */
(PID.TID 0000.0001)                 1.974052138506315E+10,      /* I =194 */
(PID.TID 0000.0001)                 2.943712825252015E+10,      /* I =195 */
(PID.TID 0000.0001)      . . .
(PID.TID 0000.0001)                 3.801790263325260E+10,      /* I =286 */
(PID.TID 0000.0001)                 2.943712825251114E+10,      /* I =287 */
(PID.TID 0000.0001)                 1.974052138509018E+10,      /* I =288 */
(PID.TID 0000.0001)                 9.071447638299399E+10,      /* I =289 */
(PID.TID 0000.0001)                 9.085012105610597E+10,      /* I =290 */
(PID.TID 0000.0001)                 9.125179254955583E+10,      /* I =291 */
(PID.TID 0000.0001)      . . .
(PID.TID 0000.0001)                 9.190392048045309E+10,      /* I =382 */
(PID.TID 0000.0001)                 9.125179254954683E+10,      /* I =383 */
(PID.TID 0000.0001)                 9.085012105606993E+10       /* I =384 */
(PID.TID 0000.0001)     ;
(PID.TID 0000.0001) rAw =  /* rAw(1,:,1,:) ( units: m^2 ) */
(PID.TID 0000.0001)                 1.216690346714270E+10,      /* J =  1 */
(PID.TID 0000.0001)                 2.390126200743558E+10,      /* J =  2 */
(PID.TID 0000.0001)                 3.341968103208270E+10,      /* J =  3 */
(PID.TID 0000.0001)                 4.168532893152940E+10,      /* J =  4 */
(PID.TID 0000.0001)                 4.909074590409593E+10,      /* J =  5 */
(PID.TID 0000.0001)                 5.581203765722643E+10,      /* J =  6 */
(PID.TID 0000.0001)                 6.193257577506788E+10,      /* J =  7 */
(PID.TID 0000.0001)                 6.748840226738273E+10,      /* J =  8 */
(PID.TID 0000.0001)                 7.248875782324815E+10,      /* J =  9 */
(PID.TID 0000.0001)                 7.692702995909871E+10,      /* J = 10 */
(PID.TID 0000.0001)                 8.078743937057304E+10,      /* J = 11 */
(PID.TID 0000.0001)                 8.404959656062837E+10,      /* J = 12 */
(PID.TID 0000.0001)                 8.669186205742538E+10,      /* J = 13 */
(PID.TID 0000.0001)                 8.869393350723613E+10,      /* J = 14 */
(PID.TID 0000.0001)                 9.003884657168852E+10,      /* J = 15 */
(PID.TID 0000.0001)                 9.071447638299399E+10       /* J = 16 */
(PID.TID 0000.0001)     ;
(PID.TID 0000.0001) rAs =  /* rAs(:,1,:,1) ( units: m^2 ) */
(PID.TID 0000.0001)                 1.216690346714270E+10,      /* I =  1 */
(PID.TID 0000.0001)                 2.390126200743558E+10,      /* I =  2 */
(PID.TID 0000.0001)                 3.341968103208270E+10,      /* I =  3 */
(PID.TID 0000.0001)      . . .
(PID.TID 0000.0001)                 3.341968103208270E+10,      /* I = 94 */
(PID.TID 0000.0001)                 2.390126200743558E+10,      /* I = 95 */
(PID.TID 0000.0001)                 1.216690346714270E+10,      /* I = 96 */
(PID.TID 0000.0001)                 9.083293515008307E+10,      /* I = 97 */
(PID.TID 0000.0001)                 9.110170898494536E+10,      /* I = 98 */
(PID.TID 0000.0001)                 9.162886297688426E+10,      /* I = 99 */
(PID.TID 0000.0001)      . . .
(PID.TID 0000.0001)                 9.162886297688426E+10,      /* I =190 */
(PID.TID 0000.0001)                 9.110170898494536E+10,      /* I =191 */
(PID.TID 0000.0001)                 9.083293515008307E+10,      /* I =192 */
(PID.TID 0000.0001)                 1.216690346714270E+10,      /* I =193 */
(PID.TID 0000.0001)                 2.390126200743558E+10,      /* I =194 */
(PID.TID 0000.0001)                 3.341968103208270E+10,      /* I =195 */
(PID.TID 0000.0001)      . . .
(PID.TID 0000.0001)                 3.341968103208270E+10,      /* I =286 */
(PID.TID 0000.0001)                 2.390126200743558E+10,      /* I =287 */
(PID.TID 0000.0001)                 1.216690346714270E+10,      /* I =288 */
(PID.TID 0000.0001)                 9.083293515008307E+10,      /* I =289 */
(PID.TID 0000.0001)                 9.110170898494536E+10,      /* I =290 */
(PID.TID 0000.0001)                 9.162886297688426E+10,      /* I =291 */
(PID.TID 0000.0001)      . . .
(PID.TID 0000.0001)                 9.162886297688426E+10,      /* I =382 */
(PID.TID 0000.0001)                 9.110170898494536E+10,      /* I =383 */
(PID.TID 0000.0001)                 9.083293515008307E+10       /* I =384 */
(PID.TID 0000.0001)     ;
(PID.TID 0000.0001) rAs =  /* rAs(1,:,1,:) ( units: m^2 ) */
(PID.TID 0000.0001)                 1.216690346714270E+10,      /* J =  1 */
(PID.TID 0000.0001)                 1.974052138506315E+10,      /* J =  2 */
(PID.TID 0000.0001)                 2.943712825252015E+10,      /* J =  3 */
(PID.TID 0000.0001)                 3.801790263324359E+10,      /* J =  4 */
(PID.TID 0000.0001)                 4.571243814189866E+10,      /* J =  5 */
(PID.TID 0000.0001)                 5.269930713599979E+10,      /* J =  6 */
(PID.TID 0000.0001)                 5.907428494299063E+10,      /* J =  7 */
(PID.TID 0000.0001)                 6.488320895111514E+10,      /* J =  8 */
(PID.TID 0000.0001)                 7.014205907741882E+10,      /* J =  9 */
(PID.TID 0000.0001)                 7.484854821847499E+10,      /* J = 10 */
(PID.TID 0000.0001)                 7.898934631431560E+10,      /* J = 11 */
(PID.TID 0000.0001)                 8.254500894894537E+10,      /* J = 12 */
(PID.TID 0000.0001)                 8.549360686473492E+10,      /* J = 13 */
(PID.TID 0000.0001)                 8.781353403175085E+10,      /* J = 14 */
(PID.TID 0000.0001)                 8.948571540392021E+10,      /* J = 15 */
(PID.TID 0000.0001)                 9.049530583086168E+10       /* J = 16 */
(PID.TID 0000.0001)     ;
(PID.TID 0000.0001) globalArea = /* Integrated horizontal Area (m^2) */
(PID.TID 0000.0001)                 3.638867375081599E+14
(PID.TID 0000.0001)     ;
(PID.TID 0000.0001) // =======================================================
(PID.TID 0000.0001) // End of Model config. summary
(PID.TID 0000.0001) // =======================================================
(PID.TID 0000.0001) 
(PID.TID 0000.0001) == Packages configuration : Check & print summary ==
(PID.TID 0000.0001) 
(PID.TID 0000.0001) GAD_CHECK: #define ALLOW_GENERIC_ADVDIFF
(PID.TID 0000.0001) GMREDI_CHECK: #define GMREDI
(PID.TID 0000.0001) GM_AdvForm =     /* if FALSE => use SkewFlux Form */
(PID.TID 0000.0001)                   F
(PID.TID 0000.0001)     ;
(PID.TID 0000.0001) GM_InMomAsStress = /* if TRUE => apply as Eddy Stress */
(PID.TID 0000.0001)                   F
(PID.TID 0000.0001)     ;
(PID.TID 0000.0001) GM_AdvSeparate = /* Calc Bolus & Euler Adv. separately */
(PID.TID 0000.0001)                   F
(PID.TID 0000.0001)     ;
(PID.TID 0000.0001) GM_ExtraDiag =   /* Tensor Extra Diag (line 1&2) non 0 */
(PID.TID 0000.0001)                   F
(PID.TID 0000.0001)     ;
(PID.TID 0000.0001) GM_isopycK =    /* Background Isopyc. Diffusivity [m^2/s] */
(PID.TID 0000.0001)                 8.000000000000000E+02
(PID.TID 0000.0001)     ;
(PID.TID 0000.0001) GM_skewflx*K =  /* Background GM_SkewFlx Diffusivity [m^2/s] */
(PID.TID 0000.0001)                 8.000000000000000E+02
(PID.TID 0000.0001)     ;
(PID.TID 0000.0001) GM_advec*K =    /* Backg. GM-Advec(=Bolus) Diffusivity [m^2/s]*/
(PID.TID 0000.0001)                 0.000000000000000E+00
(PID.TID 0000.0001)     ;
(PID.TID 0000.0001) GM_Kmin_horiz = /* Minimum Horizontal Diffusivity [m^2/s] */
(PID.TID 0000.0001)                 0.000000000000000E+00
(PID.TID 0000.0001)     ;
(PID.TID 0000.0001) GM_Visbeck_alpha = /* Visbeck alpha coeff. [-] */
(PID.TID 0000.0001)                 0.000000000000000E+00
(PID.TID 0000.0001)     ;
(PID.TID 0000.0001) GM_Small_Number =  /* epsilon used in slope calc */
(PID.TID 0000.0001)                 9.999999999999999E-21
(PID.TID 0000.0001)     ;
(PID.TID 0000.0001) GM_slopeSqCutoff = /* Slope^2 cut-off value */
(PID.TID 0000.0001)                 1.000000000000000E+48
(PID.TID 0000.0001)     ;
(PID.TID 0000.0001) GM_taper_scheme =  /* Type of Tapering/Clipping scheme */
(PID.TID 0000.0001)               'gkw91                                   '
(PID.TID 0000.0001)     ;
(PID.TID 0000.0001) GM_maxSlope =  /* Maximum Slope (Tapering/Clipping) */
(PID.TID 0000.0001)                 1.000000000000000E-02
(PID.TID 0000.0001)     ;
(PID.TID 0000.0001) GM_facTrL2dz = /* Minimum Trans.Layer Thick. (factor of dz) */
(PID.TID 0000.0001)                 1.000000000000000E+00
(PID.TID 0000.0001)     ;
(PID.TID 0000.0001) GM_facTrL2ML = /* Max.Trans.Layer Thick. (factor of MxL Depth)*/
(PID.TID 0000.0001)                 5.000000000000000E+00
(PID.TID 0000.0001)     ;
(PID.TID 0000.0001) GM_maxTransLay = /* Maximum Transition Layer Thickness [m] */
(PID.TID 0000.0001)                 5.000000000000000E+02
(PID.TID 0000.0001)     ;
(PID.TID 0000.0001) // =======================================================
(PID.TID 0000.0001) // CONFIG_CHECK : Normal End
(PID.TID 0000.0001) // =======================================================
(PID.TID 0000.0001) 
(PID.TID 0000.0001)  MDS_READ_META: opening file: pickup.0000086400.meta
(PID.TID 0000.0001)  nRecords =   0 ; filePrec =  64 ; fileIter =         0
(PID.TID 0000.0001)     nDims =   0 , dims:
(PID.TID 0000.0001)     nFlds =   0 , nFl3D =   0 , fields:
(PID.TID 0000.0001)   nTimRec =   0 , timeList:
(PID.TID 0000.0001)  MDS_READ_FIELD: opening global file: pickup.0000086400
(PID.TID 0000.0001)  MDS_READ_FIELD: opening global file: pickup.0000086400
(PID.TID 0000.0001)  MDS_READ_FIELD: opening global file: pickup.0000086400
(PID.TID 0000.0001)  MDS_READ_FIELD: opening global file: pickup.0000086400
(PID.TID 0000.0001)  MDS_READ_FIELD: opening global file: pickup.0000086400
(PID.TID 0000.0001)  MDS_READ_FIELD: opening global file: pickup.0000086400
(PID.TID 0000.0001)  MDS_READ_FIELD: opening global file: pickup.0000086400
(PID.TID 0000.0001)  MDS_READ_FIELD: opening global file: pickup.0000086400
(PID.TID 0000.0001)  MDS_READ_FIELD: opening global file: pickup.0000086400
(PID.TID 0000.0001)  MDS_READ_FIELD: opening global file: pickup.0000086400
(PID.TID 0000.0001)  MDS_READ_FIELD: opening global file: pickup_nh.0000086400
(PID.TID 0000.0001)  MDS_READ_FIELD: opening global file: pickup_nh.0000086400
(PID.TID 0000.0001) READ_MFLDS_CHECK: - normal end ; reset MFLDS file-name: pickup.0000086400
(PID.TID 0000.0001)  MDS_READ_FIELD: opening global file: trenberth_taux.bin
(PID.TID 0000.0001)  MDS_READ_FIELD: opening global file: trenberth_tauy.bin
(PID.TID 0000.0001)  MDS_READ_FIELD: opening global file: shiQnet_cs32.bin
(PID.TID 0000.0001)  MDS_READ_FIELD: opening global file: shiEmPR_cs32.bin
(PID.TID 0000.0001)  MDS_READ_FIELD: opening global file: lev_surfT_cs_12m.bin
(PID.TID 0000.0001)  MDS_READ_FIELD: opening global file: lev_surfS_cs_12m.bin
(PID.TID 0000.0001) // =======================================================
(PID.TID 0000.0001) // Model current state
(PID.TID 0000.0001) // =======================================================
(PID.TID 0000.0001) 
(PID.TID 0000.0001) // =======================================================
(PID.TID 0000.0001) // Begin MONITOR dynamic field statistics
(PID.TID 0000.0001) // =======================================================
(PID.TID 0000.0001) %MON time_tsnumber                =                 86400
(PID.TID 0000.0001) %MON time_secondsf                =   3.1104000000000E+08
(PID.TID 0000.0001) %MON dynstat_eta_max              =   9.2249308874653E-01
(PID.TID 0000.0001) %MON dynstat_eta_min              =  -1.6181619580030E+00
(PID.TID 0000.0001) %MON dynstat_eta_mean             =   1.4386344596806E-14
(PID.TID 0000.0001) %MON dynstat_eta_sd               =   5.9907976973986E-01
(PID.TID 0000.0001) %MON dynstat_eta_del2             =   1.1252664732722E-02
(PID.TID 0000.0001) %MON dynstat_uvel_max             =   1.8639442347386E-01
(PID.TID 0000.0001) %MON dynstat_uvel_min             =  -2.8803502100767E-01
(PID.TID 0000.0001) %MON dynstat_uvel_mean            =  -4.8903388680748E-04
(PID.TID 0000.0001) %MON dynstat_uvel_sd              =   1.2021590711450E-02
(PID.TID 0000.0001) %MON dynstat_uvel_del2            =   1.5675476577319E-03
(PID.TID 0000.0001) %MON dynstat_vvel_max             =   1.7346247050018E-01
(PID.TID 0000.0001) %MON dynstat_vvel_min             =  -2.2519444280963E-01
(PID.TID 0000.0001) %MON dynstat_vvel_mean            =  -4.0382876392900E-04
(PID.TID 0000.0001) %MON dynstat_vvel_sd              =   1.2638279102880E-02
(PID.TID 0000.0001) %MON dynstat_vvel_del2            =   1.5945023955724E-03
(PID.TID 0000.0001) %MON dynstat_wvel_max             =   1.0318718393244E-04
(PID.TID 0000.0001) %MON dynstat_wvel_min             =  -2.0420736500850E-04
(PID.TID 0000.0001) %MON dynstat_wvel_mean            =  -7.5426404424407E-23
(PID.TID 0000.0001) %MON dynstat_wvel_sd              =   3.8381177925063E-06
(PID.TID 0000.0001) %MON dynstat_wvel_del2            =   8.3920091540915E-07
(PID.TID 0000.0001) %MON dynstat_theta_max            =   3.0925958904704E+01
(PID.TID 0000.0001) %MON dynstat_theta_min            =  -3.0175293673864E+00
(PID.TID 0000.0001) %MON dynstat_theta_mean           =   3.9089031544422E+00
(PID.TID 0000.0001) %MON dynstat_theta_sd             =   4.5708543369188E+00
(PID.TID 0000.0001) %MON dynstat_theta_del2           =   8.7682322220499E-02
(PID.TID 0000.0001) %MON dynstat_salt_max             =   4.1386265990462E+01
(PID.TID 0000.0001) %MON dynstat_salt_min             =   1.8383410676806E+01
(PID.TID 0000.0001) %MON dynstat_salt_mean            =   3.4772067306802E+01
(PID.TID 0000.0001) %MON dynstat_salt_sd              =   5.3152106676595E-01
(PID.TID 0000.0001) %MON dynstat_salt_del2            =   1.8670410580355E-02
(PID.TID 0000.0001) %MON extforcing_qnet_max          =   4.6211611868841E+02
(PID.TID 0000.0001) %MON extforcing_qnet_min          =  -2.0410376912710E+02
(PID.TID 0000.0001) %MON extforcing_qnet_mean         =  -1.2329247921290E+01
(PID.TID 0000.0001) %MON extforcing_qnet_sd           =   1.1327998988989E+02
(PID.TID 0000.0001) %MON extforcing_qnet_del2         =   5.3775063971043E+00
(PID.TID 0000.0001) %MON extforcing_qsw_max           =   0.0000000000000E+00
(PID.TID 0000.0001) %MON extforcing_qsw_min           =   0.0000000000000E+00
(PID.TID 0000.0001) %MON extforcing_qsw_mean          =   0.0000000000000E+00
(PID.TID 0000.0001) %MON extforcing_qsw_sd            =   0.0000000000000E+00
(PID.TID 0000.0001) %MON extforcing_qsw_del2          =   0.0000000000000E+00
(PID.TID 0000.0001) %MON extforcing_empmr_max         =   7.6494447208479E-05
(PID.TID 0000.0001) %MON extforcing_empmr_min         =  -1.5362614137596E-04
(PID.TID 0000.0001) %MON extforcing_empmr_mean        =  -2.7256318706594E-21
(PID.TID 0000.0001) %MON extforcing_empmr_sd          =   2.4051723601802E-05
(PID.TID 0000.0001) %MON extforcing_empmr_del2        =   1.2835223797615E-06
(PID.TID 0000.0001) %MON advcfl_uvel_max              =   3.4038414834914E-03
(PID.TID 0000.0001) %MON advcfl_vvel_max              =   3.1504102964412E-03
(PID.TID 0000.0001) %MON advcfl_wvel_max              =   2.7741377887947E-03
(PID.TID 0000.0001) %MON advcfl_W_hf_max              =   3.0631104751275E-03
(PID.TID 0000.0001) %MON pe_b_mean                    =   4.7811655460464E-04
(PID.TID 0000.0001) %MON ke_max                       =   4.0700605717495E-02
(PID.TID 0000.0001) %MON ke_mean                      =   1.4067955783282E-04
(PID.TID 0000.0001) %MON ke_vol                       =   1.3398024453628E+18
(PID.TID 0000.0001) %MON vort_r_min                   =  -1.1843904755479E-06
(PID.TID 0000.0001) %MON vort_r_max                   =   1.2148454936551E-06
(PID.TID 0000.0001) %MON vort_a_mean                  =  -2.0549865324846E-05
(PID.TID 0000.0001) %MON vort_a_sd                    =   7.5259517155846E-05
(PID.TID 0000.0001) %MON vort_p_mean                  =  -2.4783522345032E-05
(PID.TID 0000.0001) %MON vort_p_sd                    =   1.2810664012454E-04
(PID.TID 0000.0001) %MON surfExpan_theta_mean         =   3.7930044391615E-08
(PID.TID 0000.0001) %MON surfExpan_salt_mean          =   1.4579525088720E-08
(PID.TID 0000.0001) // =======================================================
(PID.TID 0000.0001) // End MONITOR dynamic field statistics
(PID.TID 0000.0001) // =======================================================
S/R EXTERNAL_FIELDS_LOAD: Reading new data:   12    1     86400  3.110400000000E+08
(PID.TID 0000.0001)  MDS_READ_FIELD: opening global file: trenberth_taux.bin
(PID.TID 0000.0001)  MDS_READ_FIELD: opening global file: trenberth_taux.bin
(PID.TID 0000.0001)  MDS_READ_FIELD: opening global file: trenberth_tauy.bin
(PID.TID 0000.0001)  MDS_READ_FIELD: opening global file: trenberth_tauy.bin
(PID.TID 0000.0001)  MDS_READ_FIELD: opening global file: shiQnet_cs32.bin
(PID.TID 0000.0001)  MDS_READ_FIELD: opening global file: shiQnet_cs32.bin
(PID.TID 0000.0001)  MDS_READ_FIELD: opening global file: shiEmPR_cs32.bin
(PID.TID 0000.0001)  MDS_READ_FIELD: opening global file: shiEmPR_cs32.bin
(PID.TID 0000.0001)  MDS_READ_FIELD: opening global file: lev_surfT_cs_12m.bin
(PID.TID 0000.0001)  MDS_READ_FIELD: opening global file: lev_surfT_cs_12m.bin
(PID.TID 0000.0001)  MDS_READ_FIELD: opening global file: lev_surfS_cs_12m.bin
(PID.TID 0000.0001)  MDS_READ_FIELD: opening global file: lev_surfS_cs_12m.bin
 cg2d: Sum(rhs),rhsMax =  -7.70796759752557E-11  4.20458819652996E+00
(PID.TID 0000.0001)                    cg2d_init_res =    2.66458926834617E-01
(PID.TID 0000.0001)                       cg2d_iters =    29
(PID.TID 0000.0001)                         cg2d_res =    1.78837351364007E-07
 cg3d: Sum(rhs),rhsMax =  -9.97486644010222E-10  1.87733531737919E-03
(PID.TID 0000.0001)                    cg3d_init_res =    1.88873993972018E+01
(PID.TID 0000.0001)                       cg3d_iters =    47
(PID.TID 0000.0001)                         cg3d_res =    7.14723560918225E-10
(PID.TID 0000.0001) // =======================================================
(PID.TID 0000.0001) // Begin MONITOR dynamic field statistics
(PID.TID 0000.0001) // =======================================================
(PID.TID 0000.0001) %MON time_tsnumber                =                 86401
(PID.TID 0000.0001) %MON time_secondsf                =   3.1104360000000E+08
(PID.TID 0000.0001) %MON dynstat_eta_max              =   9.2225060211642E-01
(PID.TID 0000.0001) %MON dynstat_eta_min              =  -1.6181236010836E+00
(PID.TID 0000.0001) %MON dynstat_eta_mean             =   1.4413825675310E-14
(PID.TID 0000.0001) %MON dynstat_eta_sd               =   5.9906171523137E-01
(PID.TID 0000.0001) %MON dynstat_eta_del2             =   1.1237376399296E-02
(PID.TID 0000.0001) %MON dynstat_uvel_max             =   1.8551924341329E-01
(PID.TID 0000.0001) %MON dynstat_uvel_min             =  -2.8727738298614E-01
(PID.TID 0000.0001) %MON dynstat_uvel_mean            =  -4.8931074825134E-04
(PID.TID 0000.0001) %MON dynstat_uvel_sd              =   1.2062151667521E-02
(PID.TID 0000.0001) %MON dynstat_uvel_del2            =   1.6123172227131E-03
(PID.TID 0000.0001) %MON dynstat_vvel_max             =   1.7727898909501E-01
(PID.TID 0000.0001) %MON dynstat_vvel_min             =  -2.2420722091426E-01
(PID.TID 0000.0001) %MON dynstat_vvel_mean            =  -3.9518314905630E-04
(PID.TID 0000.0001) %MON dynstat_vvel_sd              =   1.2667026845568E-02
(PID.TID 0000.0001) %MON dynstat_vvel_del2            =   1.6367384983678E-03
(PID.TID 0000.0001) %MON dynstat_wvel_max             =   1.1259012044029E-04
(PID.TID 0000.0001) %MON dynstat_wvel_min             =  -2.1759076068241E-04
(PID.TID 0000.0001) %MON dynstat_wvel_mean            =   2.3208124438279E-22
(PID.TID 0000.0001) %MON dynstat_wvel_sd              =   3.9578625320250E-06
(PID.TID 0000.0001) %MON dynstat_wvel_del2            =   9.0498199336202E-07
(PID.TID 0000.0001) %MON dynstat_theta_max            =   3.0926565887860E+01
(PID.TID 0000.0001) %MON dynstat_theta_min            =  -3.0190415218357E+00
(PID.TID 0000.0001) %MON dynstat_theta_mean           =   3.9089092254363E+00
(PID.TID 0000.0001) %MON dynstat_theta_sd             =   4.5708512659408E+00
(PID.TID 0000.0001) %MON dynstat_theta_del2           =   8.7676289025507E-02
(PID.TID 0000.0001) %MON dynstat_salt_max             =   4.1386278335149E+01
(PID.TID 0000.0001) %MON dynstat_salt_min             =   1.8383422845011E+01
(PID.TID 0000.0001) %MON dynstat_salt_mean            =   3.4772067326101E+01
(PID.TID 0000.0001) %MON dynstat_salt_sd              =   5.3152099972510E-01
(PID.TID 0000.0001) %MON dynstat_salt_del2            =   1.8673968957989E-02
(PID.TID 0000.0001) %MON extforcing_qnet_max          =   4.5344826813507E+02
(PID.TID 0000.0001) %MON extforcing_qnet_min          =  -2.1502574251756E+02
(PID.TID 0000.0001) %MON extforcing_qnet_mean         =  -1.2145822391644E+01
(PID.TID 0000.0001) %MON extforcing_qnet_sd           =   1.1565376981455E+02
(PID.TID 0000.0001) %MON extforcing_qnet_del2         =   5.1057787979107E+00
(PID.TID 0000.0001) %MON extforcing_qsw_max           =   0.0000000000000E+00
(PID.TID 0000.0001) %MON extforcing_qsw_min           =   0.0000000000000E+00
(PID.TID 0000.0001) %MON extforcing_qsw_mean          =   0.0000000000000E+00
(PID.TID 0000.0001) %MON extforcing_qsw_sd            =   0.0000000000000E+00
(PID.TID 0000.0001) %MON extforcing_qsw_del2          =   0.0000000000000E+00
(PID.TID 0000.0001) %MON extforcing_empmr_max         =   7.6494447208479E-05
(PID.TID 0000.0001) %MON extforcing_empmr_min         =  -1.5362614137596E-04
(PID.TID 0000.0001) %MON extforcing_empmr_mean        =  -2.7256318706594E-21
(PID.TID 0000.0001) %MON extforcing_empmr_sd          =   2.4051723601802E-05
(PID.TID 0000.0001) %MON extforcing_empmr_del2        =   1.2835223797615E-06
(PID.TID 0000.0001) %MON advcfl_uvel_max              =   3.3948881287288E-03
(PID.TID 0000.0001) %MON advcfl_vvel_max              =   3.2197255750894E-03
(PID.TID 0000.0001) %MON advcfl_wvel_max              =   2.9559499564403E-03
(PID.TID 0000.0001) %MON advcfl_W_hf_max              =   3.2638614102361E-03
(PID.TID 0000.0001) %MON pe_b_mean                    =   4.7808773697547E-04
(PID.TID 0000.0001) %MON ke_max                       =   4.0377229548638E-02
(PID.TID 0000.0001) %MON ke_mean                      =   1.4146262631427E-04
(PID.TID 0000.0001) %MON ke_vol                       =   1.3398024453628E+18
(PID.TID 0000.0001) %MON vort_r_min                   =  -1.2460424033726E-06
(PID.TID 0000.0001) %MON vort_r_max                   =   1.2820766237594E-06
(PID.TID 0000.0001) %MON vort_a_mean                  =  -2.0549865324846E-05
(PID.TID 0000.0001) %MON vort_a_sd                    =   7.5259516567644E-05
(PID.TID 0000.0001) %MON vort_p_mean                  =  -2.4783522345032E-05
(PID.TID 0000.0001) %MON vort_p_sd                    =   1.2810658314045E-04
(PID.TID 0000.0001) %MON surfExpan_theta_mean         =  -6.6170179161164E-08
(PID.TID 0000.0001) %MON surfExpan_salt_mean          =   1.2322540807541E-08
(PID.TID 0000.0001) // =======================================================
(PID.TID 0000.0001) // End MONITOR dynamic field statistics
(PID.TID 0000.0001) // =======================================================
 cg2d: Sum(rhs),rhsMax =  -7.66249286243692E-11  4.21400649662358E+00
(PID.TID 0000.0001)                    cg2d_init_res =    1.71560776672489E-01
(PID.TID 0000.0001)                       cg2d_iters =    29
(PID.TID 0000.0001)                         cg2d_res =    1.74240089680903E-07
 cg3d: Sum(rhs),rhsMax =   2.91513155620455E-09  1.15496159669908E-03
(PID.TID 0000.0001)                    cg3d_init_res =    1.21875049907253E+01
(PID.TID 0000.0001)                       cg3d_iters =    57
(PID.TID 0000.0001)                         cg3d_res =    8.15253949034389E-10
(PID.TID 0000.0001) // =======================================================
(PID.TID 0000.0001) // Begin MONITOR dynamic field statistics
(PID.TID 0000.0001) // =======================================================
(PID.TID 0000.0001) %MON time_tsnumber                =                 86402
(PID.TID 0000.0001) %MON time_secondsf                =   3.1104720000000E+08
(PID.TID 0000.0001) %MON dynstat_eta_max              =   9.2225640159212E-01
(PID.TID 0000.0001) %MON dynstat_eta_min              =  -1.6173239590854E+00
(PID.TID 0000.0001) %MON dynstat_eta_mean             =   1.4317641900547E-14
(PID.TID 0000.0001) %MON dynstat_eta_sd               =   5.9890423508091E-01
(PID.TID 0000.0001) %MON dynstat_eta_del2             =   1.1251058234142E-02
(PID.TID 0000.0001) %MON dynstat_uvel_max             =   1.8482327748377E-01
(PID.TID 0000.0001) %MON dynstat_uvel_min             =  -2.8805182520461E-01
(PID.TID 0000.0001) %MON dynstat_uvel_mean            =  -4.8943445169681E-04
(PID.TID 0000.0001) %MON dynstat_uvel_sd              =   1.2091067419542E-02
(PID.TID 0000.0001) %MON dynstat_uvel_del2            =   1.6412294472360E-03
(PID.TID 0000.0001) %MON dynstat_vvel_max             =   1.7966062106511E-01
(PID.TID 0000.0001) %MON dynstat_vvel_min             =  -2.2487099662716E-01
(PID.TID 0000.0001) %MON dynstat_vvel_mean            =  -3.9471541536677E-04
(PID.TID 0000.0001) %MON dynstat_vvel_sd              =   1.2712491887312E-02
(PID.TID 0000.0001) %MON dynstat_vvel_del2            =   1.6637769317030E-03
(PID.TID 0000.0001) %MON dynstat_wvel_max             =   1.1994565209694E-04
(PID.TID 0000.0001) %MON dynstat_wvel_min             =  -2.2476074662069E-04
(PID.TID 0000.0001) %MON dynstat_wvel_mean            =   1.9726905772537E-22
(PID.TID 0000.0001) %MON dynstat_wvel_sd              =   4.0513250673739E-06
(PID.TID 0000.0001) %MON dynstat_wvel_del2            =   9.6605175163573E-07
(PID.TID 0000.0001) %MON dynstat_theta_max            =   3.0927213202019E+01
(PID.TID 0000.0001) %MON dynstat_theta_min            =  -3.0206597930083E+00
(PID.TID 0000.0001) %MON dynstat_theta_mean           =   3.9089121907272E+00
(PID.TID 0000.0001) %MON dynstat_theta_sd             =   4.5708528844246E+00
(PID.TID 0000.0001) %MON dynstat_theta_del2           =   8.7676417284592E-02
(PID.TID 0000.0001) %MON dynstat_salt_max             =   4.1386300916974E+01
(PID.TID 0000.0001) %MON dynstat_salt_min             =   1.8383434412037E+01
(PID.TID 0000.0001) %MON dynstat_salt_mean            =   3.4772067377684E+01
(PID.TID 0000.0001) %MON dynstat_salt_sd              =   5.3152099391119E-01
(PID.TID 0000.0001) %MON dynstat_salt_del2            =   1.8675069181893E-02
(PID.TID 0000.0001) %MON extforcing_qnet_max          =   4.5344433226140E+02
(PID.TID 0000.0001) %MON extforcing_qnet_min          =  -2.1498522776812E+02
(PID.TID 0000.0001) %MON extforcing_qnet_mean         =  -1.2146331907004E+01
(PID.TID 0000.0001) %MON extforcing_qnet_sd           =   1.1564509800226E+02
(PID.TID 0000.0001) %MON extforcing_qnet_del2         =   5.1059755219419E+00
(PID.TID 0000.0001) %MON extforcing_qsw_max           =   0.0000000000000E+00
(PID.TID 0000.0001) %MON extforcing_qsw_min           =   0.0000000000000E+00
(PID.TID 0000.0001) %MON extforcing_qsw_mean          =   0.0000000000000E+00
(PID.TID 0000.0001) %MON extforcing_qsw_sd            =   0.0000000000000E+00
(PID.TID 0000.0001) %MON extforcing_qsw_del2          =   0.0000000000000E+00
(PID.TID 0000.0001) %MON extforcing_empmr_max         =   7.6494447208479E-05
(PID.TID 0000.0001) %MON extforcing_empmr_min         =  -1.5362614137596E-04
(PID.TID 0000.0001) %MON extforcing_empmr_mean        =  -2.7256318706594E-21
(PID.TID 0000.0001) %MON extforcing_empmr_sd          =   2.4051723601802E-05
(PID.TID 0000.0001) %MON extforcing_empmr_del2        =   1.2835223797615E-06
(PID.TID 0000.0001) %MON advcfl_uvel_max              =   3.4040400663667E-03
(PID.TID 0000.0001) %MON advcfl_vvel_max              =   3.2629805677071E-03
(PID.TID 0000.0001) %MON advcfl_wvel_max              =   3.0533535389980E-03
(PID.TID 0000.0001) %MON advcfl_W_hf_max              =   3.3714111993103E-03
(PID.TID 0000.0001) %MON pe_b_mean                    =   4.7783641250962E-04
(PID.TID 0000.0001) %MON ke_max                       =   4.0518416035698E-02
(PID.TID 0000.0001) %MON ke_mean                      =   1.4231867615256E-04
(PID.TID 0000.0001) %MON ke_vol                       =   1.3398024453628E+18
(PID.TID 0000.0001) %MON vort_r_min                   =  -1.2892222686855E-06
(PID.TID 0000.0001) %MON vort_r_max                   =   1.3294816431046E-06
(PID.TID 0000.0001) %MON vort_a_mean                  =  -2.0549865324846E-05
(PID.TID 0000.0001) %MON vort_a_sd                    =   7.5259516764048E-05
(PID.TID 0000.0001) %MON vort_p_mean                  =  -2.4783522345033E-05
(PID.TID 0000.0001) %MON vort_p_sd                    =   1.2810655580417E-04
(PID.TID 0000.0001) %MON surfExpan_theta_mean         =  -3.5509761324904E-07
(PID.TID 0000.0001) %MON surfExpan_salt_mean          =  -8.5349411674005E-09
(PID.TID 0000.0001) // =======================================================
(PID.TID 0000.0001) // End MONITOR dynamic field statistics
(PID.TID 0000.0001) // =======================================================
 cg2d: Sum(rhs),rhsMax =  -7.79891706770286E-11  4.21608576685381E+00
(PID.TID 0000.0001)                    cg2d_init_res =    1.23792212822926E-01
(PID.TID 0000.0001)                       cg2d_iters =    29
(PID.TID 0000.0001)                         cg2d_res =    1.81378503544992E-07
 cg3d: Sum(rhs),rhsMax =   3.66280359882299E-09  1.16178851345236E-03
(PID.TID 0000.0001)                    cg3d_init_res =    7.96735353860657E-01
(PID.TID 0000.0001)                       cg3d_iters =    46
(PID.TID 0000.0001)                         cg3d_res =    8.24817716987385E-10
(PID.TID 0000.0001) // =======================================================
(PID.TID 0000.0001) // Begin MONITOR dynamic field statistics
(PID.TID 0000.0001) // =======================================================
(PID.TID 0000.0001) %MON time_tsnumber                =                 86403
(PID.TID 0000.0001) %MON time_secondsf                =   3.1105080000000E+08
(PID.TID 0000.0001) %MON dynstat_eta_max              =   9.2233156995485E-01
(PID.TID 0000.0001) %MON dynstat_eta_min              =  -1.6159315522994E+00
(PID.TID 0000.0001) %MON dynstat_eta_mean             =   1.4468787832318E-14
(PID.TID 0000.0001) %MON dynstat_eta_sd               =   5.9867512288209E-01
(PID.TID 0000.0001) %MON dynstat_eta_del2             =   1.1272933389211E-02
(PID.TID 0000.0001) %MON dynstat_uvel_max             =   1.8537771599441E-01
(PID.TID 0000.0001) %MON dynstat_uvel_min             =  -2.8879178132564E-01
(PID.TID 0000.0001) %MON dynstat_uvel_mean            =  -4.8922562562332E-04
(PID.TID 0000.0001) %MON dynstat_uvel_sd              =   1.2149152238194E-02
(PID.TID 0000.0001) %MON dynstat_uvel_del2            =   1.6689869332822E-03
(PID.TID 0000.0001) %MON dynstat_vvel_max             =   1.8108081637872E-01
(PID.TID 0000.0001) %MON dynstat_vvel_min             =  -2.2552587845459E-01
(PID.TID 0000.0001) %MON dynstat_vvel_mean            =  -3.9500297576225E-04
(PID.TID 0000.0001) %MON dynstat_vvel_sd              =   1.2781326517462E-02
(PID.TID 0000.0001) %MON dynstat_vvel_del2            =   1.6908793297690E-03
(PID.TID 0000.0001) %MON dynstat_wvel_max             =   1.2737235418898E-04
(PID.TID 0000.0001) %MON dynstat_wvel_min             =  -2.3108219031475E-04
(PID.TID 0000.0001) %MON dynstat_wvel_mean            =   1.5665483995838E-22
(PID.TID 0000.0001) %MON dynstat_wvel_sd              =   4.1667442193121E-06
(PID.TID 0000.0001) %MON dynstat_wvel_del2            =   1.0415592390592E-06
(PID.TID 0000.0001) %MON dynstat_theta_max            =   3.0927867415737E+01
(PID.TID 0000.0001) %MON dynstat_theta_min            =  -3.0224599945816E+00
(PID.TID 0000.0001) %MON dynstat_theta_mean           =   3.9089151918348E+00
(PID.TID 0000.0001) %MON dynstat_theta_sd             =   4.5708545176109E+00
(PID.TID 0000.0001) %MON dynstat_theta_del2           =   8.7676613141990E-02
(PID.TID 0000.0001) %MON dynstat_salt_max             =   4.1386326737036E+01
(PID.TID 0000.0001) %MON dynstat_salt_min             =   1.8383445985508E+01
(PID.TID 0000.0001) %MON dynstat_salt_mean            =   3.4772067423560E+01
(PID.TID 0000.0001) %MON dynstat_salt_sd              =   5.3152100279004E-01
(PID.TID 0000.0001) %MON dynstat_salt_del2            =   1.8675933467087E-02
(PID.TID 0000.0001) %MON extforcing_qnet_max          =   4.5344039638774E+02
(PID.TID 0000.0001) %MON extforcing_qnet_min          =  -2.1494471301868E+02
(PID.TID 0000.0001) %MON extforcing_qnet_mean         =  -1.2146841422365E+01
(PID.TID 0000.0001) %MON extforcing_qnet_sd           =   1.1563643749311E+02
(PID.TID 0000.0001) %MON extforcing_qnet_del2         =   5.1061753627999E+00
(PID.TID 0000.0001) %MON extforcing_qsw_max           =   0.0000000000000E+00
(PID.TID 0000.0001) %MON extforcing_qsw_min           =   0.0000000000000E+00
(PID.TID 0000.0001) %MON extforcing_qsw_mean          =   0.0000000000000E+00
(PID.TID 0000.0001) %MON extforcing_qsw_sd            =   0.0000000000000E+00
(PID.TID 0000.0001) %MON extforcing_qsw_del2          =   0.0000000000000E+00
(PID.TID 0000.0001) %MON extforcing_empmr_max         =   7.6494447208479E-05
(PID.TID 0000.0001) %MON extforcing_empmr_min         =  -1.5362614137596E-04
(PID.TID 0000.0001) %MON extforcing_empmr_mean        =  -2.7256318706594E-21
(PID.TID 0000.0001) %MON extforcing_empmr_sd          =   2.4051723601802E-05
(PID.TID 0000.0001) %MON extforcing_empmr_del2        =   1.2835223797615E-06
(PID.TID 0000.0001) %MON advcfl_uvel_max              =   3.4127844660299E-03
(PID.TID 0000.0001) %MON advcfl_vvel_max              =   3.2887740314232E-03
(PID.TID 0000.0001) %MON advcfl_wvel_max              =   3.1392297552192E-03
(PID.TID 0000.0001) %MON advcfl_W_hf_max              =   3.4662328547212E-03
(PID.TID 0000.0001) %MON pe_b_mean                    =   4.7747088759202E-04
(PID.TID 0000.0001) %MON ke_max                       =   4.0651878975033E-02
(PID.TID 0000.0001) %MON ke_mean                      =   1.4377968766632E-04
(PID.TID 0000.0001) %MON ke_vol                       =   1.3398024453628E+18
(PID.TID 0000.0001) %MON vort_r_min                   =  -1.3290617589011E-06
(PID.TID 0000.0001) %MON vort_r_max                   =   1.3713260059371E-06
(PID.TID 0000.0001) %MON vort_a_mean                  =  -2.0549865324846E-05
(PID.TID 0000.0001) %MON vort_a_sd                    =   7.5259518441154E-05
(PID.TID 0000.0001) %MON vort_p_mean                  =  -2.4783522345032E-05
(PID.TID 0000.0001) %MON vort_p_sd                    =   1.2810654332966E-04
(PID.TID 0000.0001) %MON surfExpan_theta_mean         =  -4.8704914232214E-07
(PID.TID 0000.0001) %MON surfExpan_salt_mean          =  -1.2898125295763E-08
(PID.TID 0000.0001) // =======================================================
(PID.TID 0000.0001) // End MONITOR dynamic field statistics
(PID.TID 0000.0001) // =======================================================
 cg2d: Sum(rhs),rhsMax =  -7.54880602471530E-11  4.21816561179312E+00
(PID.TID 0000.0001)                    cg2d_init_res =    1.15201322536507E-01
(PID.TID 0000.0001)                       cg2d_iters =    29
(PID.TID 0000.0001)                         cg2d_res =    1.68719484391345E-07
 cg3d: Sum(rhs),rhsMax =   3.12126186561342E-09  1.16584542281214E-03
(PID.TID 0000.0001)                    cg3d_init_res =    7.26638852502590E-01
(PID.TID 0000.0001)                       cg3d_iters =    46
(PID.TID 0000.0001)                         cg3d_res =    7.65353508425938E-10
(PID.TID 0000.0001) // =======================================================
(PID.TID 0000.0001) // Begin MONITOR dynamic field statistics
(PID.TID 0000.0001) // =======================================================
(PID.TID 0000.0001) %MON time_tsnumber                =                 86404
(PID.TID 0000.0001) %MON time_secondsf                =   3.1105440000000E+08
(PID.TID 0000.0001) %MON dynstat_eta_max              =   9.2250274251181E-01
(PID.TID 0000.0001) %MON dynstat_eta_min              =  -1.6146489591913E+00
(PID.TID 0000.0001) %MON dynstat_eta_mean             =   1.4331382439798E-14
(PID.TID 0000.0001) %MON dynstat_eta_sd               =   5.9846113599251E-01
(PID.TID 0000.0001) %MON dynstat_eta_del2             =   1.1300842577976E-02
(PID.TID 0000.0001) %MON dynstat_uvel_max             =   1.8631815831700E-01
(PID.TID 0000.0001) %MON dynstat_uvel_min             =  -2.8950083152340E-01
(PID.TID 0000.0001) %MON dynstat_uvel_mean            =  -4.8834829196535E-04
(PID.TID 0000.0001) %MON dynstat_uvel_sd              =   1.2219661714400E-02
(PID.TID 0000.0001) %MON dynstat_uvel_del2            =   1.6964038307849E-03
(PID.TID 0000.0001) %MON dynstat_vvel_max             =   1.8173309267894E-01
(PID.TID 0000.0001) %MON dynstat_vvel_min             =  -2.2617046000752E-01
(PID.TID 0000.0001) %MON dynstat_vvel_mean            =  -3.9541164395190E-04
(PID.TID 0000.0001) %MON dynstat_vvel_sd              =   1.2856934501004E-02
(PID.TID 0000.0001) %MON dynstat_vvel_del2            =   1.7182449908364E-03
(PID.TID 0000.0001) %MON dynstat_wvel_max             =   1.3509564354609E-04
(PID.TID 0000.0001) %MON dynstat_wvel_min             =  -2.3677420201265E-04
(PID.TID 0000.0001) %MON dynstat_wvel_mean            =   7.5426404424407E-23
(PID.TID 0000.0001) %MON dynstat_wvel_sd              =   4.3082899081333E-06
(PID.TID 0000.0001) %MON dynstat_wvel_del2            =   1.1267674399050E-06
(PID.TID 0000.0001) %MON dynstat_theta_max            =   3.0928533881916E+01
(PID.TID 0000.0001) %MON dynstat_theta_min            =  -3.0243585311522E+00
(PID.TID 0000.0001) %MON dynstat_theta_mean           =   3.9089180714857E+00
(PID.TID 0000.0001) %MON dynstat_theta_sd             =   4.5708560189891E+00
(PID.TID 0000.0001) %MON dynstat_theta_del2           =   8.7678406804231E-02
(PID.TID 0000.0001) %MON dynstat_salt_max             =   4.1386356577870E+01
(PID.TID 0000.0001) %MON dynstat_salt_min             =   1.8383457805085E+01
(PID.TID 0000.0001) %MON dynstat_salt_mean            =   3.4772067455953E+01
(PID.TID 0000.0001) %MON dynstat_salt_sd              =   5.3152100083574E-01
(PID.TID 0000.0001) %MON dynstat_salt_del2            =   1.8676885673581E-02
(PID.TID 0000.0001) %MON extforcing_qnet_max          =   4.5343646051408E+02
(PID.TID 0000.0001) %MON extforcing_qnet_min          =  -2.1490419826924E+02
(PID.TID 0000.0001) %MON extforcing_qnet_mean         =  -1.2147350937725E+01
(PID.TID 0000.0001) %MON extforcing_qnet_sd           =   1.1562778828962E+02
(PID.TID 0000.0001) %MON extforcing_qnet_del2         =   5.1063781190663E+00
(PID.TID 0000.0001) %MON extforcing_qsw_max           =   0.0000000000000E+00
(PID.TID 0000.0001) %MON extforcing_qsw_min           =   0.0000000000000E+00
(PID.TID 0000.0001) %MON extforcing_qsw_mean          =   0.0000000000000E+00
(PID.TID 0000.0001) %MON extforcing_qsw_sd            =   0.0000000000000E+00
(PID.TID 0000.0001) %MON extforcing_qsw_del2          =   0.0000000000000E+00
(PID.TID 0000.0001) %MON extforcing_empmr_max         =   7.6494447208479E-05
(PID.TID 0000.0001) %MON extforcing_empmr_min         =  -1.5362614137596E-04
(PID.TID 0000.0001) %MON extforcing_empmr_mean        =  -2.7256318706594E-21
(PID.TID 0000.0001) %MON extforcing_empmr_sd          =   2.4051723601802E-05
(PID.TID 0000.0001) %MON extforcing_empmr_del2        =   1.2835223797615E-06
(PID.TID 0000.0001) %MON advcfl_uvel_max              =   3.4211636362731E-03
(PID.TID 0000.0001) %MON advcfl_vvel_max              =   3.3006206168340E-03
(PID.TID 0000.0001) %MON advcfl_wvel_max              =   3.2165551971530E-03
(PID.TID 0000.0001) %MON advcfl_W_hf_max              =   3.5516130301897E-03
(PID.TID 0000.0001) %MON pe_b_mean                    =   4.7712961986191E-04
(PID.TID 0000.0001) %MON ke_max                       =   4.0781110611034E-02
(PID.TID 0000.0001) %MON ke_mean                      =   1.4546817587226E-04
(PID.TID 0000.0001) %MON ke_vol                       =   1.3398024453628E+18
(PID.TID 0000.0001) %MON vort_r_min                   =  -1.3656047463245E-06
(PID.TID 0000.0001) %MON vort_r_max                   =   1.4096318195361E-06
(PID.TID 0000.0001) %MON vort_a_mean                  =  -2.0549865324846E-05
(PID.TID 0000.0001) %MON vort_a_sd                    =   7.5259520386473E-05
(PID.TID 0000.0001) %MON vort_p_mean                  =  -2.4783522345032E-05
(PID.TID 0000.0001) %MON vort_p_sd                    =   1.2810654003569E-04
(PID.TID 0000.0001) %MON surfExpan_theta_mean         =  -4.5873651688133E-07
(PID.TID 0000.0001) %MON surfExpan_salt_mean          =  -6.0378007512574E-09
(PID.TID 0000.0001) // =======================================================
(PID.TID 0000.0001) // End MONITOR dynamic field statistics
(PID.TID 0000.0001) // =======================================================
 cg2d: Sum(rhs),rhsMax =  -7.66249286243692E-11  4.22150180602391E+00
(PID.TID 0000.0001)                    cg2d_init_res =    1.12552420954913E-01
(PID.TID 0000.0001)                       cg2d_iters =    29
(PID.TID 0000.0001)                         cg2d_res =    1.61773256960589E-07
 cg3d: Sum(rhs),rhsMax =   1.57225887749402E-09  1.17469082407017E-03
(PID.TID 0000.0001)                    cg3d_init_res =    6.84777981347596E-01
(PID.TID 0000.0001)                       cg3d_iters =    46
(PID.TID 0000.0001)                         cg3d_res =    7.53958011453772E-10
(PID.TID 0000.0001) // =======================================================
(PID.TID 0000.0001) // Begin MONITOR dynamic field statistics
(PID.TID 0000.0001) // =======================================================
(PID.TID 0000.0001) %MON time_tsnumber                =                 86405
(PID.TID 0000.0001) %MON time_secondsf                =   3.1105800000000E+08
(PID.TID 0000.0001) %MON dynstat_eta_max              =   9.2284372951571E-01
(PID.TID 0000.0001) %MON dynstat_eta_min              =  -1.6138385713364E+00
(PID.TID 0000.0001) %MON dynstat_eta_mean             =   1.4413825675310E-14
(PID.TID 0000.0001) %MON dynstat_eta_sd               =   5.9831505773498E-01
(PID.TID 0000.0001) %MON dynstat_eta_del2             =   1.1332148428128E-02
(PID.TID 0000.0001) %MON dynstat_uvel_max             =   1.8900524997375E-01
(PID.TID 0000.0001) %MON dynstat_uvel_min             =  -2.9018428133213E-01
(PID.TID 0000.0001) %MON dynstat_uvel_mean            =  -4.8736116198303E-04
(PID.TID 0000.0001) %MON dynstat_uvel_sd              =   1.2293777108746E-02
(PID.TID 0000.0001) %MON dynstat_uvel_del2            =   1.7231681835585E-03
(PID.TID 0000.0001) %MON dynstat_vvel_max             =   1.8158155566662E-01
(PID.TID 0000.0001) %MON dynstat_vvel_min             =  -2.2680384850978E-01
(PID.TID 0000.0001) %MON dynstat_vvel_mean            =  -3.9524902730362E-04
(PID.TID 0000.0001) %MON dynstat_vvel_sd              =   1.2930292205462E-02
(PID.TID 0000.0001) %MON dynstat_vvel_del2            =   1.7458307466160E-03
(PID.TID 0000.0001) %MON dynstat_wvel_max             =   1.4281907969160E-04
(PID.TID 0000.0001) %MON dynstat_wvel_min             =  -2.4185311657236E-04
(PID.TID 0000.0001) %MON dynstat_wvel_mean            =  -8.7030466643546E-23
(PID.TID 0000.0001) %MON dynstat_wvel_sd              =   4.4739313204636E-06
(PID.TID 0000.0001) %MON dynstat_wvel_del2            =   1.2181564692971E-06
(PID.TID 0000.0001) %MON dynstat_theta_max            =   3.0929219915974E+01
(PID.TID 0000.0001) %MON dynstat_theta_min            =  -3.0263216482545E+00
(PID.TID 0000.0001) %MON dynstat_theta_mean           =   3.9089207619615E+00
(PID.TID 0000.0001) %MON dynstat_theta_sd             =   4.5708573612444E+00
(PID.TID 0000.0001) %MON dynstat_theta_del2           =   8.7678896238977E-02
(PID.TID 0000.0001) %MON dynstat_salt_max             =   4.1386391009682E+01
(PID.TID 0000.0001) %MON dynstat_salt_min             =   1.8383469811391E+01
(PID.TID 0000.0001) %MON dynstat_salt_mean            =   3.4772067471100E+01
(PID.TID 0000.0001) %MON dynstat_salt_sd              =   5.3152105364279E-01
(PID.TID 0000.0001) %MON dynstat_salt_del2            =   1.8677570563383E-02
(PID.TID 0000.0001) %MON extforcing_qnet_max          =   4.5343252464042E+02
(PID.TID 0000.0001) %MON extforcing_qnet_min          =  -2.1486368351980E+02
(PID.TID 0000.0001) %MON extforcing_qnet_mean         =  -1.2147860453085E+01
(PID.TID 0000.0001) %MON extforcing_qnet_sd           =   1.1561915039435E+02
(PID.TID 0000.0001) %MON extforcing_qnet_del2         =   5.1065889855816E+00
(PID.TID 0000.0001) %MON extforcing_qsw_max           =   0.0000000000000E+00
(PID.TID 0000.0001) %MON extforcing_qsw_min           =   0.0000000000000E+00
(PID.TID 0000.0001) %MON extforcing_qsw_mean          =   0.0000000000000E+00
(PID.TID 0000.0001) %MON extforcing_qsw_sd            =   0.0000000000000E+00
(PID.TID 0000.0001) %MON extforcing_qsw_del2          =   0.0000000000000E+00
(PID.TID 0000.0001) %MON extforcing_empmr_max         =   7.6494447208479E-05
(PID.TID 0000.0001) %MON extforcing_empmr_min         =  -1.5362614137596E-04
(PID.TID 0000.0001) %MON extforcing_empmr_mean        =  -2.7256318706594E-21
(PID.TID 0000.0001) %MON extforcing_empmr_sd          =   2.4051723601802E-05
(PID.TID 0000.0001) %MON extforcing_empmr_del2        =   1.2835223797615E-06
(PID.TID 0000.0001) %MON advcfl_uvel_max              =   3.4292402750190E-03
(PID.TID 0000.0001) %MON advcfl_vvel_max              =   3.2978684148013E-03
(PID.TID 0000.0001) %MON advcfl_wvel_max              =   3.2855517723038E-03
(PID.TID 0000.0001) %MON advcfl_W_hf_max              =   3.6277967485855E-03
(PID.TID 0000.0001) %MON pe_b_mean                    =   4.7689672334457E-04
(PID.TID 0000.0001) %MON ke_max                       =   4.0907739702940E-02
(PID.TID 0000.0001) %MON ke_mean                      =   1.4718002457586E-04
(PID.TID 0000.0001) %MON ke_vol                       =   1.3398024453628E+18
(PID.TID 0000.0001) %MON vort_r_min                   =  -1.3974495618826E-06
(PID.TID 0000.0001) %MON vort_r_max                   =   1.4424858974724E-06
(PID.TID 0000.0001) %MON vort_a_mean                  =  -2.0549865324846E-05
(PID.TID 0000.0001) %MON vort_a_sd                    =   7.5259521938601E-05
(PID.TID 0000.0001) %MON vort_p_mean                  =  -2.4783522345032E-05
(PID.TID 0000.0001) %MON vort_p_sd                    =   1.2810654164188E-04
(PID.TID 0000.0001) %MON surfExpan_theta_mean         =  -3.2797280408590E-07
(PID.TID 0000.0001) %MON surfExpan_salt_mean          =   7.4829648679362E-09
(PID.TID 0000.0001) // =======================================================
(PID.TID 0000.0001) // End MONITOR dynamic field statistics
(PID.TID 0000.0001) // =======================================================
 cg2d: Sum(rhs),rhsMax =  -7.73070496506989E-11  4.22552974310700E+00
(PID.TID 0000.0001)                    cg2d_init_res =    1.10586955587138E-01
(PID.TID 0000.0001)                       cg2d_iters =    29
(PID.TID 0000.0001)                         cg2d_res =    1.72866046462133E-07
 cg3d: Sum(rhs),rhsMax =   1.13399727189192E-09  1.18354905989183E-03
(PID.TID 0000.0001)                    cg3d_init_res =    6.65530412981948E-01
(PID.TID 0000.0001)                       cg3d_iters =    46
(PID.TID 0000.0001)                         cg3d_res =    7.49116043647507E-10
(PID.TID 0000.0001) // =======================================================
(PID.TID 0000.0001) // Begin MONITOR dynamic field statistics
(PID.TID 0000.0001) // =======================================================
(PID.TID 0000.0001) %MON time_tsnumber                =                 86406
(PID.TID 0000.0001) %MON time_secondsf                =   3.1106160000000E+08
(PID.TID 0000.0001) %MON dynstat_eta_max              =   9.2333340478980E-01
(PID.TID 0000.0001) %MON dynstat_eta_min              =  -1.6135395432888E+00
(PID.TID 0000.0001) %MON dynstat_eta_mean             =   1.4441306753814E-14
(PID.TID 0000.0001) %MON dynstat_eta_sd               =   5.9825381549980E-01
(PID.TID 0000.0001) %MON dynstat_eta_del2             =   1.1361982450408E-02
(PID.TID 0000.0001) %MON dynstat_uvel_max             =   1.9215025383327E-01
(PID.TID 0000.0001) %MON dynstat_uvel_min             =  -2.9084635297204E-01
(PID.TID 0000.0001) %MON dynstat_uvel_mean            =  -4.8701925063648E-04
(PID.TID 0000.0001) %MON dynstat_uvel_sd              =   1.2366151390817E-02
(PID.TID 0000.0001) %MON dynstat_uvel_del2            =   1.7494908703377E-03
(PID.TID 0000.0001) %MON dynstat_vvel_max             =   1.8064134637473E-01
(PID.TID 0000.0001) %MON dynstat_vvel_min             =  -2.2742587068469E-01
(PID.TID 0000.0001) %MON dynstat_vvel_mean            =  -3.9394715358345E-04
(PID.TID 0000.0001) %MON dynstat_vvel_sd              =   1.2996253160088E-02
(PID.TID 0000.0001) %MON dynstat_vvel_del2            =   1.7729738018230E-03
(PID.TID 0000.0001) %MON dynstat_wvel_max             =   1.5020487721933E-04
(PID.TID 0000.0001) %MON dynstat_wvel_min             =  -2.4643418324561E-04
(PID.TID 0000.0001) %MON dynstat_wvel_mean            =  -8.1228435533976E-23
(PID.TID 0000.0001) %MON dynstat_wvel_sd              =   4.6612191736749E-06
(PID.TID 0000.0001) %MON dynstat_wvel_del2            =   1.3136869323845E-06
(PID.TID 0000.0001) %MON dynstat_theta_max            =   3.0929923513220E+01
(PID.TID 0000.0001) %MON dynstat_theta_min            =  -3.0283332197128E+00
(PID.TID 0000.0001) %MON dynstat_theta_mean           =   3.9089232525102E+00
(PID.TID 0000.0001) %MON dynstat_theta_sd             =   4.5708584188689E+00
(PID.TID 0000.0001) %MON dynstat_theta_del2           =   8.7679023060398E-02
(PID.TID 0000.0001) %MON dynstat_salt_max             =   4.1386430303365E+01
(PID.TID 0000.0001) %MON dynstat_salt_min             =   1.8383481937231E+01
(PID.TID 0000.0001) %MON dynstat_salt_mean            =   3.4772067469344E+01
(PID.TID 0000.0001) %MON dynstat_salt_sd              =   5.3152112839202E-01
(PID.TID 0000.0001) %MON dynstat_salt_del2            =   1.8678199750923E-02
(PID.TID 0000.0001) %MON extforcing_qnet_max          =   4.5342858876675E+02
(PID.TID 0000.0001) %MON extforcing_qnet_min          =  -2.1482316877035E+02
(PID.TID 0000.0001) %MON extforcing_qnet_mean         =  -1.2148369968445E+01
(PID.TID 0000.0001) %MON extforcing_qnet_sd           =   1.1561052380983E+02
(PID.TID 0000.0001) %MON extforcing_qnet_del2         =   5.1068082599428E+00
(PID.TID 0000.0001) %MON extforcing_qsw_max           =   0.0000000000000E+00
(PID.TID 0000.0001) %MON extforcing_qsw_min           =   0.0000000000000E+00
(PID.TID 0000.0001) %MON extforcing_qsw_mean          =   0.0000000000000E+00
(PID.TID 0000.0001) %MON extforcing_qsw_sd            =   0.0000000000000E+00
(PID.TID 0000.0001) %MON extforcing_qsw_del2          =   0.0000000000000E+00
(PID.TID 0000.0001) %MON extforcing_empmr_max         =   7.6494447208479E-05
(PID.TID 0000.0001) %MON extforcing_empmr_min         =  -1.5362614137596E-04
(PID.TID 0000.0001) %MON extforcing_empmr_mean        =  -2.7256318706594E-21
(PID.TID 0000.0001) %MON extforcing_empmr_sd          =   2.4051723601802E-05
(PID.TID 0000.0001) %MON extforcing_empmr_del2        =   1.2835223797615E-06
(PID.TID 0000.0001) %MON advcfl_uvel_max              =   3.4370642781735E-03
(PID.TID 0000.0001) %MON advcfl_vvel_max              =   3.3967721500481E-03
(PID.TID 0000.0001) %MON advcfl_wvel_max              =   3.3477851308838E-03
(PID.TID 0000.0001) %MON advcfl_W_hf_max              =   3.6965127486842E-03
(PID.TID 0000.0001) %MON pe_b_mean                    =   4.7679910010689E-04
(PID.TID 0000.0001) %MON ke_max                       =   4.1032937274549E-02
(PID.TID 0000.0001) %MON ke_mean                      =   1.4879279554414E-04
(PID.TID 0000.0001) %MON ke_vol                       =   1.3398024453628E+18
(PID.TID 0000.0001) %MON vort_r_min                   =  -1.4235743490347E-06
(PID.TID 0000.0001) %MON vort_r_max                   =   1.4678516275762E-06
(PID.TID 0000.0001) %MON vort_a_mean                  =  -2.0549865324846E-05
(PID.TID 0000.0001) %MON vort_a_sd                    =   7.5259522823257E-05
(PID.TID 0000.0001) %MON vort_p_mean                  =  -2.4783522345032E-05
(PID.TID 0000.0001) %MON vort_p_sd                    =   1.2810654429427E-04
(PID.TID 0000.0001) %MON surfExpan_theta_mean         =  -1.5184141516103E-07
(PID.TID 0000.0001) %MON surfExpan_salt_mean          =   2.3346490795103E-08
(PID.TID 0000.0001) // =======================================================
(PID.TID 0000.0001) // End MONITOR dynamic field statistics
(PID.TID 0000.0001) // =======================================================
 cg2d: Sum(rhs),rhsMax =  -7.69659891375341E-11  4.22996976943249E+00
(PID.TID 0000.0001)                    cg2d_init_res =    1.08905767390428E-01
(PID.TID 0000.0001)                       cg2d_iters =    29
(PID.TID 0000.0001)                         cg2d_res =    1.87079117838078E-07
 cg3d: Sum(rhs),rhsMax =   1.29025663439688E-09  1.19241706167117E-03
(PID.TID 0000.0001)                    cg3d_init_res =    6.41047185365504E-01
(PID.TID 0000.0001)                       cg3d_iters =    46
(PID.TID 0000.0001)                         cg3d_res =    7.42646708273558E-10
(PID.TID 0000.0001) // =======================================================
(PID.TID 0000.0001) // Begin MONITOR dynamic field statistics
(PID.TID 0000.0001) // =======================================================
(PID.TID 0000.0001) %MON time_tsnumber                =                 86407
(PID.TID 0000.0001) %MON time_secondsf                =   3.1106520000000E+08
(PID.TID 0000.0001) %MON dynstat_eta_max              =   9.2389234257721E-01
(PID.TID 0000.0001) %MON dynstat_eta_min              =  -1.6136153208160E+00
(PID.TID 0000.0001) %MON dynstat_eta_mean             =   1.4386344596806E-14
(PID.TID 0000.0001) %MON dynstat_eta_sd               =   5.9826699685671E-01
(PID.TID 0000.0001) %MON dynstat_eta_del2             =   1.1387708214166E-02
(PID.TID 0000.0001) %MON dynstat_uvel_max             =   1.9499963616870E-01
(PID.TID 0000.0001) %MON dynstat_uvel_min             =  -2.9148857791026E-01
(PID.TID 0000.0001) %MON dynstat_uvel_mean            =  -4.8782328931843E-04
(PID.TID 0000.0001) %MON dynstat_uvel_sd              =   1.2432457567283E-02
(PID.TID 0000.0001) %MON dynstat_uvel_del2            =   1.7752210482806E-03
(PID.TID 0000.0001) %MON dynstat_vvel_max             =   1.8278832589363E-01
(PID.TID 0000.0001) %MON dynstat_vvel_min             =  -2.2803686677301E-01
(PID.TID 0000.0001) %MON dynstat_vvel_mean            =  -3.9144348522519E-04
(PID.TID 0000.0001) %MON dynstat_vvel_sd              =   1.3051452148930E-02
(PID.TID 0000.0001) %MON dynstat_vvel_del2            =   1.7993561022024E-03
(PID.TID 0000.0001) %MON dynstat_wvel_max             =   1.5697714409274E-04
(PID.TID 0000.0001) %MON dynstat_wvel_min             =  -2.5067653486478E-04
(PID.TID 0000.0001) %MON dynstat_wvel_mean            =   6.9624373314837E-23
(PID.TID 0000.0001) %MON dynstat_wvel_sd              =   4.8663519839822E-06
(PID.TID 0000.0001) %MON dynstat_wvel_del2            =   1.4117400098467E-06
(PID.TID 0000.0001) %MON dynstat_theta_max            =   3.0930639146863E+01
(PID.TID 0000.0001) %MON dynstat_theta_min            =  -3.0303826941889E+00
(PID.TID 0000.0001) %MON dynstat_theta_mean           =   3.9089255760232E+00
(PID.TID 0000.0001) %MON dynstat_theta_sd             =   4.5708591611677E+00
(PID.TID 0000.0001) %MON dynstat_theta_del2           =   8.7679354237303E-02
(PID.TID 0000.0001) %MON dynstat_salt_max             =   4.1386474507047E+01
(PID.TID 0000.0001) %MON dynstat_salt_min             =   1.8383494130596E+01
(PID.TID 0000.0001) %MON dynstat_salt_mean            =   3.4772067454867E+01
(PID.TID 0000.0001) %MON dynstat_salt_sd              =   5.3152122431526E-01
(PID.TID 0000.0001) %MON dynstat_salt_del2            =   1.8678822949116E-02
(PID.TID 0000.0001) %MON extforcing_qnet_max          =   4.5342465289309E+02
(PID.TID 0000.0001) %MON extforcing_qnet_min          =  -2.1478265402091E+02
(PID.TID 0000.0001) %MON extforcing_qnet_mean         =  -1.2148879483805E+01
(PID.TID 0000.0001) %MON extforcing_qnet_sd           =   1.1560190853859E+02
(PID.TID 0000.0001) %MON extforcing_qnet_del2         =   5.1070278480386E+00
(PID.TID 0000.0001) %MON extforcing_qsw_max           =   0.0000000000000E+00
(PID.TID 0000.0001) %MON extforcing_qsw_min           =   0.0000000000000E+00
(PID.TID 0000.0001) %MON extforcing_qsw_mean          =   0.0000000000000E+00
(PID.TID 0000.0001) %MON extforcing_qsw_sd            =   0.0000000000000E+00
(PID.TID 0000.0001) %MON extforcing_qsw_del2          =   0.0000000000000E+00
(PID.TID 0000.0001) %MON extforcing_empmr_max         =   7.6494447208479E-05
(PID.TID 0000.0001) %MON extforcing_empmr_min         =  -1.5362614137596E-04
(PID.TID 0000.0001) %MON extforcing_empmr_mean        =  -2.7256318706594E-21
(PID.TID 0000.0001) %MON extforcing_empmr_sd          =   2.4051723601802E-05
(PID.TID 0000.0001) %MON extforcing_empmr_del2        =   1.2835223797615E-06
(PID.TID 0000.0001) %MON advcfl_uvel_max              =   3.4446537437836E-03
(PID.TID 0000.0001) %MON advcfl_vvel_max              =   3.4836448121112E-03
(PID.TID 0000.0001) %MON advcfl_wvel_max              =   3.4054170774084E-03
(PID.TID 0000.0001) %MON advcfl_W_hf_max              =   3.7601480229717E-03
(PID.TID 0000.0001) %MON pe_b_mean                    =   4.7682011101626E-04
(PID.TID 0000.0001) %MON ke_max                       =   4.1157094230125E-02
(PID.TID 0000.0001) %MON ke_mean                      =   1.5021478810387E-04
(PID.TID 0000.0001) %MON ke_vol                       =   1.3398024453628E+18
(PID.TID 0000.0001) %MON vort_r_min                   =  -1.4434112907029E-06
(PID.TID 0000.0001) %MON vort_r_max                   =   1.4845150272034E-06
(PID.TID 0000.0001) %MON vort_a_mean                  =  -2.0549865324846E-05
(PID.TID 0000.0001) %MON vort_a_sd                    =   7.5259523017221E-05
(PID.TID 0000.0001) %MON vort_p_mean                  =  -2.4783522345032E-05
(PID.TID 0000.0001) %MON vort_p_sd                    =   1.2810654578907E-04
(PID.TID 0000.0001) %MON surfExpan_theta_mean         =   2.0717274777651E-08
(PID.TID 0000.0001) %MON surfExpan_salt_mean          =   3.7465802244478E-08
(PID.TID 0000.0001) // =======================================================
(PID.TID 0000.0001) // End MONITOR dynamic field statistics
(PID.TID 0000.0001) // =======================================================
 cg2d: Sum(rhs),rhsMax =  -7.68523022998124E-11  4.23455338626877E+00
(PID.TID 0000.0001)                    cg2d_init_res =    1.07652617270164E-01
(PID.TID 0000.0001)                       cg2d_iters =    30
(PID.TID 0000.0001)                         cg2d_res =    1.29237947084960E-07
 cg3d: Sum(rhs),rhsMax =   8.57454495210505E-10  1.20129103678545E-03
(PID.TID 0000.0001)                    cg3d_init_res =    6.11981102462463E-01
(PID.TID 0000.0001)                       cg3d_iters =    46
(PID.TID 0000.0001)                         cg3d_res =    7.33094413517212E-10
(PID.TID 0000.0001) // =======================================================
(PID.TID 0000.0001) // Begin MONITOR dynamic field statistics
(PID.TID 0000.0001) // =======================================================
(PID.TID 0000.0001) %MON time_tsnumber                =                 86408
(PID.TID 0000.0001) %MON time_secondsf                =   3.1106880000000E+08
(PID.TID 0000.0001) %MON dynstat_eta_max              =   9.2443657997105E-01
(PID.TID 0000.0001) %MON dynstat_eta_min              =  -1.6138658849588E+00
(PID.TID 0000.0001) %MON dynstat_eta_mean             =   1.4441306753814E-14
(PID.TID 0000.0001) %MON dynstat_eta_sd               =   5.9832811499089E-01
(PID.TID 0000.0001) %MON dynstat_eta_del2             =   1.1409292323025E-02
(PID.TID 0000.0001) %MON dynstat_uvel_max             =   1.9727051388257E-01
(PID.TID 0000.0001) %MON dynstat_uvel_min             =  -2.9211001554655E-01
(PID.TID 0000.0001) %MON dynstat_uvel_mean            =  -4.8987563089215E-04
(PID.TID 0000.0001) %MON dynstat_uvel_sd              =   1.2489573090764E-02
(PID.TID 0000.0001) %MON dynstat_uvel_del2            =   1.8014952194057E-03
(PID.TID 0000.0001) %MON dynstat_vvel_max             =   1.8643658895673E-01
(PID.TID 0000.0001) %MON dynstat_vvel_min             =  -2.2863756451091E-01
(PID.TID 0000.0001) %MON dynstat_vvel_mean            =  -3.8811323233484E-04
(PID.TID 0000.0001) %MON dynstat_vvel_sd              =   1.3094297553796E-02
(PID.TID 0000.0001) %MON dynstat_vvel_del2            =   1.8251505153934E-03
(PID.TID 0000.0001) %MON dynstat_wvel_max             =   1.6295102159255E-04
(PID.TID 0000.0001) %MON dynstat_wvel_min             =  -2.5473294132830E-04
(PID.TID 0000.0001) %MON dynstat_wvel_mean            =  -1.7986296439666E-22
(PID.TID 0000.0001) %MON dynstat_wvel_sd              =   5.0839233523036E-06
(PID.TID 0000.0001) %MON dynstat_wvel_del2            =   1.5101037164124E-06
(PID.TID 0000.0001) %MON dynstat_theta_max            =   3.0931361898561E+01
(PID.TID 0000.0001) %MON dynstat_theta_min            =  -3.0324599319265E+00
(PID.TID 0000.0001) %MON dynstat_theta_mean           =   3.9089277909334E+00
(PID.TID 0000.0001) %MON dynstat_theta_sd             =   4.5708596224328E+00
(PID.TID 0000.0001) %MON dynstat_theta_del2           =   8.7679618312509E-02
(PID.TID 0000.0001) %MON dynstat_salt_max             =   4.1386523508639E+01
(PID.TID 0000.0001) %MON dynstat_salt_min             =   1.8383506355610E+01
(PID.TID 0000.0001) %MON dynstat_salt_mean            =   3.4772067433917E+01
(PID.TID 0000.0001) %MON dynstat_salt_sd              =   5.3152133631191E-01
(PID.TID 0000.0001) %MON dynstat_salt_del2            =   1.8679303833062E-02
(PID.TID 0000.0001) %MON extforcing_qnet_max          =   4.5342071701943E+02
(PID.TID 0000.0001) %MON extforcing_qnet_min          =  -2.1474213927147E+02
(PID.TID 0000.0001) %MON extforcing_qnet_mean         =  -1.2149388999165E+01
(PID.TID 0000.0001) %MON extforcing_qnet_sd           =   1.1559330458315E+02
(PID.TID 0000.0001) %MON extforcing_qnet_del2         =   5.1072479281252E+00
(PID.TID 0000.0001) %MON extforcing_qsw_max           =   0.0000000000000E+00
(PID.TID 0000.0001) %MON extforcing_qsw_min           =   0.0000000000000E+00
(PID.TID 0000.0001) %MON extforcing_qsw_mean          =   0.0000000000000E+00
(PID.TID 0000.0001) %MON extforcing_qsw_sd            =   0.0000000000000E+00
(PID.TID 0000.0001) %MON extforcing_qsw_del2          =   0.0000000000000E+00
(PID.TID 0000.0001) %MON extforcing_empmr_max         =   7.6494447208479E-05
(PID.TID 0000.0001) %MON extforcing_empmr_min         =  -1.5362614137596E-04
(PID.TID 0000.0001) %MON extforcing_empmr_mean        =  -2.7256318706594E-21
(PID.TID 0000.0001) %MON extforcing_empmr_sd          =   2.4051723601802E-05
(PID.TID 0000.0001) %MON extforcing_empmr_del2        =   1.2835223797615E-06
(PID.TID 0000.0001) %MON advcfl_uvel_max              =   3.4519975563465E-03
(PID.TID 0000.0001) %MON advcfl_vvel_max              =   3.5529665890482E-03
(PID.TID 0000.0001) %MON advcfl_wvel_max              =   3.4605229765354E-03
(PID.TID 0000.0001) %MON advcfl_W_hf_max              =   3.8209941199245E-03
(PID.TID 0000.0001) %MON pe_b_mean                    =   4.7691753856700E-04
(PID.TID 0000.0001) %MON ke_max                       =   4.1279920861103E-02
(PID.TID 0000.0001) %MON ke_mean                      =   1.5138824983879E-04
(PID.TID 0000.0001) %MON ke_vol                       =   1.3398024453628E+18
(PID.TID 0000.0001) %MON vort_r_min                   =  -1.4568217059943E-06
(PID.TID 0000.0001) %MON vort_r_max                   =   1.4921832841380E-06
(PID.TID 0000.0001) %MON vort_a_mean                  =  -2.0549865324846E-05
(PID.TID 0000.0001) %MON vort_a_sd                    =   7.5259522668037E-05
(PID.TID 0000.0001) %MON vort_p_mean                  =  -2.4783522345032E-05
(PID.TID 0000.0001) %MON vort_p_sd                    =   1.2810654529077E-04
(PID.TID 0000.0001) %MON surfExpan_theta_mean         =   1.5492840750022E-07
(PID.TID 0000.0001) %MON surfExpan_salt_mean          =   4.6973369797803E-08
(PID.TID 0000.0001) // =======================================================
(PID.TID 0000.0001) // End MONITOR dynamic field statistics
(PID.TID 0000.0001) // =======================================================
 cg2d: Sum(rhs),rhsMax =  -7.74207364884205E-11  4.23904513730042E+00
(PID.TID 0000.0001)                    cg2d_init_res =    1.06673139194627E-01
(PID.TID 0000.0001)                       cg2d_iters =    30
(PID.TID 0000.0001)                         cg2d_res =    1.28507438776817E-07
 cg3d: Sum(rhs),rhsMax =   8.56219623793144E-10  1.21016709918259E-03
(PID.TID 0000.0001)                    cg3d_init_res =    5.88347219775354E-01
(PID.TID 0000.0001)                       cg3d_iters =    46
(PID.TID 0000.0001)                         cg3d_res =    7.22733337172212E-10
(PID.TID 0000.0001) // =======================================================
(PID.TID 0000.0001) // Begin MONITOR dynamic field statistics
(PID.TID 0000.0001) // =======================================================
(PID.TID 0000.0001) %MON time_tsnumber                =                 86409
(PID.TID 0000.0001) %MON time_secondsf                =   3.1107240000000E+08
(PID.TID 0000.0001) %MON dynstat_eta_max              =   9.2490080012930E-01
(PID.TID 0000.0001) %MON dynstat_eta_min              =  -1.6141131746295E+00
(PID.TID 0000.0001) %MON dynstat_eta_mean             =   1.4413825675310E-14
(PID.TID 0000.0001) %MON dynstat_eta_sd               =   5.9840634087647E-01
(PID.TID 0000.0001) %MON dynstat_eta_del2             =   1.1427622543777E-02
(PID.TID 0000.0001) %MON dynstat_uvel_max             =   1.9873073504833E-01
(PID.TID 0000.0001) %MON dynstat_uvel_min             =  -2.9270871042619E-01
(PID.TID 0000.0001) %MON dynstat_uvel_mean            =  -4.9294458313924E-04
(PID.TID 0000.0001) %MON dynstat_uvel_sd              =   1.2535913973486E-02
(PID.TID 0000.0001) %MON dynstat_uvel_del2            =   1.8282345666165E-03
(PID.TID 0000.0001) %MON dynstat_vvel_max             =   1.8937722154925E-01
(PID.TID 0000.0001) %MON dynstat_vvel_min             =  -2.2922902394228E-01
(PID.TID 0000.0001) %MON dynstat_vvel_mean            =  -3.8451810960909E-04
(PID.TID 0000.0001) %MON dynstat_vvel_sd              =   1.3125118253946E-02
(PID.TID 0000.0001) %MON dynstat_vvel_del2            =   1.8504067891462E-03
(PID.TID 0000.0001) %MON dynstat_wvel_max             =   1.6805481787021E-04
(PID.TID 0000.0001) %MON dynstat_wvel_min             =  -2.5871941117649E-04
(PID.TID 0000.0001) %MON dynstat_wvel_mean            =  -4.0614217766988E-22
(PID.TID 0000.0001) %MON dynstat_wvel_sd              =   5.3077249429672E-06
(PID.TID 0000.0001) %MON dynstat_wvel_del2            =   1.6069528664308E-06
(PID.TID 0000.0001) %MON dynstat_theta_max            =   3.0932088655581E+01
(PID.TID 0000.0001) %MON dynstat_theta_min            =  -3.0345547615086E+00
(PID.TID 0000.0001) %MON dynstat_theta_mean           =   3.9089299610102E+00
(PID.TID 0000.0001) %MON dynstat_theta_sd             =   4.5708598861135E+00
(PID.TID 0000.0001) %MON dynstat_theta_del2           =   8.7682725599268E-02
(PID.TID 0000.0001) %MON dynstat_salt_max             =   4.1386577108976E+01
(PID.TID 0000.0001) %MON dynstat_salt_min             =   1.8383518598477E+01
(PID.TID 0000.0001) %MON dynstat_salt_mean            =   3.4772067412739E+01
(PID.TID 0000.0001) %MON dynstat_salt_sd              =   5.3152145384810E-01
(PID.TID 0000.0001) %MON dynstat_salt_del2            =   1.8680912594014E-02
(PID.TID 0000.0001) %MON extforcing_qnet_max          =   4.5341678114577E+02
(PID.TID 0000.0001) %MON extforcing_qnet_min          =  -2.1470162452203E+02
(PID.TID 0000.0001) %MON extforcing_qnet_mean         =  -1.2149898514525E+01
(PID.TID 0000.0001) %MON extforcing_qnet_sd           =   1.1558471194605E+02
(PID.TID 0000.0001) %MON extforcing_qnet_del2         =   5.1074680082118E+00
(PID.TID 0000.0001) %MON extforcing_qsw_max           =   0.0000000000000E+00
(PID.TID 0000.0001) %MON extforcing_qsw_min           =   0.0000000000000E+00
(PID.TID 0000.0001) %MON extforcing_qsw_mean          =   0.0000000000000E+00
(PID.TID 0000.0001) %MON extforcing_qsw_sd            =   0.0000000000000E+00
(PID.TID 0000.0001) %MON extforcing_qsw_del2          =   0.0000000000000E+00
(PID.TID 0000.0001) %MON extforcing_empmr_max         =   7.6494447208479E-05
(PID.TID 0000.0001) %MON extforcing_empmr_min         =  -1.5362614137596E-04
(PID.TID 0000.0001) %MON extforcing_empmr_mean        =  -2.7256318706594E-21
(PID.TID 0000.0001) %MON extforcing_empmr_sd          =   2.4051723601802E-05
(PID.TID 0000.0001) %MON extforcing_empmr_del2        =   1.2835223797615E-06
(PID.TID 0000.0001) %MON advcfl_uvel_max              =   3.4590726073599E-03
(PID.TID 0000.0001) %MON advcfl_vvel_max              =   3.6025087727705E-03
(PID.TID 0000.0001) %MON advcfl_wvel_max              =   3.5146787933409E-03
(PID.TID 0000.0001) %MON advcfl_W_hf_max              =   3.8807911676473E-03
(PID.TID 0000.0001) %MON pe_b_mean                    =   4.7704225186281E-04
(PID.TID 0000.0001) %MON ke_max                       =   4.1400865027905E-02
(PID.TID 0000.0001) %MON ke_mean                      =   1.5229612568356E-04
(PID.TID 0000.0001) %MON ke_vol                       =   1.3398024453628E+18
(PID.TID 0000.0001) %MON vort_r_min                   =  -1.4640500133650E-06
(PID.TID 0000.0001) %MON vort_r_max                   =   1.4913321916480E-06
(PID.TID 0000.0001) %MON vort_a_mean                  =  -2.0549865324846E-05
(PID.TID 0000.0001) %MON vort_a_sd                    =   7.5259522006644E-05
(PID.TID 0000.0001) %MON vort_p_mean                  =  -2.4783522345032E-05
(PID.TID 0000.0001) %MON vort_p_sd                    =   1.2810654264826E-04
(PID.TID 0000.0001) %MON surfExpan_theta_mean         =   2.3420910455978E-07
(PID.TID 0000.0001) %MON surfExpan_salt_mean          =   5.0772355005917E-08
(PID.TID 0000.0001) // =======================================================
(PID.TID 0000.0001) // End MONITOR dynamic field statistics
(PID.TID 0000.0001) // =======================================================
 cg2d: Sum(rhs),rhsMax =  -7.66249286243692E-11  4.24326081626809E+00
(PID.TID 0000.0001)                    cg2d_init_res =    1.05699381624138E-01
(PID.TID 0000.0001)                       cg2d_iters =    29
(PID.TID 0000.0001)                         cg2d_res =    1.90095562611530E-07
 cg3d: Sum(rhs),rhsMax =   8.15395466912620E-10  1.21904171773135E-03
(PID.TID 0000.0001)                    cg3d_init_res =    5.75496843197881E-01
(PID.TID 0000.0001)                       cg3d_iters =    46
(PID.TID 0000.0001)                         cg3d_res =    7.12895761801740E-10
(PID.TID 0000.0001) // =======================================================
(PID.TID 0000.0001) // Begin MONITOR dynamic field statistics
(PID.TID 0000.0001) // =======================================================
(PID.TID 0000.0001) %MON time_tsnumber                =                 86410
(PID.TID 0000.0001) %MON time_secondsf                =   3.1107600000000E+08
(PID.TID 0000.0001) %MON dynstat_eta_max              =   9.2524379999526E-01
(PID.TID 0000.0001) %MON dynstat_eta_min              =  -1.6142559023720E+00
(PID.TID 0000.0001) %MON dynstat_eta_mean             =   1.4207717586531E-14
(PID.TID 0000.0001) %MON dynstat_eta_sd               =   5.9847580945206E-01
(PID.TID 0000.0001) %MON dynstat_eta_del2             =   1.1442575135017E-02
(PID.TID 0000.0001) %MON dynstat_uvel_max             =   1.9922672325313E-01
(PID.TID 0000.0001) %MON dynstat_uvel_min             =  -2.9328322556891E-01
(PID.TID 0000.0001) %MON dynstat_uvel_mean            =  -4.9661947315911E-04
(PID.TID 0000.0001) %MON dynstat_uvel_sd              =   1.2571462574784E-02
(PID.TID 0000.0001) %MON dynstat_uvel_del2            =   1.8550925901286E-03
(PID.TID 0000.0001) %MON dynstat_vvel_max             =   1.9124067621499E-01
(PID.TID 0000.0001) %MON dynstat_vvel_min             =  -2.2996915214987E-01
(PID.TID 0000.0001) %MON dynstat_vvel_mean            =  -3.8117967252357E-04
(PID.TID 0000.0001) %MON dynstat_vvel_sd              =   1.3145997404523E-02
(PID.TID 0000.0001) %MON dynstat_vvel_del2            =   1.8757029839675E-03
(PID.TID 0000.0001) %MON dynstat_wvel_max             =   1.7233223315978E-04
(PID.TID 0000.0001) %MON dynstat_wvel_min             =  -2.6269950069779E-04
(PID.TID 0000.0001) %MON dynstat_wvel_mean            =   4.6416248876558E-23
(PID.TID 0000.0001) %MON dynstat_wvel_sd              =   5.5317610193195E-06
(PID.TID 0000.0001) %MON dynstat_wvel_del2            =   1.7013580051307E-06
(PID.TID 0000.0001) %MON dynstat_theta_max            =   3.0932817802471E+01
(PID.TID 0000.0001) %MON dynstat_theta_min            =  -3.0366582533003E+00
(PID.TID 0000.0001) %MON dynstat_theta_mean           =   3.9089321396158E+00
(PID.TID 0000.0001) %MON dynstat_theta_sd             =   4.5708600645448E+00
(PID.TID 0000.0001) %MON dynstat_theta_del2           =   8.7682784549027E-02
(PID.TID 0000.0001) %MON dynstat_salt_max             =   4.1386635072026E+01
(PID.TID 0000.0001) %MON dynstat_salt_min             =   1.8383530863805E+01
(PID.TID 0000.0001) %MON dynstat_salt_mean            =   3.4772067396006E+01
(PID.TID 0000.0001) %MON dynstat_salt_sd              =   5.3152156906690E-01
(PID.TID 0000.0001) %MON dynstat_salt_del2            =   1.8681299246372E-02
(PID.TID 0000.0001) %MON extforcing_qnet_max          =   4.5341284527210E+02
(PID.TID 0000.0001) %MON extforcing_qnet_min          =  -2.1466110977259E+02
(PID.TID 0000.0001) %MON extforcing_qnet_mean         =  -1.2150408029885E+01
(PID.TID 0000.0001) %MON extforcing_qnet_sd           =   1.1557613062980E+02
(PID.TID 0000.0001) %MON extforcing_qnet_del2         =   5.1076894634826E+00
(PID.TID 0000.0001) %MON extforcing_qsw_max           =   0.0000000000000E+00
(PID.TID 0000.0001) %MON extforcing_qsw_min           =   0.0000000000000E+00
(PID.TID 0000.0001) %MON extforcing_qsw_mean          =   0.0000000000000E+00
(PID.TID 0000.0001) %MON extforcing_qsw_sd            =   0.0000000000000E+00
(PID.TID 0000.0001) %MON extforcing_qsw_del2          =   0.0000000000000E+00
(PID.TID 0000.0001) %MON extforcing_empmr_max         =   7.6494447208479E-05
(PID.TID 0000.0001) %MON extforcing_empmr_min         =  -1.5362614137596E-04
(PID.TID 0000.0001) %MON extforcing_empmr_mean        =  -2.7256318706594E-21
(PID.TID 0000.0001) %MON extforcing_empmr_sd          =   2.4051723601802E-05
(PID.TID 0000.0001) %MON extforcing_empmr_del2        =   1.2835223797615E-06
(PID.TID 0000.0001) %MON advcfl_uvel_max              =   3.4658619153712E-03
(PID.TID 0000.0001) %MON advcfl_vvel_max              =   3.6311130904887E-03
(PID.TID 0000.0001) %MON advcfl_wvel_max              =   3.5687479340077E-03
(PID.TID 0000.0001) %MON advcfl_W_hf_max              =   3.9404925104669E-03
(PID.TID 0000.0001) %MON pe_b_mean                    =   4.7715301729772E-04
(PID.TID 0000.0001) %MON ke_max                       =   4.1519539079058E-02
(PID.TID 0000.0001) %MON ke_mean                      =   1.5296121715106E-04
(PID.TID 0000.0001) %MON ke_vol                       =   1.3398024453628E+18
(PID.TID 0000.0001) %MON vort_r_min                   =  -1.4656636482526E-06
(PID.TID 0000.0001) %MON vort_r_max                   =   1.4830092076982E-06
(PID.TID 0000.0001) %MON vort_a_mean                  =  -2.0549865324846E-05
(PID.TID 0000.0001) %MON vort_a_sd                    =   7.5259521266964E-05
(PID.TID 0000.0001) %MON vort_p_mean                  =  -2.4783522345032E-05
(PID.TID 0000.0001) %MON vort_p_sd                    =   1.2810653798620E-04
(PID.TID 0000.0001) %MON surfExpan_theta_mean         =   2.5901801320709E-07
(PID.TID 0000.0001) %MON surfExpan_salt_mean          =   4.9439199079961E-08
(PID.TID 0000.0001) // =======================================================
(PID.TID 0000.0001) // End MONITOR dynamic field statistics
(PID.TID 0000.0001) // =======================================================
(PID.TID 0000.0001) %CHECKPOINT     86410 ckptA
(PID.TID 0000.0001)   Seconds in section "ALL                    [THE_MODEL_MAIN]":
(PID.TID 0000.0001)           User time:  60.7937598
(PID.TID 0000.0001)         System time:  0.361944998
(PID.TID 0000.0001)     Wall clock time:  61.309443
(PID.TID 0000.0001)          No. starts: 1
(PID.TID 0000.0001)           No. stops: 1
(PID.TID 0000.0001)   Seconds in section "INITIALISE_FIXED       [THE_MODEL_MAIN]":
(PID.TID 0000.0001)           User time:  0.758885016
(PID.TID 0000.0001)         System time:  0.104984003
(PID.TID 0000.0001)     Wall clock time:  0.987228155
(PID.TID 0000.0001)          No. starts: 1
(PID.TID 0000.0001)           No. stops: 1
(PID.TID 0000.0001)   Seconds in section "THE_MAIN_LOOP          [THE_MODEL_MAIN]":
(PID.TID 0000.0001)           User time:  60.0348748
(PID.TID 0000.0001)         System time:  0.256960995
(PID.TID 0000.0001)     Wall clock time:  60.3220799
(PID.TID 0000.0001)          No. starts: 1
(PID.TID 0000.0001)           No. stops: 1
(PID.TID 0000.0001)   Seconds in section "INITIALISE_VARIA    [THE_MAIN_LOOP]":
(PID.TID 0000.0001)           User time:  1.47577608
(PID.TID 0000.0001)         System time:  0.162974991
(PID.TID 0000.0001)     Wall clock time:  1.64075708
(PID.TID 0000.0001)          No. starts: 1
(PID.TID 0000.0001)           No. stops: 1
(PID.TID 0000.0001)   Seconds in section "MAIN LOOP           [THE_MAIN_LOOP]":
(PID.TID 0000.0001)           User time:  58.5590987
(PID.TID 0000.0001)         System time:  0.0939860046
(PID.TID 0000.0001)     Wall clock time:  58.6811991
(PID.TID 0000.0001)          No. starts: 1
(PID.TID 0000.0001)           No. stops: 1
(PID.TID 0000.0001)   Seconds in section "FORWARD_STEP        [THE_MAIN_LOOP]":
(PID.TID 0000.0001)           User time:  58.5590987
(PID.TID 0000.0001)         System time:  0.0939860046
(PID.TID 0000.0001)     Wall clock time:  58.6807473
(PID.TID 0000.0001)          No. starts: 10
(PID.TID 0000.0001)           No. stops: 10
(PID.TID 0000.0001)   Seconds in section "LOAD_FIELDS_DRIVER  [FORWARD_STEP]":
(PID.TID 0000.0001)           User time:  0.081994772
(PID.TID 0000.0001)         System time:  0.00200000405
(PID.TID 0000.0001)     Wall clock time:  0.0826966763
(PID.TID 0000.0001)          No. starts: 10
(PID.TID 0000.0001)           No. stops: 10
(PID.TID 0000.0001)   Seconds in section "EXTERNAL_FLDS_LOAD [LOAD_FLDS_DRIVER]":
(PID.TID 0000.0001)           User time:  0.0809943676
(PID.TID 0000.0001)         System time:  0.00200000405
(PID.TID 0000.0001)     Wall clock time:  0.0818762779
(PID.TID 0000.0001)          No. starts: 10
(PID.TID 0000.0001)           No. stops: 10
(PID.TID 0000.0001)   Seconds in section "DO_ATMOSPHERIC_PHYS [FORWARD_STEP]":
(PID.TID 0000.0001)           User time:  0.
(PID.TID 0000.0001)         System time:  0.
(PID.TID 0000.0001)     Wall clock time:  0.00040602684
(PID.TID 0000.0001)          No. starts: 10
(PID.TID 0000.0001)           No. stops: 10
(PID.TID 0000.0001)   Seconds in section "DO_OCEANIC_PHYS     [FORWARD_STEP]":
(PID.TID 0000.0001)           User time:  4.04238296
(PID.TID 0000.0001)         System time:  0.00100001693
(PID.TID 0000.0001)     Wall clock time:  4.0447278
(PID.TID 0000.0001)          No. starts: 10
(PID.TID 0000.0001)           No. stops: 10
(PID.TID 0000.0001)   Seconds in section "DYNAMICS            [FORWARD_STEP]":
(PID.TID 0000.0001)           User time:  10.922334
(PID.TID 0000.0001)         System time:  0.00999897718
(PID.TID 0000.0001)     Wall clock time:  10.9373324
(PID.TID 0000.0001)          No. starts: 10
(PID.TID 0000.0001)           No. stops: 10
(PID.TID 0000.0001)   Seconds in section "CALC_GW          [DYNAMICS]":
(PID.TID 0000.0001)           User time:  2.74856567
(PID.TID 0000.0001)         System time:  0.00299999118
(PID.TID 0000.0001)     Wall clock time:  2.75217128
(PID.TID 0000.0001)          No. starts: 120
(PID.TID 0000.0001)           No. stops: 120
(PID.TID 0000.0001)   Seconds in section "SOLVE_FOR_PRESSURE  [FORWARD_STEP]":
(PID.TID 0000.0001)           User time:  32.0901268
(PID.TID 0000.0001)         System time:  0.0249949992
(PID.TID 0000.0001)     Wall clock time:  32.1226666
(PID.TID 0000.0001)          No. starts: 10
(PID.TID 0000.0001)           No. stops: 10
(PID.TID 0000.0001)   Seconds in section "CG3D   [SOLVE_FOR_PRESSURE]":
(PID.TID 0000.0001)           User time:  30.1164229
(PID.TID 0000.0001)         System time:  0.0229960084
(PID.TID 0000.0001)     Wall clock time:  30.146333
(PID.TID 0000.0001)          No. starts: 10
(PID.TID 0000.0001)           No. stops: 10
(PID.TID 0000.0001)   Seconds in section "MOM_CORRECTION_STEP [FORWARD_STEP]":
(PID.TID 0000.0001)           User time:  0.639898777
(PID.TID 0000.0001)         System time:  0.
(PID.TID 0000.0001)     Wall clock time:  0.640747547
(PID.TID 0000.0001)          No. starts: 10
(PID.TID 0000.0001)           No. stops: 10
(PID.TID 0000.0001)   Seconds in section "UPDATE_ETAH         [FORWARD_STEP]":
(PID.TID 0000.0001)           User time:  0.00699901581
(PID.TID 0000.0001)         System time:  0.
(PID.TID 0000.0001)     Wall clock time:  0.00546193123
(PID.TID 0000.0001)          No. starts: 10
(PID.TID 0000.0001)           No. stops: 10
(PID.TID 0000.0001)   Seconds in section "BLOCKING_EXCHANGES  [FORWARD_STEP]":
(PID.TID 0000.0001)           User time:  0.971850872
(PID.TID 0000.0001)         System time:  0.
(PID.TID 0000.0001)     Wall clock time:  0.972372532
(PID.TID 0000.0001)          No. starts: 20
(PID.TID 0000.0001)           No. stops: 20
(PID.TID 0000.0001)   Seconds in section "THERMODYNAMICS      [FORWARD_STEP]":
(PID.TID 0000.0001)           User time:  5.54015684
(PID.TID 0000.0001)         System time:  0.00499901175
(PID.TID 0000.0001)     Wall clock time:  5.55648899
(PID.TID 0000.0001)          No. starts: 10
(PID.TID 0000.0001)           No. stops: 10
(PID.TID 0000.0001)   Seconds in section "TRC_CORRECTION_STEP [FORWARD_STEP]":
(PID.TID 0000.0001)           User time:  0.102989197
(PID.TID 0000.0001)         System time:  0.
(PID.TID 0000.0001)     Wall clock time:  0.104162693
(PID.TID 0000.0001)          No. starts: 10
(PID.TID 0000.0001)           No. stops: 10
(PID.TID 0000.0001)   Seconds in section "DO_STATEVARS_TAVE   [FORWARD_STEP]":
(PID.TID 0000.0001)           User time:  1.51577425
(PID.TID 0000.0001)         System time:  0.000999987125
(PID.TID 0000.0001)     Wall clock time:  1.51726818
(PID.TID 0000.0001)          No. starts: 10
(PID.TID 0000.0001)           No. stops: 10
(PID.TID 0000.0001)   Seconds in section "MONITOR             [FORWARD_STEP]":
(PID.TID 0000.0001)           User time:  2.14366674
(PID.TID 0000.0001)         System time:  0.
(PID.TID 0000.0001)     Wall clock time:  2.1442523
(PID.TID 0000.0001)          No. starts: 10
(PID.TID 0000.0001)           No. stops: 10
(PID.TID 0000.0001)   Seconds in section "DO_THE_MODEL_IO     [FORWARD_STEP]":
(PID.TID 0000.0001)           User time:  0.17697525
(PID.TID 0000.0001)         System time:  0.0129980147
(PID.TID 0000.0001)     Wall clock time:  0.189951897
(PID.TID 0000.0001)          No. starts: 10
(PID.TID 0000.0001)           No. stops: 10
(PID.TID 0000.0001)   Seconds in section "DO_WRITE_PICKUP     [FORWARD_STEP]":
(PID.TID 0000.0001)           User time:  0.317951202
(PID.TID 0000.0001)         System time:  0.0369949937
(PID.TID 0000.0001)     Wall clock time:  0.355447054
(PID.TID 0000.0001)          No. starts: 10
(PID.TID 0000.0001)           No. stops: 10
(PID.TID 0000.0001) // ======================================================
(PID.TID 0000.0001) // Tile <-> Tile communication statistics
(PID.TID 0000.0001) // ======================================================
(PID.TID 0000.0001) // o Tile number: 000001
(PID.TID 0000.0001) //         No. X exchanges =              0
(PID.TID 0000.0001) //            Max. X spins =              0
(PID.TID 0000.0001) //            Min. X spins =     1000000000
(PID.TID 0000.0001) //          Total. X spins =              0
(PID.TID 0000.0001) //            Avg. X spins =       0.00E+00
(PID.TID 0000.0001) //         No. Y exchanges =              0
(PID.TID 0000.0001) //            Max. Y spins =              0
(PID.TID 0000.0001) //            Min. Y spins =     1000000000
(PID.TID 0000.0001) //          Total. Y spins =              0
(PID.TID 0000.0001) //            Avg. Y spins =       0.00E+00
(PID.TID 0000.0001) // o Tile number: 000002
(PID.TID 0000.0001) //         No. X exchanges =              0
(PID.TID 0000.0001) //            Max. X spins =              0
(PID.TID 0000.0001) //            Min. X spins =     1000000000
(PID.TID 0000.0001) //          Total. X spins =              0
(PID.TID 0000.0001) //            Avg. X spins =       0.00E+00
(PID.TID 0000.0001) //         No. Y exchanges =              0
(PID.TID 0000.0001) //            Max. Y spins =              0
(PID.TID 0000.0001) //            Min. Y spins =     1000000000
(PID.TID 0000.0001) //          Total. Y spins =              0
(PID.TID 0000.0001) //            Avg. Y spins =       0.00E+00
(PID.TID 0000.0001) // o Tile number: 000003
(PID.TID 0000.0001) //         No. X exchanges =              0
(PID.TID 0000.0001) //            Max. X spins =              0
(PID.TID 0000.0001) //            Min. X spins =     1000000000
(PID.TID 0000.0001) //          Total. X spins =              0
(PID.TID 0000.0001) //            Avg. X spins =       0.00E+00
(PID.TID 0000.0001) //         No. Y exchanges =              0
(PID.TID 0000.0001) //            Max. Y spins =              0
(PID.TID 0000.0001) //            Min. Y spins =     1000000000
(PID.TID 0000.0001) //          Total. Y spins =              0
(PID.TID 0000.0001) //            Avg. Y spins =       0.00E+00
(PID.TID 0000.0001) // o Tile number: 000004
(PID.TID 0000.0001) //         No. X exchanges =              0
(PID.TID 0000.0001) //            Max. X spins =              0
(PID.TID 0000.0001) //            Min. X spins =     1000000000
(PID.TID 0000.0001) //          Total. X spins =              0
(PID.TID 0000.0001) //            Avg. X spins =       0.00E+00
(PID.TID 0000.0001) //         No. Y exchanges =              0
(PID.TID 0000.0001) //            Max. Y spins =              0
(PID.TID 0000.0001) //            Min. Y spins =     1000000000
(PID.TID 0000.0001) //          Total. Y spins =              0
(PID.TID 0000.0001) //            Avg. Y spins =       0.00E+00
(PID.TID 0000.0001) // o Tile number: 000005
(PID.TID 0000.0001) //         No. X exchanges =              0
(PID.TID 0000.0001) //            Max. X spins =              0
(PID.TID 0000.0001) //            Min. X spins =     1000000000
(PID.TID 0000.0001) //          Total. X spins =              0
(PID.TID 0000.0001) //            Avg. X spins =       0.00E+00
(PID.TID 0000.0001) //         No. Y exchanges =              0
(PID.TID 0000.0001) //            Max. Y spins =              0
(PID.TID 0000.0001) //            Min. Y spins =     1000000000
(PID.TID 0000.0001) //          Total. Y spins =              0
(PID.TID 0000.0001) //            Avg. Y spins =       0.00E+00
(PID.TID 0000.0001) // o Tile number: 000006
(PID.TID 0000.0001) //         No. X exchanges =              0
(PID.TID 0000.0001) //            Max. X spins =              0
(PID.TID 0000.0001) //            Min. X spins =     1000000000
(PID.TID 0000.0001) //          Total. X spins =              0
(PID.TID 0000.0001) //            Avg. X spins =       0.00E+00
(PID.TID 0000.0001) //         No. Y exchanges =              0
(PID.TID 0000.0001) //            Max. Y spins =              0
(PID.TID 0000.0001) //            Min. Y spins =     1000000000
(PID.TID 0000.0001) //          Total. Y spins =              0
(PID.TID 0000.0001) //            Avg. Y spins =       0.00E+00
(PID.TID 0000.0001) // o Tile number: 000007
(PID.TID 0000.0001) //         No. X exchanges =              0
(PID.TID 0000.0001) //            Max. X spins =              0
(PID.TID 0000.0001) //            Min. X spins =     1000000000
(PID.TID 0000.0001) //          Total. X spins =              0
(PID.TID 0000.0001) //            Avg. X spins =       0.00E+00
(PID.TID 0000.0001) //         No. Y exchanges =              0
(PID.TID 0000.0001) //            Max. Y spins =              0
(PID.TID 0000.0001) //            Min. Y spins =     1000000000
(PID.TID 0000.0001) //          Total. Y spins =              0
(PID.TID 0000.0001) //            Avg. Y spins =       0.00E+00
(PID.TID 0000.0001) // o Tile number: 000008
(PID.TID 0000.0001) //         No. X exchanges =              0
(PID.TID 0000.0001) //            Max. X spins =              0
(PID.TID 0000.0001) //            Min. X spins =     1000000000
(PID.TID 0000.0001) //          Total. X spins =              0
(PID.TID 0000.0001) //            Avg. X spins =       0.00E+00
(PID.TID 0000.0001) //         No. Y exchanges =              0
(PID.TID 0000.0001) //            Max. Y spins =              0
(PID.TID 0000.0001) //            Min. Y spins =     1000000000
(PID.TID 0000.0001) //          Total. Y spins =              0
(PID.TID 0000.0001) //            Avg. Y spins =       0.00E+00
(PID.TID 0000.0001) // o Tile number: 000009
(PID.TID 0000.0001) //         No. X exchanges =              0
(PID.TID 0000.0001) //            Max. X spins =              0
(PID.TID 0000.0001) //            Min. X spins =     1000000000
(PID.TID 0000.0001) //          Total. X spins =              0
(PID.TID 0000.0001) //            Avg. X spins =       0.00E+00
(PID.TID 0000.0001) //         No. Y exchanges =              0
(PID.TID 0000.0001) //            Max. Y spins =              0
(PID.TID 0000.0001) //            Min. Y spins =     1000000000
(PID.TID 0000.0001) //          Total. Y spins =              0
(PID.TID 0000.0001) //            Avg. Y spins =       0.00E+00
(PID.TID 0000.0001) // o Tile number: 000010
(PID.TID 0000.0001) //         No. X exchanges =              0
(PID.TID 0000.0001) //            Max. X spins =              0
(PID.TID 0000.0001) //            Min. X spins =     1000000000
(PID.TID 0000.0001) //          Total. X spins =              0
(PID.TID 0000.0001) //            Avg. X spins =       0.00E+00
(PID.TID 0000.0001) //         No. Y exchanges =              0
(PID.TID 0000.0001) //            Max. Y spins =              0
(PID.TID 0000.0001) //            Min. Y spins =     1000000000
(PID.TID 0000.0001) //          Total. Y spins =              0
(PID.TID 0000.0001) //            Avg. Y spins =       0.00E+00
(PID.TID 0000.0001) // o Tile number: 000011
(PID.TID 0000.0001) //         No. X exchanges =              0
(PID.TID 0000.0001) //            Max. X spins =              0
(PID.TID 0000.0001) //            Min. X spins =     1000000000
(PID.TID 0000.0001) //          Total. X spins =              0
(PID.TID 0000.0001) //            Avg. X spins =       0.00E+00
(PID.TID 0000.0001) //         No. Y exchanges =              0
(PID.TID 0000.0001) //            Max. Y spins =              0
(PID.TID 0000.0001) //            Min. Y spins =     1000000000
(PID.TID 0000.0001) //          Total. Y spins =              0
(PID.TID 0000.0001) //            Avg. Y spins =       0.00E+00
(PID.TID 0000.0001) // o Tile number: 000012
(PID.TID 0000.0001) //         No. X exchanges =              0
(PID.TID 0000.0001) //            Max. X spins =              0
(PID.TID 0000.0001) //            Min. X spins =     1000000000
(PID.TID 0000.0001) //          Total. X spins =              0
(PID.TID 0000.0001) //            Avg. X spins =       0.00E+00
(PID.TID 0000.0001) //         No. Y exchanges =              0
(PID.TID 0000.0001) //            Max. Y spins =              0
(PID.TID 0000.0001) //            Min. Y spins =     1000000000
(PID.TID 0000.0001) //          Total. Y spins =              0
(PID.TID 0000.0001) //            Avg. Y spins =       0.00E+00
(PID.TID 0000.0001) // o Thread number: 000001
(PID.TID 0000.0001) //            No. barriers =          21572
(PID.TID 0000.0001) //      Max. barrier spins =              1
(PID.TID 0000.0001) //      Min. barrier spins =              1
(PID.TID 0000.0001) //     Total barrier spins =          21572
(PID.TID 0000.0001) //      Avg. barrier spins =       1.00E+00
