(PID.TID 0000.0001) 
(PID.TID 0000.0001) // ======================================================
(PID.TID 0000.0001) //                      MITgcm UV
(PID.TID 0000.0001) //                      =========
(PID.TID 0000.0001) // ======================================================
(PID.TID 0000.0001) // execution environment starting up...
(PID.TID 0000.0001) 
(PID.TID 0000.0001) // MITgcmUV version:  checkpoint62m
(PID.TID 0000.0001) // Build user:        jmc
(PID.TID 0000.0001) // Build host:        baudelaire
(PID.TID 0000.0001) // Build date:        Wed Nov  3 03:25:03 EDT 2010
(PID.TID 0000.0001) 
(PID.TID 0000.0001) // =======================================================
(PID.TID 0000.0001) // Execution Environment parameter file "eedata"
(PID.TID 0000.0001) // =======================================================
(PID.TID 0000.0001) ># Example "eedata" file
(PID.TID 0000.0001) ># Lines beginning "#" are comments
(PID.TID 0000.0001) ># nTx - No. threads per process in X
(PID.TID 0000.0001) ># nTy - No. threads per process in Y
(PID.TID 0000.0001) > &EEPARMS
(PID.TID 0000.0001) > useCubedSphereExchange=.TRUE.,
(PID.TID 0000.0001) > nTx=1,
(PID.TID 0000.0001) > nTy=1,
(PID.TID 0000.0001) > /
(PID.TID 0000.0001) ># Note: Some systems use & as the
(PID.TID 0000.0001) ># namelist terminator. Other systems
(PID.TID 0000.0001) ># use a / character (as shown here).
(PID.TID 0000.0001) 
(PID.TID 0000.0001) // =======================================================
(PID.TID 0000.0001) // Computational Grid Specification ( see files "SIZE.h" )
(PID.TID 0000.0001) //                                  ( and "eedata"       )
(PID.TID 0000.0001) // =======================================================
(PID.TID 0000.0001)      nPx =    1 ; /* No. processes in X */
(PID.TID 0000.0001)      nPy =    1 ; /* No. processes in Y */
(PID.TID 0000.0001)      nSx =   12 ; /* No. tiles in X per process */
(PID.TID 0000.0001)      nSy =    1 ; /* No. tiles in Y per process */
(PID.TID 0000.0001)      sNx =   32 ; /* Tile size in X */
(PID.TID 0000.0001)      sNy =   16 ; /* Tile size in Y */
(PID.TID 0000.0001)      OLx =    4 ; /* Tile overlap distance in X */
(PID.TID 0000.0001)      OLy =    4 ; /* Tile overlap distance in Y */
(PID.TID 0000.0001)      nTx =    1 ; /* No. threads in X per process */
(PID.TID 0000.0001)      nTy =    1 ; /* No. threads in Y per process */
(PID.TID 0000.0001)       Nr =   15 ; /* No. levels in the vertical   */
(PID.TID 0000.0001)       Nx =  384 ; /* Total domain size in X ( = nPx*nSx*sNx ) */
(PID.TID 0000.0001)       Ny =   16 ; /* Total domain size in Y ( = nPy*nSy*sNy ) */
(PID.TID 0000.0001)   nTiles =   12 ; /* Total no. tiles per process ( = nSx*nSy ) */
(PID.TID 0000.0001)   nProcs =    1 ; /* Total no. processes ( = nPx*nPy ) */
(PID.TID 0000.0001) nThreads =    1 ; /* Total no. threads per process ( = nTx*nTy ) */
(PID.TID 0000.0001) usingMPI =    F ; /* Flag used to control whether MPI is in use */
(PID.TID 0000.0001)                   /*  note: To execute a program with MPI calls */
(PID.TID 0000.0001)                   /*  it must be launched appropriately e.g     */
(PID.TID 0000.0001)                   /*  "mpirun -np 64 ......"                    */
(PID.TID 0000.0001) useCoupler=    F ;/* Flag used to control communications with   */
(PID.TID 0000.0001)                   /*  other model components, through a coupler */
(PID.TID 0000.0001) printMapIncludesZeros=    F ; /* print zeros in Std.Output maps */
(PID.TID 0000.0001) maxLengthPrt1D=   65 /* maxLength of 1D array printed to StdOut */
(PID.TID 0000.0001) 
(PID.TID 0000.0001) // ======================================================
(PID.TID 0000.0001) // Mapping of tiles to threads
(PID.TID 0000.0001) // ======================================================
(PID.TID 0000.0001) // -o- Thread   1, tiles (   1:  12,   1:   1)
(PID.TID 0000.0001) 
(PID.TID 0000.0001) W2_READPARMS: file data.exch2 not found
(PID.TID 0000.0001) => use W2_EXCH2 default: regular 6-facets Cube
(PID.TID 0000.0001) W2_useE2ioLayOut=    T ;/* T: use Exch2 glob IO map; F: use model default */
(PID.TID 0000.0001) W2_mapIO        =  -1 ; /* select option for Exch2 global-IO map */
(PID.TID 0000.0001) W2_printMsg     =  -1 ; /* select option for printing information */
(PID.TID 0000.0001) ===== Start setting W2 TOPOLOGY:
(PID.TID 0000.0001)  write to log-file: w2_tile_topology.0000.log
(PID.TID 0000.0001) =====       setting W2 TOPOLOGY: Done
(PID.TID 0000.0001) 
(PID.TID 0000.0001) DEBUG_MSG: ENTERED S/R THE_MODEL_MAIN
(PID.TID 0000.0001) DEBUG_MSG: CALLING S/R INITIALISE_FIXED
(PID.TID 0000.0001) // =======================================================
(PID.TID 0000.0001) // Model parameter file "data"
(PID.TID 0000.0001) // =======================================================
(PID.TID 0000.0001) ># ====================
(PID.TID 0000.0001) ># | Model parameters |
(PID.TID 0000.0001) ># ====================
(PID.TID 0000.0001) >#
(PID.TID 0000.0001) ># Continuous equation parameters
(PID.TID 0000.0001) > &PARM01
(PID.TID 0000.0001) > tRef=15*20.,
(PID.TID 0000.0001) > sRef=15*35.,
(PID.TID 0000.0001) > viscAh =3.E5,
(PID.TID 0000.0001) > viscAr =1.E-3,
(PID.TID 0000.0001) > diffKhT=0.,
(PID.TID 0000.0001) > diffK4T=0.,
(PID.TID 0000.0001) > diffKrT=3.E-5,
(PID.TID 0000.0001) > diffKhS=0.,
(PID.TID 0000.0001) > diffK4S=0.,
(PID.TID 0000.0001) > diffKrS=3.E-5,
(PID.TID 0000.0001) > ivdc_kappa=10.,
(PID.TID 0000.0001) > implicitDiffusion=.TRUE.,
(PID.TID 0000.0001) > gravity=9.81,
(PID.TID 0000.0001) > rhonil=1035.,
(PID.TID 0000.0001) > rhoConstFresh=1000.,
(PID.TID 0000.0001) > eosType='JMD95Z',
(PID.TID 0000.0001) > staggerTimeStep=.TRUE.,
(PID.TID 0000.0001) > vectorInvariantMomentum=.TRUE.,
(PID.TID 0000.0001) > implicitFreeSurface=.TRUE.,
(PID.TID 0000.0001) > exactConserv=.TRUE.,
(PID.TID 0000.0001) > select_rStar=2,
(PID.TID 0000.0001) > nonlinFreeSurf=4,
(PID.TID 0000.0001) > hFacInf=0.2,
(PID.TID 0000.0001) > hFacSup=2.0,
(PID.TID 0000.0001) > useRealFreshWaterFlux=.TRUE.,
(PID.TID 0000.0001) > hFacMin=.1,
(PID.TID 0000.0001) > hFacMinDr=20.,
(PID.TID 0000.0001) > readBinaryPrec=64,
(PID.TID 0000.0001) >#writeBinaryPrec=64,
(PID.TID 0000.0001) > /
(PID.TID 0000.0001) >
(PID.TID 0000.0001) ># Elliptic solver parameters
(PID.TID 0000.0001) > &PARM02
(PID.TID 0000.0001) > cg2dMaxIters=200,
(PID.TID 0000.0001) >#cg2dTargetResidual=1.E-9,
(PID.TID 0000.0001) > cg2dTargetResWunit=1.E-14,
(PID.TID 0000.0001) > /
(PID.TID 0000.0001) >
(PID.TID 0000.0001) ># Time stepping parameters
(PID.TID 0000.0001) > &PARM03
(PID.TID 0000.0001) > nIter0=36000,
(PID.TID 0000.0001) > nTimeSteps=20,
(PID.TID 0000.0001) > deltaTmom   =1200.,
(PID.TID 0000.0001) > deltaTtracer=86400.,
(PID.TID 0000.0001) > deltaTfreesurf=86400.,
(PID.TID 0000.0001) > deltaTClock =86400.,
(PID.TID 0000.0001) > abEps = 0.1,
(PID.TID 0000.0001) >#forcing_In_AB=.FALSE.,
(PID.TID 0000.0001) > tracForcingOutAB=1,
(PID.TID 0000.0001) > pChkptFreq  =31104000.,
(PID.TID 0000.0001) > taveFreq    =31104000.,
(PID.TID 0000.0001) > dumpFreq    =31104000.,
(PID.TID 0000.0001) > monitorFreq =2592000.,
(PID.TID 0000.0001) >#tave_lastIter=0.,
(PID.TID 0000.0001) > periodicExternalForcing=.TRUE.,
(PID.TID 0000.0001) > externForcingPeriod=2592000.,
(PID.TID 0000.0001) > externForcingCycle=31104000.,
(PID.TID 0000.0001) ># 2 months restoring timescale for temperature
(PID.TID 0000.0001) > tauThetaClimRelax = 5184000.,
(PID.TID 0000.0001) ># 6 months restoring timescale for salinity
(PID.TID 0000.0001) > tauSaltClimRelax = 15552000.,
(PID.TID 0000.0001) > latBandClimRelax=50.,
(PID.TID 0000.0001) > monitorFreq =1.,
(PID.TID 0000.0001) > /
(PID.TID 0000.0001) >
(PID.TID 0000.0001) ># Gridding parameters
(PID.TID 0000.0001) > &PARM04
(PID.TID 0000.0001) > usingCurvilinearGrid=.TRUE.,
(PID.TID 0000.0001) > horizGridFile='grid_cs32',
(PID.TID 0000.0001) > delR= 50., 70., 100., 140., 190.,
(PID.TID 0000.0001) >       240., 290., 340., 390., 440.,
(PID.TID 0000.0001) >       490., 540., 590., 640., 690.,
(PID.TID 0000.0001) > /
(PID.TID 0000.0001) >
(PID.TID 0000.0001) ># Input datasets
(PID.TID 0000.0001) > &PARM05
(PID.TID 0000.0001) > bathyFile      ='bathy_Hmin50.bin',
(PID.TID 0000.0001) > hydrogThetaFile='lev_T_cs_15k.bin',
(PID.TID 0000.0001) > hydrogSaltFile ='lev_S_cs_15k.bin',
(PID.TID 0000.0001) > zonalWindFile  ='trenberth_taux.bin',
(PID.TID 0000.0001) > meridWindFile  ='trenberth_tauy.bin',
(PID.TID 0000.0001) > thetaClimFile  ='lev_surfT_cs_12m.bin',
(PID.TID 0000.0001) > saltClimFile   ='lev_surfS_cs_12m.bin',
(PID.TID 0000.0001) > /
(PID.TID 0000.0001) 
(PID.TID 0000.0001) S/R INI_PARMS ; starts to read PARM01
(PID.TID 0000.0001) S/R INI_PARMS ; read PARM01 : OK
(PID.TID 0000.0001) S/R INI_PARMS ; starts to read PARM02
(PID.TID 0000.0001) S/R INI_PARMS ; read PARM02 : OK
(PID.TID 0000.0001) S/R INI_PARMS ; starts to read PARM03
(PID.TID 0000.0001) S/R INI_PARMS ; read PARM03 : OK
(PID.TID 0000.0001) S/R INI_PARMS ; starts to read PARM04
(PID.TID 0000.0001) S/R INI_PARMS ; read PARM04 : OK
(PID.TID 0000.0001) S/R INI_PARMS ; starts to read PARM05
(PID.TID 0000.0001) S/R INI_PARMS ; read PARM05 : OK
(PID.TID 0000.0001)  PACKAGES_BOOT: opening data.pkg
(PID.TID 0000.0001)  OPEN_COPY_DATA_FILE: opening file data.pkg
(PID.TID 0000.0001) // =======================================================
(PID.TID 0000.0001) // Parameter file "data.pkg"
(PID.TID 0000.0001) // =======================================================
(PID.TID 0000.0001) ># Packages
(PID.TID 0000.0001) > &PACKAGES
(PID.TID 0000.0001) > useGMRedi=.TRUE.,
(PID.TID 0000.0001) > useBulkforce=.TRUE.,
(PID.TID 0000.0001) > useThSIce=.TRUE.,
(PID.TID 0000.0001) > useDiagnostics=.TRUE.,
(PID.TID 0000.0001) > /
(PID.TID 0000.0001) 
(PID.TID 0000.0001)  PACKAGES_BOOT: finished reading data.pkg
(PID.TID 0000.0001)  GM_READPARMS: opening data.gmredi
(PID.TID 0000.0001)  OPEN_COPY_DATA_FILE: opening file data.gmredi
(PID.TID 0000.0001) // =======================================================
(PID.TID 0000.0001) // Parameter file "data.gmredi"
(PID.TID 0000.0001) // =======================================================
(PID.TID 0000.0001) ># GM+Redi package parameters:
(PID.TID 0000.0001) >
(PID.TID 0000.0001) >#-from MOM :
(PID.TID 0000.0001) ># GM_background_K: 	G & Mc.W  diffusion coefficient
(PID.TID 0000.0001) ># GM_maxSlope    :	max slope of isopycnals
(PID.TID 0000.0001) ># GM_Scrit       :	transition for scaling diffusion coefficient
(PID.TID 0000.0001) ># GM_Sd          :	half width scaling for diffusion coefficient
(PID.TID 0000.0001) ># GM_taper_scheme:	slope clipping or one of the tapering schemes
(PID.TID 0000.0001) ># GM_Kmin_horiz  :	horizontal diffusion minimum value
(PID.TID 0000.0001) >
(PID.TID 0000.0001) >#-Option parameters (needs to "define" options in GMREDI_OPTIONS.h")
(PID.TID 0000.0001) ># GM_isopycK     :	isopycnal diffusion coefficient (default=GM_background_K)
(PID.TID 0000.0001) ># GM_AdvForm     :	turn on GM Advective form       (default=Skew flux form)
(PID.TID 0000.0001) >
(PID.TID 0000.0001) > &GM_PARM01
(PID.TID 0000.0001) >  GM_background_K    = 800.,
(PID.TID 0000.0001) >  GM_taper_scheme    = 'gkw91',
(PID.TID 0000.0001) >  GM_maxSlope        = 1.e-2,
(PID.TID 0000.0001) >  GM_Kmin_horiz      = 50.,
(PID.TID 0000.0001) >  GM_Scrit           = 4.e-3,
(PID.TID 0000.0001) >  GM_Sd              = 1.e-3,
(PID.TID 0000.0001) ># GM_Visbeck_alpha   = 0.,
(PID.TID 0000.0001) ># GM_Visbeck_length  = 2.e+5,
(PID.TID 0000.0001) ># GM_Visbeck_depth   = 1.e+3,
(PID.TID 0000.0001) ># GM_Visbeck_maxval_K= 2.5e+3,
(PID.TID 0000.0001) > /
(PID.TID 0000.0001) >
(PID.TID 0000.0001) >
(PID.TID 0000.0001) 
(PID.TID 0000.0001)  GM_READPARMS: finished reading data.gmredi
(PID.TID 0000.0001)  OPEN_COPY_DATA_FILE: opening file data.blk
(PID.TID 0000.0001) // =======================================================
(PID.TID 0000.0001) // Parameter file "data.blk"
(PID.TID 0000.0001) // =======================================================
(PID.TID 0000.0001) > &BULKF_CONST
(PID.TID 0000.0001) > Tf0kel = 273.15,
(PID.TID 0000.0001) >#p0   = 1013.,  <- no longer in Namelist, but hard coded
(PID.TID 0000.0001) > Rgas   = 287.,
(PID.TID 0000.0001) > /
(PID.TID 0000.0001) >
(PID.TID 0000.0001) > &BULKF_PARM01
(PID.TID 0000.0001) ># set blk_nIter=0 to use the original FORMULA_LANL:
(PID.TID 0000.0001) > blk_nIter= 0,
(PID.TID 0000.0001) >#RainFile=       'ncep_precip_cs.bin',
(PID.TID 0000.0001) > RainFile=       'ncep_pr_scal_cs.bin',
(PID.TID 0000.0001) > SolarFile=      'ncep_downsolar_cs.bin',
(PID.TID 0000.0001) > AirTempFile=    'ncep_tair_cs.bin',
(PID.TID 0000.0001) > AirhumidityFile='ncep_qair_cs.bin',
(PID.TID 0000.0001) > LongwaveFile=   'ncep_downlw_cs.bin',
(PID.TID 0000.0001) > UWindFile=      ' ',
(PID.TID 0000.0001) > VWindFile=      ' ',
(PID.TID 0000.0001) > WspeedFile=     'ncep_windspeed_cs.bin',
(PID.TID 0000.0001) > RunoffFile=     ' ',
(PID.TID 0000.0001) > QnetFile=       ' ',
(PID.TID 0000.0001) > EmPFile=        ' ',
(PID.TID 0000.0001) > CloudFile=      ' ',
(PID.TID 0000.0001) >#blk_taveFreq=864000.,
(PID.TID 0000.0001) > /
(PID.TID 0000.0001) >
(PID.TID 0000.0001) > &BULKF_PARM02
(PID.TID 0000.0001) > qnet_off=0.0,
(PID.TID 0000.0001) > empmr_off=0.0,
(PID.TID 0000.0001) > conservcycle=311040000.,
(PID.TID 0000.0001) > /
(PID.TID 0000.0001) >
(PID.TID 0000.0001) 
(PID.TID 0000.0001)  BULKF_READPARMS: starts to read BULKF_CONST
(PID.TID 0000.0001)  BULKF_READPARMS: read BULKF_CONST : OK
(PID.TID 0000.0001)  BULKF_READPARMS: starts to read BULKF_PARM01
(PID.TID 0000.0001)  BULKF_READPARMS: read BULKF_PARM01 : OK
 BlkF: rhoA     =   1.3000000000000000     
 BlkF: rhoFW    =   1000.0000000000000     
 BlkF: cpAir    =   1004.0000000000000     
 BlkF: Lvap     =   2500000.0000000000     
 BlkF: Lfresh   =   334000.00000000000     
 BlkF: Tf0kel   =   273.14999999999998     
 BlkF: Rgas     =   287.00000000000000     
 BlkF: xkar     =  0.40000000000000002     
 BlkF: stefan   =  5.66999999999999982E-008
 BlkF: zref     =   10.000000000000000     
 BlkF: zwd      =   10.000000000000000     
 BlkF: zth      =   10.000000000000000     
 BlkF: cDrag_1  =  2.70000000000000014E-003
 BlkF: cDrag_2  =  1.42000000000000009E-004
 BlkF: cDrag_3  =  7.64000000000000004E-005
 BlkF: cStantonS=  1.79999999999999986E-002
 BlkF: cStantonU=  3.26999999999999999E-002
 BlkF: cDalton  =  3.45999999999999988E-002
 BlkF: umin     =   1.0000000000000000     
 BlkF: humid_fac=  0.60599999999999998     
 BlkF: saltQsFac=  0.97999999999999998     
 BlkF: gamma_blk=  1.00000000000000002E-002
 BlkF: atm_emissivity  =  0.90000000000000002     
 BlkF: ocean_emissivity=  0.98499999999999999     
 BlkF: snow_emissivity =  0.97999999999999998     
 BlkF: ice_emissivity  =  0.97999999999999998     
 BlkF: ocean_albedo    =  0.10000000000000001     
 BlkF: FWIND0   =  0.59999999999999998     
 BlkF: CHS      =  8.00000000000000038E-004
 BlkF: VGUST    =   5.0000000000000000     
 BlkF: DTHETA   =   3.0000000000000000     
 BlkF: dTstab   =   1.0000000000000000     
 BlkF: FSTAB    =  0.67000000000000004     
 BlkF: useFluxFormula_AIM= F
 BlkF: calcWindStress  = F
 BlkF: useQnetch       = F
 BlkF: useEmPch        = F
 BlkF: blk_nIter   =           0
 BlkF: blk_taveFreq=   31104000.000000000     
(PID.TID 0000.0001)  THSICE_READPARMS: opening data.ice
(PID.TID 0000.0001)  OPEN_COPY_DATA_FILE: opening file data.ice
(PID.TID 0000.0001) // =======================================================
(PID.TID 0000.0001) // Parameter file "data.ice"
(PID.TID 0000.0001) // =======================================================
(PID.TID 0000.0001) > &THSICE_CONST
(PID.TID 0000.0001) > Tf0kel  = 273.15,
(PID.TID 0000.0001) >#- with LANL albedo:
(PID.TID 0000.0001) >#albWarmSnow= 0.75,
(PID.TID 0000.0001) >#- for full ice-fraction :
(PID.TID 0000.0001) >#fracEnMelt = 0.,
(PID.TID 0000.0001) >#iceMaskMin = 1.,
(PID.TID 0000.0001) >#hThinIce   = 0.01,
(PID.TID 0000.0001) >#hThickIce  = 100.,
(PID.TID 0000.0001) >#- with fractional ice:
(PID.TID 0000.0001) > iceMaskMin = 0.05,
(PID.TID 0000.0001) > hiMax      = 10.,
(PID.TID 0000.0001) > hsMax      = 10.,
(PID.TID 0000.0001) >#albIceMax  = 0.7,
(PID.TID 0000.0001) >#albIceMin  = 0.7,
(PID.TID 0000.0001) > /
(PID.TID 0000.0001) >
(PID.TID 0000.0001) > &THSICE_PARM01
(PID.TID 0000.0001) >#StartIceModel=1,
(PID.TID 0000.0001) > stressReduction=0.,
(PID.TID 0000.0001) >#thSIce_taveFreq=2592000.,
(PID.TID 0000.0001) >#thSIce_diagFreq=2592000.,
(PID.TID 0000.0001) >#thSIce_monFreq=864000.,
(PID.TID 0000.0001) > /
(PID.TID 0000.0001) >
(PID.TID 0000.0001) 
(PID.TID 0000.0001)  THSICE_READPARMS: read THSICE_CONST
(PID.TID 0000.0001)  THSICE_READPARMS: read THSICE_PARM01
 ThSI: rhos      =   330.00000000000000     
 ThSI: rhoi      =   900.00000000000000     
 ThSI: rhosw     =   1035.0000000000000     
 ThSI: rhofw     =   1000.0000000000000     
 ThSI: floodFac  =  0.40909090909090912     
 ThSI: cpIce     =   2106.0000000000000     
 ThSI: cpWater   =   3994.0000000000000     
 ThSI: kIce      =   2.0299999999999998     
 ThSI: kSnow     =  0.29999999999999999     
 ThSI: bMeltCoef =  6.00000000000000012E-003
 ThSI: Lfresh    =   334000.00000000000     
 ThSI: qsnow     =   334000.00000000000     
 ThSI: albColdSnow=  0.84999999999999998     
 ThSI: albWarmSnow=  0.69999999999999996     
 ThSI: tempSnowAlb=  -10.000000000000000     
 ThSI: albOldSnow =  0.55000000000000004     
 ThSI: hNewSnowAge=  2.00000000000000004E-003
 ThSI: snowAgTime =   4320000.0000000000     
 ThSI: albIceMax =  0.65000000000000002     
 ThSI: albIceMin =  0.20000000000000001     
 ThSI: hAlbIce   =  0.50000000000000000     
 ThSI: hAlbSnow  =  0.29999999999999999     
 ThSI: i0swFrac  =  0.29999999999999999     
 ThSI: ksolar    =   1.5000000000000000     
 ThSI: dhSnowLin =   0.0000000000000000     
 ThSI: saltIce   =   4.0000000000000000     
 ThSI: S_winton  =   1.0000000000000000     
 ThSI: mu_Tf     =  5.39999999999999994E-002
 ThSI: Tf0kel    =   273.14999999999998     
 ThSI: Tmlt1     = -5.39999999999999994E-002
 ThSI: Terrmax   =  0.50000000000000000     
 ThSI: nitMaxTsf =          20
 ThSI: hIceMin   =  1.00000000000000002E-002
 ThSI: hiMax     =   10.000000000000000     
 ThSI: hsMax     =   10.000000000000000     
 ThSI: iceMaskMax =   1.0000000000000000     
 ThSI: iceMaskMin =  5.00000000000000028E-002
 ThSI: fracEnMelt =  0.40000000000000002     
 ThSI: fracEnFreez=   0.0000000000000000     
 ThSI: hThinIce   =  0.20000000000000001     
 ThSI: hThickIce  =   2.5000000000000000     
 ThSI: hNewIceMax =   10.000000000000000     
 ThSI: stressReduction =   0.0000000000000000     
 ThSI: thSIceAdvScheme =           0
 ThSI: thSIce_diffK  =   0.0000000000000000     
 ThSI: thSIce_deltaT =   86400.000000000000     
 ThSI: ocean_deltaT  =   86400.000000000000     
 ThSI: stepFwd_oceMxL= F
 ThSI: tauRelax_MxL  =   0.0000000000000000     
 ThSI: tauRelax_MxL_salt  =   0.0000000000000000     
 ThSI: hMxL_default  =   50.000000000000000     
 ThSI: sMxL_default  =   35.000000000000000     
 ThSI: vMxL_default  =  5.00000000000000028E-002
 ThSI: thSIce_taveFreq=   31104000.000000000     
 ThSI: thSIce_diagFreq=   31104000.000000000     
 ThSI: thSIce_monFreq =   1.0000000000000000     
 ThSI: startIceModel =           0
(PID.TID 0000.0001)  DIAGNOSTICS_READPARMS: opening data.diagnostics
(PID.TID 0000.0001)  OPEN_COPY_DATA_FILE: opening file data.diagnostics
(PID.TID 0000.0001) // =======================================================
(PID.TID 0000.0001) // Parameter file "data.diagnostics"
(PID.TID 0000.0001) // =======================================================
(PID.TID 0000.0001) ># Diagnostic Package Choices
(PID.TID 0000.0001) >#-----------------
(PID.TID 0000.0001) ># for each output-stream:
(PID.TID 0000.0001) >#  filename(n) : prefix of the output file name (only 8.c long) for outp.stream n
(PID.TID 0000.0001) >#  frequency(n):< 0 : write snap-shot output every |frequency| seconds
(PID.TID 0000.0001) >#               > 0 : write time-average output every frequency seconds
(PID.TID 0000.0001) >#  timePhase(n)     : write at time = timePhase + multiple of |frequency|
(PID.TID 0000.0001) >#  averagingFreq(n) : frequency (in s) for periodic averaging interval
(PID.TID 0000.0001) >#  averagingPhase(n): phase     (in s) for periodic averaging interval
(PID.TID 0000.0001) >#  repeatCycle(n)   : number of averaging intervals in 1 cycle
(PID.TID 0000.0001) >#  levels(:,n) : list of levels to write to file (Notes: declared as REAL)
(PID.TID 0000.0001) >#                 when this entry is missing, select all common levels of this list
(PID.TID 0000.0001) >#  fields(:,n) : list of diagnostics fields (8.c) (see "available_diagnostics.log"
(PID.TID 0000.0001) >#                 file for the list of all available diag. in this particular config)
(PID.TID 0000.0001) >#-----------------
(PID.TID 0000.0001) > &DIAGNOSTICS_LIST
(PID.TID 0000.0001) ># diag_mnc     = .FALSE.,
(PID.TID 0000.0001) ># dumpAtLast   = .TRUE.,
(PID.TID 0000.0001) >   fields(1,1) = 'ETAN    ','ETANSQ  ','DETADT2 ','PHIBOT  ','PHIBOTSQ',
(PID.TID 0000.0001) >                 'oceTAUX ','oceTAUY ','TRELAX  ','SRELAX  ',
(PID.TID 0000.0001) >                 'surForcT','surForcS','TFLUX   ','SFLUX   ',
(PID.TID 0000.0001) >                 'oceQsw  ','oceQnet ','oceSflux','oceFWflx',
(PID.TID 0000.0001) >   levels(1,1) = 1.,
(PID.TID 0000.0001) >   filename(1) = 'surfDiag',
(PID.TID 0000.0001) >  frequency(1) = 1555200000.,
(PID.TID 0000.0001) >   fields(1,2) = 'UVEL    ','VVEL    ','WVEL    ','PHIHYD  ',
(PID.TID 0000.0001) >                 'VVELMASS','UVELMASS','WVELSQ  ',
(PID.TID 0000.0001) >                 'THETA   ','UTHMASS ','VTHMASS ','WTHMASS ',
(PID.TID 0000.0001) >                 'SALT    ','USLTMASS','VSLTMASS','WSLTMASS',
(PID.TID 0000.0001) ># do not specify levels => all levels are selected
(PID.TID 0000.0001) >   filename(2) = 'dynDiag',
(PID.TID 0000.0001) >  frequency(2) = 1555200000.,
(PID.TID 0000.0001) >   fields(1,3) = 'DRHODR  ','RHOAnoma','CONVADJ ',
(PID.TID 0000.0001) >                 'GM_PsiX ','GM_PsiY ',
(PID.TID 0000.0001) >                 'GM_Kwx  ','GM_Kwy  ','GM_Kwz  ',
(PID.TID 0000.0001) >                 'GM_Kux  ','GM_Kvy  ',
(PID.TID 0000.0001) >                 'GM_Kuz  ','GM_Kvz  ',
(PID.TID 0000.0001) >#- disable this output list by commenting out the file name
(PID.TID 0000.0001) >#  filename(3) = 'oceDiag',
(PID.TID 0000.0001) >  frequency(3) = 1555200000.,
(PID.TID 0000.0001) >   fields(1,4) = 'ADVx_TH ','ADVy_TH ','ADVr_TH ',
(PID.TID 0000.0001) >                 'DFxE_TH ','DFyE_TH ','DFrE_TH ',
(PID.TID 0000.0001) >                 'DFrI_TH ',
(PID.TID 0000.0001) >#                'ADVx_SLT',
(PID.TID 0000.0001) >#  filename(4) = 'flxDiag',
(PID.TID 0000.0001) >  frequency(4) = 1728000.,
(PID.TID 0000.0001) >   fields(1,5) = 'SI_Fract','SI_Thick','SI_SnowH',
(PID.TID 0000.0001) >                 'SI_Tsrf ','SI_Tice1','SI_Tice2',
(PID.TID 0000.0001) >                 'SI_Qice1','SI_Qice2','SIsnwAge',
(PID.TID 0000.0001) >                 'SIsnwPrc','SIalbedo',
(PID.TID 0000.0001) >                 'SIflx2oc','SIfrw2oc','SIsaltFx',
(PID.TID 0000.0001) >                 'SIflxAtm','SIfrwAtm',
(PID.TID 0000.0001) >#                'SItOcMxL','SIsOcMxL',
(PID.TID 0000.0001) >   filename(5) = 'thSIceDiag',
(PID.TID 0000.0001) >  frequency(5) = 1555200000.,
(PID.TID 0000.0001) > averagingFreq(5) = 2592000.,
(PID.TID 0000.0001) >   repeatCycle(5) = 12,
(PID.TID 0000.0001) >#--- to check conservation of Volume, Heat & Salt (with z*+realFW+AB_2):
(PID.TID 0000.0001) >   fields(1,6) = 'ETAN    ','oceFWflx',
(PID.TID 0000.0001) >   filename(6) = 'surfInst',
(PID.TID 0000.0001) >  frequency(6) = -777600.,
(PID.TID 0000.0001) >  timePhase(6) = 0.,
(PID.TID 0000.0001) >   fields(1,7) = 'ETAN    ',
(PID.TID 0000.0001) >   filename(7) = 'etaInst',
(PID.TID 0000.0001) >  frequency(7) = -777600.,
(PID.TID 0000.0001) >  timePhase(7) = 86400.,
(PID.TID 0000.0001) >   fields(1,8) = 'THETA   ','SALT    ',
(PID.TID 0000.0001) >   filename(8) = 'dynInst',
(PID.TID 0000.0001) >  frequency(8) = -777600.,
(PID.TID 0000.0001) >  timePhase(8) = 0.,
(PID.TID 0000.0001) > /
(PID.TID 0000.0001) >
(PID.TID 0000.0001) ># Parameter for Diagnostics of per level statistics:
(PID.TID 0000.0001) >#-----------------
(PID.TID 0000.0001) ># for each output-stream:
(PID.TID 0000.0001) >#  stat_fname(n) : prefix of the output file name (only 8.c long) for outp.stream n
(PID.TID 0000.0001) >#  stat_freq(n):< 0 : write snap-shot output every |stat_freq| seconds
(PID.TID 0000.0001) >#               > 0 : write time-average output every stat_freq seconds
(PID.TID 0000.0001) >#  stat_phase(n)    : write at time = stat_phase + multiple of |stat_freq|
(PID.TID 0000.0001) >#  stat_region(:,n) : list of "regions" (default: 1 region only=global)
(PID.TID 0000.0001) >#  stat_fields(:,n) : list of diagnostics fields (8.c) (see "available_diagnostics.log"
(PID.TID 0000.0001) >#                 file for the list of all available diag. in this particular config)
(PID.TID 0000.0001) >#-----------------
(PID.TID 0000.0001) > &DIAG_STATIS_PARMS
(PID.TID 0000.0001) >#- regional mask: 3 lat. band: 1 : y <= -24 ; 2 : -24<y<24 ; 3 : 24 <= y
(PID.TID 0000.0001) > diagSt_regMaskFile='regMask_lat24.bin',
(PID.TID 0000.0001) > nSetRegMskFile=1,
(PID.TID 0000.0001) > set_regMask(1)= 1,  1,  1,
(PID.TID 0000.0001) > val_regMask(1)= 1., 2., 3.,
(PID.TID 0000.0001) >#---
(PID.TID 0000.0001) > stat_fields(1,1)= 'ETAN    ','ETANSQ  ','DETADT2 ',
(PID.TID 0000.0001) >#                  'UVEL    ','VVEL    ','WVEL    ',
(PID.TID 0000.0001) >                   'THETA   ','SALT    ','CONVADJ ',
(PID.TID 0000.0001) >    stat_fname(1)= 'dynStDiag',
(PID.TID 0000.0001) >     stat_freq(1)= 864000.,
(PID.TID 0000.0001) >#--- to check conservation of Volume, Heat & Salt (with z*+realFW+AB_2):
(PID.TID 0000.0001) > stat_fields(1,2)= 'oceTAUX ','oceTAUY ','TRELAX  ','SRELAX  ',
(PID.TID 0000.0001) >                   'surForcT','surForcS','TFLUX   ','SFLUX   ',
(PID.TID 0000.0001) >                   'oceQnet ','oceSflux','oceFWflx',
(PID.TID 0000.0001) >    stat_fname(2)= 'surfStDiag',
(PID.TID 0000.0001) >     stat_freq(2)= 777600.,
(PID.TID 0000.0001) >    stat_phase(2)= 86400.,
(PID.TID 0000.0001) > stat_fields(1,3)= 'ETAN    ','THETA   ','SALT    ',
(PID.TID 0000.0001) >    stat_fname(3)= 'instStDiag',
(PID.TID 0000.0001) >     stat_freq(3)= -777600.,
(PID.TID 0000.0001) >    stat_phase(3)= 86400.,
(PID.TID 0000.0001) >#---
(PID.TID 0000.0001) > stat_fields(1,5)= 'SI_Fract','SI_Thick','SI_SnowH',
(PID.TID 0000.0001) >                   'SI_Tsrf ','SI_Tice1','SI_Tice2',
(PID.TID 0000.0001) >                   'SI_Qice1','SI_Qice2',
(PID.TID 0000.0001) >                   'SIsnwPrc','SIalbedo','SIsnwAge',
(PID.TID 0000.0001) >                   'SIflx2oc','SIfrw2oc','SIsaltFx',
(PID.TID 0000.0001) >                   'SIflxAtm','SIfrwAtm',
(PID.TID 0000.0001) >#                  'SItOcMxL','SIsOcMxL',
(PID.TID 0000.0001) > stat_region(1,5)= 1, 3, 0,
(PID.TID 0000.0001) >    stat_fname(5)= 'thSIceStDiag',
(PID.TID 0000.0001) >     stat_freq(5)= 864000.,
(PID.TID 0000.0001) > /
(PID.TID 0000.0001) >
(PID.TID 0000.0001) 
(PID.TID 0000.0001) S/R DIAGNOSTICS_READPARMS, read namelist "diagnostics_list": start
(PID.TID 0000.0001) S/R DIAGNOSTICS_READPARMS, read namelist "diagnostics_list": OK
(PID.TID 0000.0001) S/R DIAGNOSTICS_READPARMS, read namelist "DIAG_STATIS_PARMS": start
(PID.TID 0000.0001) S/R DIAGNOSTICS_READPARMS, read namelist "DIAG_STATIS_PARMS": OK
(PID.TID 0000.0001) -----------------------------------------------------
(PID.TID 0000.0001)  DIAGNOSTICS_READPARMS: active diagnostics summary:
(PID.TID 0000.0001) -----------------------------------------------------
(PID.TID 0000.0001) Creating Output Stream: surfDiag
(PID.TID 0000.0001) Output Frequency: 1555200000.000000 ; Phase:           0.000000
(PID.TID 0000.0001)  Averaging Freq.: 1555200000.000000 , Phase:           0.000000 , Cycle:   1
(PID.TID 0000.0001)  missing value:  1.234567000000E+05 ; for integers:   123456789
(PID.TID 0000.0001)  Levels:       1.
(PID.TID 0000.0001)  Fields:    ETAN     ETANSQ   DETADT2  PHIBOT   PHIBOTSQ oceTAUX  oceTAUY  TRELAX   SRELAX   surForcT
(PID.TID 0000.0001)  Fields:    surForcS TFLUX    SFLUX    oceQsw   oceQnet  oceSflux oceFWflx
(PID.TID 0000.0001) Creating Output Stream: dynDiag
(PID.TID 0000.0001) Output Frequency: 1555200000.000000 ; Phase:           0.000000
(PID.TID 0000.0001)  Averaging Freq.: 1555200000.000000 , Phase:           0.000000 , Cycle:   1
(PID.TID 0000.0001)  missing value:  1.234567000000E+05 ; for integers:   123456789
(PID.TID 0000.0001)  Levels:    will be set later
(PID.TID 0000.0001)  Fields:    UVEL     VVEL     WVEL     PHIHYD   VVELMASS UVELMASS WVELSQ   THETA    UTHMASS  VTHMASS
(PID.TID 0000.0001)  Fields:    WTHMASS  SALT     USLTMASS VSLTMASS WSLTMASS
(PID.TID 0000.0001) Creating Output Stream: thSIceDiag
(PID.TID 0000.0001) Output Frequency: 1555200000.000000 ; Phase:           0.000000
(PID.TID 0000.0001)  Averaging Freq.:    2592000.000000 , Phase:           0.000000 , Cycle:  12
(PID.TID 0000.0001)  missing value:  1.234567000000E+05 ; for integers:   123456789
(PID.TID 0000.0001)  Levels:    will be set later
(PID.TID 0000.0001)  Fields:    SI_Fract SI_Thick SI_SnowH SI_Tsrf  SI_Tice1 SI_Tice2 SI_Qice1 SI_Qice2 SIsnwAge SIsnwPrc
(PID.TID 0000.0001)  Fields:    SIalbedo SIflx2oc SIfrw2oc SIsaltFx SIflxAtm SIfrwAtm
(PID.TID 0000.0001) Creating Output Stream: surfInst
(PID.TID 0000.0001) Output Frequency:    -777600.000000 ; Phase:           0.000000
(PID.TID 0000.0001)  Averaging Freq.:          0.000000 , Phase:           0.000000 , Cycle:   1
(PID.TID 0000.0001)  missing value:  1.234567000000E+05 ; for integers:   123456789
(PID.TID 0000.0001)  Levels:    will be set later
(PID.TID 0000.0001)  Fields:    ETAN     oceFWflx
(PID.TID 0000.0001) Creating Output Stream: etaInst
(PID.TID 0000.0001) Output Frequency:    -777600.000000 ; Phase:       86400.000000
(PID.TID 0000.0001)  Averaging Freq.:          0.000000 , Phase:           0.000000 , Cycle:   1
(PID.TID 0000.0001)  missing value:  1.234567000000E+05 ; for integers:   123456789
(PID.TID 0000.0001)  Levels:    will be set later
(PID.TID 0000.0001)  Fields:    ETAN
(PID.TID 0000.0001) Creating Output Stream: dynInst
(PID.TID 0000.0001) Output Frequency:    -777600.000000 ; Phase:           0.000000
(PID.TID 0000.0001)  Averaging Freq.:          0.000000 , Phase:           0.000000 , Cycle:   1
(PID.TID 0000.0001)  missing value:  1.234567000000E+05 ; for integers:   123456789
(PID.TID 0000.0001)  Levels:    will be set later
(PID.TID 0000.0001)  Fields:    THETA    SALT
(PID.TID 0000.0001) -----------------------------------------------------
(PID.TID 0000.0001)  DIAGNOSTICS_READPARMS: statistics diags. summary:
(PID.TID 0000.0001) Creating Stats. Output Stream: dynStDiag
(PID.TID 0000.0001) Output Frequency:     864000.000000 ; Phase:           0.000000
(PID.TID 0000.0001)  Regions:   0
(PID.TID 0000.0001)  Fields:    ETAN     ETANSQ   DETADT2  THETA    SALT     CONVADJ
(PID.TID 0000.0001) Creating Stats. Output Stream: surfStDiag
(PID.TID 0000.0001) Output Frequency:     777600.000000 ; Phase:       86400.000000
(PID.TID 0000.0001)  Regions:   0
(PID.TID 0000.0001)  Fields:    oceTAUX  oceTAUY  TRELAX   SRELAX   surForcT surForcS TFLUX    SFLUX    oceQnet  oceSflux
(PID.TID 0000.0001)  Fields:    oceFWflx
(PID.TID 0000.0001) Creating Stats. Output Stream: instStDiag
(PID.TID 0000.0001) Output Frequency:    -777600.000000 ; Phase:       86400.000000
(PID.TID 0000.0001)  Regions:   0
(PID.TID 0000.0001)  Fields:    ETAN     THETA    SALT
(PID.TID 0000.0001) Creating Stats. Output Stream: thSIceStDiag
(PID.TID 0000.0001) Output Frequency:     864000.000000 ; Phase:           0.000000
(PID.TID 0000.0001)  Regions:   0  1  3
(PID.TID 0000.0001)  Fields:    SI_Fract SI_Thick SI_SnowH SI_Tsrf  SI_Tice1 SI_Tice2 SI_Qice1 SI_Qice2 SIsnwPrc SIalbedo
(PID.TID 0000.0001)  Fields:    SIsnwAge SIflx2oc SIfrw2oc SIsaltFx SIflxAtm SIfrwAtm
(PID.TID 0000.0001) -----------------------------------------------------
(PID.TID 0000.0001) 
(PID.TID 0000.0001) SET_PARMS: done
(PID.TID 0000.0001) Enter INI_VERTICAL_GRID: setInterFDr=    T ; setCenterDr=    F
(PID.TID 0000.0001) tile:   1 ; Read from file grid_cs32.face001.bin
(PID.TID 0000.0001)   => xC yC dxF dyF rA xG yG dxV dyU rAz dxC dyC rAw rAs dxG dyG AngleCS AngleSN
(PID.TID 0000.0001) tile:   2 ; Read from file grid_cs32.face001.bin
(PID.TID 0000.0001)   => xC yC dxF dyF rA xG yG dxV dyU rAz dxC dyC rAw rAs dxG dyG AngleCS AngleSN
(PID.TID 0000.0001) tile:   3 ; Read from file grid_cs32.face002.bin
(PID.TID 0000.0001)   => xC yC dxF dyF rA xG yG dxV dyU rAz dxC dyC rAw rAs dxG dyG AngleCS AngleSN
(PID.TID 0000.0001) tile:   4 ; Read from file grid_cs32.face002.bin
(PID.TID 0000.0001)   => xC yC dxF dyF rA xG yG dxV dyU rAz dxC dyC rAw rAs dxG dyG AngleCS AngleSN
(PID.TID 0000.0001) tile:   5 ; Read from file grid_cs32.face003.bin
(PID.TID 0000.0001)   => xC yC dxF dyF rA xG yG dxV dyU rAz dxC dyC rAw rAs dxG dyG AngleCS AngleSN
(PID.TID 0000.0001) tile:   6 ; Read from file grid_cs32.face003.bin
(PID.TID 0000.0001)   => xC yC dxF dyF rA xG yG dxV dyU rAz dxC dyC rAw rAs dxG dyG AngleCS AngleSN
(PID.TID 0000.0001) tile:   7 ; Read from file grid_cs32.face004.bin
(PID.TID 0000.0001)   => xC yC dxF dyF rA xG yG dxV dyU rAz dxC dyC rAw rAs dxG dyG AngleCS AngleSN
(PID.TID 0000.0001) tile:   8 ; Read from file grid_cs32.face004.bin
(PID.TID 0000.0001)   => xC yC dxF dyF rA xG yG dxV dyU rAz dxC dyC rAw rAs dxG dyG AngleCS AngleSN
(PID.TID 0000.0001) tile:   9 ; Read from file grid_cs32.face005.bin
(PID.TID 0000.0001)   => xC yC dxF dyF rA xG yG dxV dyU rAz dxC dyC rAw rAs dxG dyG AngleCS AngleSN
(PID.TID 0000.0001) tile:  10 ; Read from file grid_cs32.face005.bin
(PID.TID 0000.0001)   => xC yC dxF dyF rA xG yG dxV dyU rAz dxC dyC rAw rAs dxG dyG AngleCS AngleSN
(PID.TID 0000.0001) tile:  11 ; Read from file grid_cs32.face006.bin
(PID.TID 0000.0001)   => xC yC dxF dyF rA xG yG dxV dyU rAz dxC dyC rAw rAs dxG dyG AngleCS AngleSN
(PID.TID 0000.0001) tile:  12 ; Read from file grid_cs32.face006.bin
(PID.TID 0000.0001)   => xC yC dxF dyF rA xG yG dxV dyU rAz dxC dyC rAw rAs dxG dyG AngleCS AngleSN
(PID.TID 0000.0001) %MON XC_max                       =   1.7854351589505E+02
(PID.TID 0000.0001) %MON XC_min                       =  -1.7854351589505E+02
(PID.TID 0000.0001) %MON XC_mean                      =  -1.4199289892029E-14
(PID.TID 0000.0001) %MON XC_sd                        =   1.0355545336287E+02
(PID.TID 0000.0001) %MON XG_max                       =   1.8000000000000E+02
(PID.TID 0000.0001) %MON XG_min                       =  -1.7708797161002E+02
(PID.TID 0000.0001) %MON XG_mean                      =   1.8603515625000E+00
(PID.TID 0000.0001) %MON XG_sd                        =   1.0357130300504E+02
(PID.TID 0000.0001) %MON DXC_max                      =   3.2375185836900E+05
(PID.TID 0000.0001) %MON DXC_min                      =   1.1142031410131E+05
(PID.TID 0000.0001) %MON DXC_mean                     =   2.8605689051214E+05
(PID.TID 0000.0001) %MON DXC_sd                       =   3.4042087138252E+04
(PID.TID 0000.0001) %MON DXF_max                      =   3.2369947500827E+05
(PID.TID 0000.0001) %MON DXF_min                      =   1.2020820513318E+05
(PID.TID 0000.0001) %MON DXF_mean                     =   2.8605437324820E+05
(PID.TID 0000.0001) %MON DXF_sd                       =   3.4050524252539E+04
(PID.TID 0000.0001) %MON DXG_max                      =   3.2375195872773E+05
(PID.TID 0000.0001) %MON DXG_min                      =   1.0098378008791E+05
(PID.TID 0000.0001) %MON DXG_mean                     =   2.8603818508931E+05
(PID.TID 0000.0001) %MON DXG_sd                       =   3.4140406908005E+04
(PID.TID 0000.0001) %MON DXV_max                      =   3.2380418162750E+05
(PID.TID 0000.0001) %MON DXV_min                      =   8.0152299824136E+04
(PID.TID 0000.0001) %MON DXV_mean                     =   2.8603970633619E+05
(PID.TID 0000.0001) %MON DXV_sd                       =   3.4145142117723E+04
(PID.TID 0000.0001) %MON YC_max                       =   8.7940663871962E+01
(PID.TID 0000.0001) %MON YC_min                       =  -8.7940663871962E+01
(PID.TID 0000.0001) %MON YC_mean                      =  -2.3684757858670E-15
(PID.TID 0000.0001) %MON YC_sd                        =   3.8676242969072E+01
(PID.TID 0000.0001) %MON YG_max                       =   9.0000000000000E+01
(PID.TID 0000.0001) %MON YG_min                       =  -9.0000000000000E+01
(PID.TID 0000.0001) %MON YG_mean                      =  -4.1448326252673E-15
(PID.TID 0000.0001) %MON YG_sd                        =   3.8676895860710E+01
(PID.TID 0000.0001) %MON DYC_max                      =   3.2375185836900E+05
(PID.TID 0000.0001) %MON DYC_min                      =   1.1142031410131E+05
(PID.TID 0000.0001) %MON DYC_mean                     =   2.8605689051214E+05
(PID.TID 0000.0001) %MON DYC_sd                       =   3.4042087138252E+04
(PID.TID 0000.0001) %MON DYF_max                      =   3.2369947500827E+05
(PID.TID 0000.0001) %MON DYF_min                      =   1.2020820513318E+05
(PID.TID 0000.0001) %MON DYF_mean                     =   2.8605437324820E+05
(PID.TID 0000.0001) %MON DYF_sd                       =   3.4050524252539E+04
(PID.TID 0000.0001) %MON DYG_max                      =   3.2375195872773E+05
(PID.TID 0000.0001) %MON DYG_min                      =   1.0098378008791E+05
(PID.TID 0000.0001) %MON DYG_mean                     =   2.8603818508931E+05
(PID.TID 0000.0001) %MON DYG_sd                       =   3.4140406908005E+04
(PID.TID 0000.0001) %MON DYU_max                      =   3.2380418162750E+05
(PID.TID 0000.0001) %MON DYU_min                      =   8.0152299824136E+04
(PID.TID 0000.0001) %MON DYU_mean                     =   2.8603970633619E+05
(PID.TID 0000.0001) %MON DYU_sd                       =   3.4145142117723E+04
(PID.TID 0000.0001) %MON RA_max                       =   1.0479260248419E+11
(PID.TID 0000.0001) %MON RA_min                       =   1.4019007022556E+10
(PID.TID 0000.0001) %MON RA_mean                      =   8.2992246709265E+10
(PID.TID 0000.0001) %MON RA_sd                        =   1.7509089299457E+10
(PID.TID 0000.0001) %MON RAW_max                      =   1.0480965274559E+11
(PID.TID 0000.0001) %MON RAW_min                      =   1.2166903467143E+10
(PID.TID 0000.0001) %MON RAW_mean                     =   8.2992246709235E+10
(PID.TID 0000.0001) %MON RAW_sd                       =   1.7481917919656E+10
(PID.TID 0000.0001) %MON RAS_max                      =   1.0480965274559E+11
(PID.TID 0000.0001) %MON RAS_min                      =   1.2166903467143E+10
(PID.TID 0000.0001) %MON RAS_mean                     =   8.2992246709235E+10
(PID.TID 0000.0001) %MON RAS_sd                       =   1.7481917919656E+10
(PID.TID 0000.0001) %MON RAZ_max                      =   1.0484349334619E+11
(PID.TID 0000.0001) %MON RAZ_min                      =   8.8317900612505E+09
(PID.TID 0000.0001) %MON RAZ_mean                     =   8.2992246709235E+10
(PID.TID 0000.0001) %MON RAZ_sd                       =   1.7482297311044E+10
(PID.TID 0000.0001) %MON AngleCS_max                  =   9.9999994756719E-01
(PID.TID 0000.0001) %MON AngleCS_min                  =  -9.9968286884824E-01
(PID.TID 0000.0001) %MON AngleCS_mean                 =   3.3078850405987E-01
(PID.TID 0000.0001) %MON AngleCS_sd                   =   6.2496317138039E-01
(PID.TID 0000.0001) %MON AngleSN_max                  =   9.9968286884824E-01
(PID.TID 0000.0001) %MON AngleSN_min                  =  -9.9999994756719E-01
(PID.TID 0000.0001) %MON AngleSN_mean                 =  -3.3078850405987E-01
(PID.TID 0000.0001) %MON AngleSN_sd                   =   6.2496317138039E-01
(PID.TID 0000.0001)  MDS_READ_FIELD: opening global file: bathy_Hmin50.bin
(PID.TID 0000.0001) // =======================================================
(PID.TID 0000.0001) // Field Model R_low (ini_masks_etc) at iteration          1
(PID.TID 0000.0001) // CMIN =         -5.200000000000000E+03
(PID.TID 0000.0001) // CMAX =         -5.000000000000000E+01
(PID.TID 0000.0001) // CINT =          1.907407407407407E+02
(PID.TID 0000.0001) // SYMBOLS (CMIN->CMAX): -abcdefghijklmnopqrstuvwxyz+
(PID.TID 0000.0001) //                  0.0: .
(PID.TID 0000.0001) // RANGE I (Lo:Hi:Step):(    -3:   388:     1)
(PID.TID 0000.0001) // RANGE J (Lo:Hi:Step):(    20:    -3:    -1)
(PID.TID 0000.0001) // RANGE K (Lo:Hi:Step):(   1:   1:   1)
(PID.TID 0000.0001) // =======================================================
(PID.TID 0000.0001) K =   1
(PID.TID 0000.0001) //                I=6       I=16      I=26      I=36      I=38      I=48      I=58      I=68      I=70      I=80      I=90      I=100     I=102     I=112     I=122     I=132     I=134     I=144     I=154     I=164     I=166     I=176     I=186     I=196     I=198     I=208     I=218     I=228     I=230     I=240     I=250     I=260     I=262     I=272     I=282     I=292     I=294     I=304     I=314     I=324     I=326     I=336     I=346     I=356     I=358     I=368     I=378     I=388
(PID.TID 0000.0001) // |--J--|321012345|789012345|789012345|789012345|901234567|901234567|901234567|901234567|123456789|123456789|123456789|123456789|345678901|345678901|345678901|345678901|567890123|567890123|567890123|567890123|789012345|789012345|789012345|789012345|901234567|901234567|901234567|901234567|123456789|123456789|123456789|123456789|345678901|345678901|345678901|345678901|567890123|567890123|567890123|567890123|789012345|789012345|789012345|789012345|901234567|901234567|901234567|901234567|
(PID.TID 0000.0001) //     20 fbbbcgfcaa-aae+.......................lccbbc-ddcbcdehkhhmn..++........................lcgfdddhq.+hiilnz++.+oquxyz--adgkf................................okn.skkodcaabcfmtooyxz......+yuiiy....++gb--------a-fc----bba-cp.............tfeecccbbdegb--------ddcca-a-----acbaa------bbaaaabecccbbdeddedcdcccdddcddffggghiggfffdeeff........ywxy.lulo.lv...kcdgddffefffilyx+ijlihjlica---a--cgffel.+edfgeedflcbahgflfffilyx+fffk.+xyyy.........mgeimvskjkllllcbahgfllfhdffhkfffca-aady...llnabdoa--a
(PID.TID 0000.0001) //     19 zmfeccdghfeegcbt......................aadcac--cbbeefjkfefw+..........zpu..............aafifccgnrzgghjry.+++sr+lq.--edfkk................................kqnzrqqkoxtkblwnnsp.vv......skhggt...+++t---------b-da----bbbbfu..............fdddccaadct---------bdaf---------edd-------adlaaaaddccaadcdddcbbbbcdddcccdffffghgffffddeff+..........vnhzy.tllqiedccdhggfggffiiggflligfiljfba---aafddehy...pwvlhfffcbagfccgffiiggfcbdgy..yz..........xigqophijkkiifcbagfcceeffffjlkjgaa---bfvheeln-aesaaab
(PID.TID 0000.0001) //     18 ..wifedfkhfegbbcivlqfoz..............jaad--ba-abcehjnldcclz+........spps.............jaacfihggokeeffgt..++++..hhlfdeddke...............................vkqn+xnnnz..qcz+.zwxtsttz..ysrkhot++++++zig------cabbcbba--aabfu+..............hcbaaaaaccig--------b--f---------egqqqaa----frb---baaaaaccdccbaaabbddddccdffffghfeeeeedeff+........+kkrhw.vqmlnieddcdehgggffgigedbjiffefilhfcaaaacgceei.......zomggfcaecbbffgigedbaaceiy.............zilrddefikkhhgfcaecbbccddefilihecbaacbaajfega-aesfeed
(PID.TID 0000.0001) //     17 ..+wfeefikhgcbbccaaacgn.............icaa--abbbccceiomkfdbbc+.......+s...............icaaccfihfoedddeedy..++...nnqwgfeeke...............................xsrxzz+z.yy.z++..+zsjjllllljllpjos+++.+zhhi-----efdcddb-----adu+...............hcbaa--acchi-----e-----ea--------foqqoqqo--hlwgea-baa--accddba--bbbddddccdfffhhgfeeddccedd.........+nk+..xiioonhfefddegihhghigfdbahfeddfgikhfffdfgccffw........zohhgebbaaaghigfdbaaabdgx..............nheddefiklhghgebbaaaaaccdfhlhfefdcccaabjefbaaafoosso
(PID.TID 0000.0001) //     16 ....wiheddeccdfhfbabdfl............jdbad--bddefhhkqqlgfaakqz..v.+..+...............jdbaddddgifkccccdccd+.++..++ynvz.tkkq.............................++..u+....z.mu....++zyslllllkhggkmpy++...ihhi-----eigfdba----adu+................kdcaaa-acchi-----ea---feb-----a-acnoohfghknvmwnucacaaa-accdcb---bbbcdddddefffggfeeedcccccb..........qhu..hhhkojgffgeefghihhiieedbaccbbdcdfgghhiihcbeiw.........+ynjgebaaaahiieedbaaabcdy..............ygddeghiljgfjgebaaaa-aacccfikkhecccbbbaaabaadfklnqpp
(PID.TID 0000.0001) //     15 ......ylea--acfihebcbbes..........sfcbbnabbcffijnpnqneaaat..umrr+s.z..............sfcbbngfffigcaaabdbcac+.+++++zgmpx...y.............................+++++.ztsvd.mm....++..zslwz.yhhhhnz+++...rhgc----ablifeb--dfdfu+................+lkdca--abcgc----ab----ige----acaaalllkddfiy..yswxbdca--abcccb---bbbbddddeffflhfeeeecbbbbaa..........thk.xgghiligfghfefhhhhiiheedcdba-abbacbcdceffbbfw+..........++ujfbaaa-iiheedcdbbabdmz.............zfdeghikkifdujfbaaa----aacffiljgfffcca--adfikkiihhhf
(PID.TID 0000.0001) //     14 ........c---acgkhdcc--di..........ofddch--adgillkkkifcadcx.ymmqzqikvnnps..........ofddchohffikaaaaabaaa-aw+.+ysnggox++...............................+++++wmegt-.qrv..........yzzzzrjil+++....qhgd-----ajlifcacdlqx+++...............mligea---abgd-----a-----i---cccdeabkklldinqssy..xxvgea---abbbb---abaaddddeedkmeddefdbbbaaaa...........+y.uhghikihgfghefgihhhgeeeeedbc---b--aaaaabaabm..............+viba---hgeeeeeddbaadhw.............nedeghjjhfed+viba-------acdefinmlgiieb-chnnnmlmlgffc
(PID.TID 0000.0001) //     13 .......+b----cfkhec---afz.........nhfdff--cfiljigfjd--efdozy...+ximpnnuz..........nhfdffholghkaaaaaba-a---flkkuswyy++++y..............................+++yqddhp-+zr...........zzzzz++ry++......yd-------iljhcbbchz+......++.........+mmhffc----ad--------------aeecdeidfkkqnqlmqquukqqmfffc----aaba------acdddcbcineddgdbaaa----..............iihiijjhfefgefhjihiffgggffcdd--a------aa-bfz...............+qe---aiffgggffecaabelx...........zjecehijhfecc.+qe---aa---aedeegknmlgiigcdfhpokkimlfdb
(PID.TID 0000.0001) //     12 .......ec----chjhec---ag..........skiqdd-abgkhfcccea-bdei........t................skiqddeiiiifaaabae--a---dd--iu+++.+++s..............................++zwgfcfk-xq++..........+z+++++.+++....++.s-------gknhccbbhwwy.....+++........+njfeed-----s------------a-ceccdejhlllkqlkklssiccdeeeed-----aa-------abddcabcnfddegcaaa-----.............wjkkkjjjigeefffgjiiighiiihhhlf------------dk+................+ja---ighiiihhhdaabdffghtxx......mfccehjiffdb-..+ja------bffdddehfd--bedaacfhpnligiihd
(PID.TID 0000.0001) //     11 ......pdca--achlheba--ai..........nkn.fd-acghfbaaaa-achmy......................+..nkn.fdemijidaaaabi-------a--q+....++.z.......+++....................++vnbbbcleiis...........+++++..........+yyza----b-fkpkeeecflmqxy....++........+lhfeecc----za----b-----a--ccccddkhieekkossssfbbbbcdeecc------------aaadcbabcfhddccba-------............njjijhhihijhgggggjjjjijkkkkjzqd-----------irw.................++e---jijkkkkjjhcaacddeegpy.....xfdccdhjgfdda-..++e-----mhmijddda--------ahhfiokhedegg
(PID.TID 0000.0001) //     10 ......wfdb--achlhea---an.........uos..dc-adhfca-----bfiv.......................+.uos..dcemikkfdcaabi-------equ+................++sy...................+tq-fdbblcmk...........................zyvuq----ccjknqiheddefhiksz++++........zkhfdccb----uq----cc----a---dcfhkopqjeissrnpfbbcccdedccb------------aabdcaaaacfddbca-------a..........zslihhigghgijjihhhhkllkkkkkkjk+xfa-abb-----vvv...................+wa--kkkkkkjkkkedccdeeeeipz..zwhccbcdhgfddcam...+wa---mlmkijhc----------cjjffiheb-aad
(PID.TID 0000.0001) //      9 ......vgec---bfikca--cjl+.......+nnv.+cc-achfa------ch+..................w......+nnv.+ccffhkkiddaadha-----as++...........w.......njo+................+x-----bcgipvz++........................zxuuk------diqqojfefiiiijmy.++.........zkhfdbaa----uk------a---a----djmqrrnlllsoiddcccccdjfdbaa-------daa---acccaaaacccca--------ac.........+zjijhfgfggffhjkkkiillljihhghgi.+udaabbb----tei...................++qdejihhghgihighdeeffgghimnnjgecbbcdgfeccbas...++qdeqnghiljcaaaaidaa----beedeeca--bb
(PID.TID 0000.0001) //      8 .....zleca---afjfca--hdfz.......vkky.jceaaeifa--acbcei...................w......vkky.jceddefijffdddhb--a-afv.............w.......likn+.....++.....++znpa----bbdinn..ss.........................+yku------fnlmnjhinlksssw............qhfeca------yku--------------ejnpqqnninnritqdccchkmfca--------addc--aeffaaaaaaccb-a----a--bd+.......wihgghgeffffeefhijkjkljiigeeffef.++udbbaba---ven....................++xyigeeffefffhjhhikkklljklmhffeeeggfdcbaay.....++xywnfgllcbbabegkecba----ddddcaacdc
(PID.TID 0000.0001) //      7 ...+zohec--abcfkhecbchbdx.......qiht.faaabfida-aabchjk...................zz.....qiht.faaaabdgijgfededcdcb-f+.............zz.....nhhijz....tqq.....+ujgzgd---abcinn...pz.........................+zu------cegklkkknols..xuu..........zgfdba------+zu--------------edefqgqddsz+......+yuddba--------bcd---affaaadffabbb-----aa-bccmm+....tiggfggfeeeefeeefiiiijkiihheddddd.+.+ufb-----l.gx...........s.........++zhheddddddddjjllliijhfkmmkkjjhijgdcba--q......++zzkfilfccccoz..ulkcd---bccnfddddd
(PID.TID 0000.0001) //      6 ..+yomfddcaabefkifdchaadt......uqdeisc---afhfaa---bfgi....................zz..rnqdeisc----dfefgifffkklldc--v..............zz..rnjffggm...nlmn+....+sffzya--aabciup...pp.........................v.x-----eaaffdfhimrmp...yuu.++.......zudba------v.x---------a----fbbpqgzenx+........zdbcba--------adc---dda-adffe-aa--------aaacmllkhhfffffffgfeeeeeeeefhhhhijihhffddcbb....+ufc-baaqvhh..........dcfeeh......++hffddcbbbbdhhiihedddb-cfhhhjjjieca----+.......++zggqvifefhz......zobbaccfwuffeee
(PID.TID 0000.0001) //      5 ..+nhgffkghccfhkhffgdaackz....uoibcimlaababcgca----abe.....................ysstlibcimlaaacfbddfjjhijeehf-a-c...............ysstlgeeeeoz..ijklt+....lfjzzf---adfczs...su.........................qk.yi---fdaadcehllotq....yy+++zzs.....+zcba-----qk.yi-------gha-fjddqs+xkrz.........q-bccba-------cdd--aaa----df------------aaachikdccdeeeeeeedddedddddgghhhhjhhgffcbbaa.....+upjdcy.vohq.......+idcdfeeefwz....gffcbbaaaaddfegecca----dfeefhfgdb-----+.efwz....+hhn.vklox.........gdccfjwrigffh
(PID.TID 0000.0001) //      4 .+ujhgfllfhdffhkfffca-aady...llnabdopfcbfbbbcgfcaa-aae+.......................lcabdopfcbdgdbcdehlihgfddc--ms..................lcgfdddhq.+hiilnz++.+oquxyz--adgkf................................okn.zd--dcaabcfmtooyxz......+yuiiy....++gb------okn.zd---eciiiicfkeeqy.ysz..........n-aagb--------ddcca-a-----acbaa------bbaaaabfgdcbbdeddedcdcccdddcddffggghiggfffdbaa-........ywxy.lulo.lv...kcdgddffefffilyx+fffdbaa---acdcccba--abvfedeffdcca----b+.fffilyx+fffk.+xyyy.........mgeimvskjklll
(PID.TID 0000.0001) //      3 +vjggfcceeffffjlkjgaa---bfvheeln-aesphfdzmfeccdghfeegcbt......................aa-aesphfdhgabddeflihhgfecbaaayq+++++...........aafifccgnrzgghjry.+++sr+lq.--edfkk................................kqnz.vtpoxtkblwnnsp.vv......skhggt...+++t-------kqnz.vtpkllgdccfkkkkk..++..........+g---t---------bdaf---------edd-------adlaaaafecaaadcdddcbbbbcdddcccdffffghgffffdcaa-+..........vnhzy.tllqiedccdhggfggffiiggffffdcaa----abcaaaa-acxxmecdjmdbba----r+.gffiiggfcbdgy..yz..........xigqophijkkii
(PID.TID 0000.0001) //      2 qifeecbbccddefilihecbaacbaajfega-aesqhff..wifedfkhfegbbcivlqfoz..............jaa-aesqhffiea-cdeflkkljifeddcba---bry+.........jaacfihggokeeffgt..++++..hhlfdeddke...............................vkqn+.sghz..qcz+.zwxtsttz..ysrkhot++++++zig------kqn+.sghfcbcbbbdgfdek.++++.........+l---ig--------b--f---------egqqqaa----frb---caaaaaccdccbaaabbddddccdffffghfeeeeecba-+........+kkrhw.vqmlnieddcdehgggffgigedbeeeecba------baaaa-euwxqdbcdkud-----sy+.ffgigedbaaceiy.............zilrddefikkhh
(PID.TID 0000.0001) //      1 ebbbbaaaaaccdfhlhfefdcccaabjefbaaafonhgl..+wfeefikhgcbbccaaacgn.............icaaaafonhglid--adfgkkkklkhffddca-----s++++.....icaaccfihfoedddeedy..++...nnqwgfeeke...............................xsrxz.tedyy.z++..+zsjjllllljllpjos+++.+zhhi-----esrxz.tedcbbbbaaadddet.++++.........+l---hi-----e-----ea--------foqqoqqo--hlwgea----a-accddba--bbbddddccdfffhhgfeeddccba-.........+nk+..xiioonhfefddegihhghigfdbaeddccba-------aaaabgns.qcbcchyzqngll++..ghigfdbaaabdgx..............nheddefiklhg
(PID.TID 0000.0001) //      0 -aaaaaaa-aacccfikkhecccbbbaaabaadfkllilm....wiheddeccdfhfbabdfl............jdbaddfkllilmgebaadfijjiiikjhffdcba-----lllgn...jdbaddddgifkccccdccd+.++..++ynvz.tkkq.............................++..u+..zmd.mu....++zyslllllkhggkmpy++...ihhi-----e.u+..zmdfbd---a-aeef.xx+..........+++s--hi-----ea---feb-----a-acnoohfghknvmwnuca-----accdcb---bbbcdddddefffggfeeedcccbba..........qhu..hhhkojgffgeefghihhiieedbaedcccbba----aa--alrwwy.kcbccc+...++++...hiieedbaaabcdy..............ygddeghiljgf
(PID.TID 0000.0001) //     -1 --aaaaa----aacffiljgfffcca--adfikkiikimi......ylea--acfihebcbbes..........sfcbbnkkiikimiiheccfurkiffhijjigfecb-----l----..sfcbbngfffigcaaabdbcac+.+++++zgmpx...y.............................+++++.z+.wq.mm....++..zslwz.yhhhhnz+++...rhgc----ab++.z+.wqgbf-------dgzpoy+........+ys+yrbgc----ab----ige----acaaalllkddfiy..yswxb--aa-abcccb---bbbbddddeffflhfeeeecbbcbba..........thk.xgghiligfghfefhhhhiiheedcdecbbcbbaa----a--bdflm.yuibbcc.......+...iiheedcdbbabdmz.............zfdeghikkifd
(PID.TID 0000.0001) //     -2 --aaa-------acdefinmlgiieb-chnnnmlmlfklk........c---acgkhdcc--di..........ofddchmlmlfklklkhednwwsheeghhijjgfdca----g---a..ofddchohffikaaaaabaaa-aw+.+ysnggox++...............................+++++wmu++y.qrv..........yzzzzrjil+++....qhgd-----a++wmu++ywn--------fwvmgy+........+r-.+++gd-----a-----i---cccdeabkklldinqssy..xxv-abc--abbbb---abaaddddeedkmeddefdbbbdcba...........+y.uhghikihgfghefgihhhgeeeeeddbbbdcbaa-------ba-hv.susfbcc.......+...hgeeeeeddbaadhw.............nedeghjjhfed
(PID.TID 0000.0001) //     -3 a--a---aa---aedeegknmlgiigcdfhpokkimdkmk.......+b----cfkhec---afz.........nhfdffkkimdkmknoiedcfjvpddegghhhhgfdcbaa-n---a..nhfdffholghkaaaaaba-a---flkkuswyy++++y..............................+++yqd.++++zr...........zzzzz++ry++......yd-------+yqd.+++zvq--dafz.lqnggw+........+b-....d--------------aeecdeidfkkqnqlmqquukqqmfabcc---aaba------acdddcbcineddgdbaaaeedb..............iihiijjhfefgefhjihiffgggffbaaaeedbaa----------nysqssfcd...........iffgggffecaabelx...........zjecehijhfecc
(PID.TID 0000.0001) // =======================================================
(PID.TID 0000.0001) // END OF FIELD                                          =
(PID.TID 0000.0001) // =======================================================
(PID.TID 0000.0001) 
(PID.TID 0000.0001) // =======================================================
(PID.TID 0000.0001) // Field Model Ro_surf (ini_masks_etc) at iteration          1
(PID.TID 0000.0001) // CMIN =         -7.105427357601002E-15
(PID.TID 0000.0001) // CMAX =         -7.105427357601002E-15
(PID.TID 0000.0001) // CINT =          0.000000000000000E+00
(PID.TID 0000.0001) // SYMBOLS (CMIN->CMAX): -abcdefghijklmnopqrstuvwxyz+
(PID.TID 0000.0001) //                  0.0: .
(PID.TID 0000.0001) // RANGE I (Lo:Hi:Step):(    -3:   388:     1)
(PID.TID 0000.0001) // RANGE J (Lo:Hi:Step):(    20:    -3:    -1)
(PID.TID 0000.0001) // RANGE K (Lo:Hi:Step):(   1:   1:   1)
(PID.TID 0000.0001) // =======================================================
(PID.TID 0000.0001) // =======================================================
(PID.TID 0000.0001) // END OF FIELD                                          =
(PID.TID 0000.0001) // =======================================================
(PID.TID 0000.0001) 
(PID.TID 0000.0001) // =======================================================
(PID.TID 0000.0001) // Field hFacC at iteration          1
(PID.TID 0000.0001) // CMIN =          1.000000000000000E+00
(PID.TID 0000.0001) // CMAX =          1.000000000000000E+00
(PID.TID 0000.0001) // CINT =          0.000000000000000E+00
(PID.TID 0000.0001) // SYMBOLS (CMIN->CMAX): -abcdefghijklmnopqrstuvwxyz+
(PID.TID 0000.0001) //                  0.0: .
(PID.TID 0000.0001) // RANGE I (Lo:Hi:Step):(    -3:   388:     1)
(PID.TID 0000.0001) // RANGE J (Lo:Hi:Step):(    20:    -3:    -1)
(PID.TID 0000.0001) // RANGE K (Lo:Hi:Step):(   1:   1:   1)
(PID.TID 0000.0001) // =======================================================
(PID.TID 0000.0001) // =======================================================
(PID.TID 0000.0001) // END OF FIELD                                          =
(PID.TID 0000.0001) // =======================================================
(PID.TID 0000.0001) 
(PID.TID 0000.0001) // =======================================================
(PID.TID 0000.0001) // Field hFacW at iteration          1
(PID.TID 0000.0001) // CMIN =          1.000000000000000E+00
(PID.TID 0000.0001) // CMAX =          1.000000000000000E+00
(PID.TID 0000.0001) // CINT =          0.000000000000000E+00
(PID.TID 0000.0001) // SYMBOLS (CMIN->CMAX): -abcdefghijklmnopqrstuvwxyz+
(PID.TID 0000.0001) //                  0.0: .
(PID.TID 0000.0001) // RANGE I (Lo:Hi:Step):(    -3:   388:     1)
(PID.TID 0000.0001) // RANGE J (Lo:Hi:Step):(    20:    -3:    -1)
(PID.TID 0000.0001) // RANGE K (Lo:Hi:Step):(   1:   1:   1)
(PID.TID 0000.0001) // =======================================================
(PID.TID 0000.0001) // =======================================================
(PID.TID 0000.0001) // END OF FIELD                                          =
(PID.TID 0000.0001) // =======================================================
(PID.TID 0000.0001) 
(PID.TID 0000.0001) // =======================================================
(PID.TID 0000.0001) // Field hFacS at iteration          1
(PID.TID 0000.0001) // CMIN =          1.000000000000000E+00
(PID.TID 0000.0001) // CMAX =          1.000000000000000E+00
(PID.TID 0000.0001) // CINT =          0.000000000000000E+00
(PID.TID 0000.0001) // SYMBOLS (CMIN->CMAX): -abcdefghijklmnopqrstuvwxyz+
(PID.TID 0000.0001) //                  0.0: .
(PID.TID 0000.0001) // RANGE I (Lo:Hi:Step):(    -3:   388:     1)
(PID.TID 0000.0001) // RANGE J (Lo:Hi:Step):(    20:    -3:    -1)
(PID.TID 0000.0001) // RANGE K (Lo:Hi:Step):(   1:   1:   1)
(PID.TID 0000.0001) // =======================================================
(PID.TID 0000.0001) // =======================================================
(PID.TID 0000.0001) // END OF FIELD                                          =
(PID.TID 0000.0001) // =======================================================
(PID.TID 0000.0001) 
(PID.TID 0000.0001) 
(PID.TID 0000.0001) // ===================================
(PID.TID 0000.0001) // GAD parameters :
(PID.TID 0000.0001) // ===================================
(PID.TID 0000.0001) tempAdvScheme =   /* Temp. Horiz.Advection scheme selector */
(PID.TID 0000.0001)                       2
(PID.TID 0000.0001)     ;
(PID.TID 0000.0001) tempVertAdvScheme =   /* Temp. Vert. Advection scheme selector */
(PID.TID 0000.0001)                       2
(PID.TID 0000.0001)     ;
(PID.TID 0000.0001) tempMultiDimAdvec =   /* use Muti-Dim Advec method for Temp */
(PID.TID 0000.0001)                   F
(PID.TID 0000.0001)     ;
(PID.TID 0000.0001) tempSOM_Advection = /* use 2nd Order Moment Advection for Temp */
(PID.TID 0000.0001)                   F
(PID.TID 0000.0001)     ;
(PID.TID 0000.0001) AdamsBashforthGt = /* apply Adams-Bashforth extrapolation on Gt */
(PID.TID 0000.0001)                   T
(PID.TID 0000.0001)     ;
(PID.TID 0000.0001) AdamsBashforth_T = /* apply Adams-Bashforth extrapolation on Temp */
(PID.TID 0000.0001)                   F
(PID.TID 0000.0001)     ;
(PID.TID 0000.0001) saltAdvScheme =   /* Salt. Horiz.advection scheme selector */
(PID.TID 0000.0001)                       2
(PID.TID 0000.0001)     ;
(PID.TID 0000.0001) saltVertAdvScheme =   /* Salt. Vert. Advection scheme selector */
(PID.TID 0000.0001)                       2
(PID.TID 0000.0001)     ;
(PID.TID 0000.0001) saltMultiDimAdvec =   /* use Muti-Dim Advec method for Salt */
(PID.TID 0000.0001)                   F
(PID.TID 0000.0001)     ;
(PID.TID 0000.0001) saltSOM_Advection = /* use 2nd Order Moment Advection for Salt */
(PID.TID 0000.0001)                   F
(PID.TID 0000.0001)     ;
(PID.TID 0000.0001) AdamsBashforthGs = /* apply Adams-Bashforth extrapolation on Gs */
(PID.TID 0000.0001)                   T
(PID.TID 0000.0001)     ;
(PID.TID 0000.0001) AdamsBashforth_S = /* apply Adams-Bashforth extrapolation on Salt */
(PID.TID 0000.0001)                   F
(PID.TID 0000.0001)     ;
(PID.TID 0000.0001) // ===================================
(PID.TID 0000.0001) ------------------------------------------------------------
(PID.TID 0000.0001) DIAGNOSTICS_SET_LEVELS: done
(PID.TID 0000.0001)  Total Nb of available Diagnostics: ndiagt=   227
(PID.TID 0000.0001)  write list of available Diagnostics to file: available_diagnostics.log
(PID.TID 0000.0001) SETDIAG: Allocate  1 x  1 Levels for Diagnostic #    23 ETAN
(PID.TID 0000.0001) SETDIAG: Allocate  1 x  1 Levels for Diagnostic #    24 ETANSQ
(PID.TID 0000.0001) SETDIAG: Allocate  1 x  1 Levels for Diagnostic #    25 DETADT2
(PID.TID 0000.0001) SETDIAG: Allocate  1 x  1 Levels for Diagnostic #    69 PHIBOT
(PID.TID 0000.0001) SETDIAG: Allocate  1 x  1 Levels for Diagnostic #    70 PHIBOTSQ
(PID.TID 0000.0001) SETDIAG: Allocate  1 x  1 Levels for Diagnostic #    75 oceTAUX
(PID.TID 0000.0001) SETDIAG: Allocate  1 x  1 Levels for Diagnostic #    76 oceTAUY
(PID.TID 0000.0001) SETDIAG: Allocate  1 x  1 Levels for Diagnostic #    84 TRELAX
(PID.TID 0000.0001) SETDIAG: Allocate  1 x  1 Levels for Diagnostic #    85 SRELAX
(PID.TID 0000.0001) SETDIAG: Allocate  1 x  1 Levels for Diagnostic #    86 surForcT
(PID.TID 0000.0001) SETDIAG: Allocate  1 x  1 Levels for Diagnostic #    87 surForcS
(PID.TID 0000.0001) SETDIAG: Allocate  1 x  1 Levels for Diagnostic #    88 TFLUX
(PID.TID 0000.0001) SETDIAG: Allocate  1 x  1 Levels for Diagnostic #    89 SFLUX
(PID.TID 0000.0001) SETDIAG: Allocate  1 x  1 Levels for Diagnostic #    82 oceQsw
(PID.TID 0000.0001) SETDIAG: Allocate  1 x  1 Levels for Diagnostic #    81 oceQnet
(PID.TID 0000.0001) SETDIAG: Allocate  1 x  1 Levels for Diagnostic #    80 oceSflux
(PID.TID 0000.0001) SETDIAG: Allocate  1 x  1 Levels for Diagnostic #    79 oceFWflx
(PID.TID 0000.0001) SETDIAG: Allocate 15 x  1 Levels for Diagnostic #    30 UVEL
(PID.TID 0000.0001) SETDIAG: Allocate 15 x  1 Levels for Diagnostic #    31 VVEL
(PID.TID 0000.0001) SETDIAG: Allocate 15 x  1 Levels for Diagnostic #    32 WVEL
(PID.TID 0000.0001) SETDIAG: Allocate 15 x  1 Levels for Diagnostic #    67 PHIHYD
(PID.TID 0000.0001) SETDIAG: Allocate 15 x  1 Levels for Diagnostic #    46 VVELMASS
(PID.TID 0000.0001) SETDIAG: Allocate 15 x  1 Levels for Diagnostic #    45 UVELMASS
(PID.TID 0000.0001) SETDIAG: Allocate 15 x  1 Levels for Diagnostic #    38 WVELSQ
(PID.TID 0000.0001) SETDIAG: Allocate 15 x  1 Levels for Diagnostic #    26 THETA
(PID.TID 0000.0001) SETDIAG: Allocate 15 x  1 Levels for Diagnostic #    48 UTHMASS
(PID.TID 0000.0001) SETDIAG: Allocate 15 x  1 Levels for Diagnostic #    49 VTHMASS
(PID.TID 0000.0001) SETDIAG: Allocate 15 x  1 Levels for Diagnostic #    50 WTHMASS
(PID.TID 0000.0001) SETDIAG: Allocate 15 x  1 Levels for Diagnostic #    27 SALT
(PID.TID 0000.0001) SETDIAG: Allocate 15 x  1 Levels for Diagnostic #    51 USLTMASS
(PID.TID 0000.0001) SETDIAG: Allocate 15 x  1 Levels for Diagnostic #    52 VSLTMASS
(PID.TID 0000.0001) SETDIAG: Allocate 15 x  1 Levels for Diagnostic #    53 WSLTMASS
(PID.TID 0000.0001) SETDIAG: Allocate  1 x 12 Levels for Diagnostic #   194 SI_Fract
(PID.TID 0000.0001) SETDIAG: Allocate  1 x 12 Levels for Diagnostic #   195 SI_Thick
(PID.TID 0000.0001) - NOTE - SETDIAG: Counter Diagnostic #   194 SI_Fract has already been set
(PID.TID 0000.0001) SETDIAG: Allocate  1 x 12 Levels for Diagnostic #   196 SI_SnowH
(PID.TID 0000.0001) - NOTE - SETDIAG: Counter Diagnostic #   194 SI_Fract has already been set
(PID.TID 0000.0001) SETDIAG: Allocate  1 x 12 Levels for Diagnostic #   197 SI_Tsrf
(PID.TID 0000.0001) - NOTE - SETDIAG: Counter Diagnostic #   194 SI_Fract has already been set
(PID.TID 0000.0001) SETDIAG: Allocate  1 x 12 Levels for Diagnostic #   198 SI_Tice1
(PID.TID 0000.0001) - NOTE - SETDIAG: Counter Diagnostic #   194 SI_Fract has already been set
(PID.TID 0000.0001) SETDIAG: Allocate  1 x 12 Levels for Diagnostic #   199 SI_Tice2
(PID.TID 0000.0001) - NOTE - SETDIAG: Counter Diagnostic #   194 SI_Fract has already been set
(PID.TID 0000.0001) SETDIAG: Allocate  1 x 12 Levels for Diagnostic #   200 SI_Qice1
(PID.TID 0000.0001) - NOTE - SETDIAG: Counter Diagnostic #   195 SI_Thick has already been set
(PID.TID 0000.0001) SETDIAG: Allocate  1 x 12 Levels for Diagnostic #   201 SI_Qice2
(PID.TID 0000.0001) - NOTE - SETDIAG: Counter Diagnostic #   195 SI_Thick has already been set
(PID.TID 0000.0001) SETDIAG: Allocate  1 x 12 Levels for Diagnostic #   202 SIsnwAge
(PID.TID 0000.0001) SETDIAG: Allocate  1 x 12 Levels for Diagnostic #   205 SIsnwPrc
(PID.TID 0000.0001) SETDIAG: Allocate  1 x 12 Levels for Count.Diag #   203 SI_FrcFx
(PID.TID 0000.0001) SETDIAG: Allocate  1 x 12 Levels for Diagnostic #   204 SIalbedo
(PID.TID 0000.0001) - NOTE - SETDIAG: Counter Diagnostic #   203 SI_FrcFx has already been set
(PID.TID 0000.0001) SETDIAG: Allocate  1 x 12 Levels for Diagnostic #   208 SIflx2oc
(PID.TID 0000.0001) SETDIAG: Allocate  1 x 12 Levels for Diagnostic #   209 SIfrw2oc
(PID.TID 0000.0001) SETDIAG: Allocate  1 x 12 Levels for Diagnostic #   210 SIsaltFx
(PID.TID 0000.0001) SETDIAG: Allocate  1 x 12 Levels for Diagnostic #   206 SIflxAtm
(PID.TID 0000.0001) SETDIAG: Allocate  1 x 12 Levels for Diagnostic #   207 SIfrwAtm
(PID.TID 0000.0001) SETDIAG: Allocate  1 x  1 Levels for Diagnostic #    23 ETAN
(PID.TID 0000.0001) SETDIAG: Allocate  1 x  1 Levels for Diagnostic #    79 oceFWflx
(PID.TID 0000.0001) SETDIAG: Allocate  1 x  1 Levels for Diagnostic #    23 ETAN
(PID.TID 0000.0001) SETDIAG: Allocate 15 x  1 Levels for Diagnostic #    26 THETA
(PID.TID 0000.0001) SETDIAG: Allocate 15 x  1 Levels for Diagnostic #    27 SALT
(PID.TID 0000.0001)   space allocated for all diagnostics:     479 levels
(PID.TID 0000.0001)   set mate pointer for diag #    75  oceTAUX  , Parms: UU      U1 , mate:    76
(PID.TID 0000.0001)   set mate pointer for diag #    76  oceTAUY  , Parms: VV      U1 , mate:    75
(PID.TID 0000.0001)   set mate pointer for diag #    30  UVEL     , Parms: UUR     MR , mate:    31
(PID.TID 0000.0001)   set mate pointer for diag #    31  VVEL     , Parms: VVR     MR , mate:    30
(PID.TID 0000.0001)   set mate pointer for diag #    46  VVELMASS , Parms: VVr     MR , mate:    45
(PID.TID 0000.0001)   set mate pointer for diag #    45  UVELMASS , Parms: UUr     MR , mate:    46
(PID.TID 0000.0001)   set mate pointer for diag #    48  UTHMASS  , Parms: UUr     MR , mate:    49
(PID.TID 0000.0001)   set mate pointer for diag #    49  VTHMASS  , Parms: VVr     MR , mate:    48
(PID.TID 0000.0001)   set mate pointer for diag #    51  USLTMASS , Parms: UUr     MR , mate:    52
(PID.TID 0000.0001)   set mate pointer for diag #    52  VSLTMASS , Parms: VVr     MR , mate:    51
(PID.TID 0000.0001) DIAGNOSTICS_SET_POINTERS: Set levels for Outp.Stream: dynDiag
(PID.TID 0000.0001)  Levels:       1.   2.   3.   4.   5.   6.   7.   8.   9.  10.  11.  12.  13.  14.  15.
(PID.TID 0000.0001) DIAGNOSTICS_SET_POINTERS: Set levels for Outp.Stream: thSIceDiag
(PID.TID 0000.0001)  Levels:       1.
(PID.TID 0000.0001) DIAGNOSTICS_SET_POINTERS: Set levels for Outp.Stream: surfInst
(PID.TID 0000.0001)  Levels:       1.
(PID.TID 0000.0001) DIAGNOSTICS_SET_POINTERS: Set levels for Outp.Stream: etaInst
(PID.TID 0000.0001)  Levels:       1.
(PID.TID 0000.0001) DIAGNOSTICS_SET_POINTERS: Set levels for Outp.Stream: dynInst
(PID.TID 0000.0001)  Levels:       1.   2.   3.   4.   5.   6.   7.   8.   9.  10.  11.  12.  13.  14.  15.
(PID.TID 0000.0001) DIAGNOSTICS_SET_POINTERS: done
(PID.TID 0000.0001) ------------------------------------------------------------
 DIAGSTATS_SET_REGIONS: start reading region-mask file: regMask_lat24.bin
 DIAGSTATS_SET_REGIONS:  reading set k=  1
(PID.TID 0000.0001)  MDS_READ_FIELD: opening global file: regMask_lat24.bin
 DIAGSTATS_SET_REGIONS:          set k=  1 <= done
(PID.TID 0000.0001) DIAGSTATS_SET_REGIONS: define   3 regions:  1  2  3
(PID.TID 0000.0001) ------------------------------------------------------------
(PID.TID 0000.0001) SETDIAG: Allocate  1 Levels for Stats-Diag #    23 ETAN
(PID.TID 0000.0001) SETDIAG: Allocate  1 Levels for Stats-Diag #    24 ETANSQ
(PID.TID 0000.0001) SETDIAG: Allocate  1 Levels for Stats-Diag #    25 DETADT2
(PID.TID 0000.0001) SETDIAG: Allocate 15 Levels for Stats-Diag #    26 THETA
(PID.TID 0000.0001) SETDIAG: Allocate 15 Levels for Stats-Diag #    27 SALT
(PID.TID 0000.0001) SETDIAG: Allocate 15 Levels for Stats-Diag #    74 CONVADJ
(PID.TID 0000.0001) SETDIAG: Allocate  1 Levels for Stats-Diag #    75 oceTAUX
(PID.TID 0000.0001) SETDIAG: Allocate  1 Levels for Stats-Diag #    76 oceTAUY
(PID.TID 0000.0001) SETDIAG: Allocate  1 Levels for Stats-Diag #    84 TRELAX
(PID.TID 0000.0001) SETDIAG: Allocate  1 Levels for Stats-Diag #    85 SRELAX
(PID.TID 0000.0001) SETDIAG: Allocate  1 Levels for Stats-Diag #    86 surForcT
(PID.TID 0000.0001) SETDIAG: Allocate  1 Levels for Stats-Diag #    87 surForcS
(PID.TID 0000.0001) SETDIAG: Allocate  1 Levels for Stats-Diag #    88 TFLUX
(PID.TID 0000.0001) SETDIAG: Allocate  1 Levels for Stats-Diag #    89 SFLUX
(PID.TID 0000.0001) SETDIAG: Allocate  1 Levels for Stats-Diag #    81 oceQnet
(PID.TID 0000.0001) SETDIAG: Allocate  1 Levels for Stats-Diag #    80 oceSflux
(PID.TID 0000.0001) SETDIAG: Allocate  1 Levels for Stats-Diag #    79 oceFWflx
(PID.TID 0000.0001) SETDIAG: Allocate  1 Levels for Stats-Diag #    23 ETAN
(PID.TID 0000.0001) SETDIAG: Allocate 15 Levels for Stats-Diag #    26 THETA
(PID.TID 0000.0001) SETDIAG: Allocate 15 Levels for Stats-Diag #    27 SALT
(PID.TID 0000.0001) SETDIAG: Allocate  1 Levels for Stats-Diag #   194 SI_Fract
(PID.TID 0000.0001) SETDIAG: Allocate  1 Levels for Stats-Diag #   195 SI_Thick
(PID.TID 0000.0001) - NOTE - SETDIAG: Counter Diagnostic #   194 SI_Fract has already been set
(PID.TID 0000.0001) SETDIAG: Allocate  1 Levels for Stats-Diag #   196 SI_SnowH
(PID.TID 0000.0001) - NOTE - SETDIAG: Counter Diagnostic #   194 SI_Fract has already been set
(PID.TID 0000.0001) SETDIAG: Allocate  1 Levels for Stats-Diag #   197 SI_Tsrf
(PID.TID 0000.0001) - NOTE - SETDIAG: Counter Diagnostic #   194 SI_Fract has already been set
(PID.TID 0000.0001) SETDIAG: Allocate  1 Levels for Stats-Diag #   198 SI_Tice1
(PID.TID 0000.0001) - NOTE - SETDIAG: Counter Diagnostic #   194 SI_Fract has already been set
(PID.TID 0000.0001) SETDIAG: Allocate  1 Levels for Stats-Diag #   199 SI_Tice2
(PID.TID 0000.0001) - NOTE - SETDIAG: Counter Diagnostic #   194 SI_Fract has already been set
(PID.TID 0000.0001) SETDIAG: Allocate  1 Levels for Stats-Diag #   200 SI_Qice1
(PID.TID 0000.0001) - NOTE - SETDIAG: Counter Diagnostic #   195 SI_Thick has already been set
(PID.TID 0000.0001) SETDIAG: Allocate  1 Levels for Stats-Diag #   201 SI_Qice2
(PID.TID 0000.0001) - NOTE - SETDIAG: Counter Diagnostic #   195 SI_Thick has already been set
(PID.TID 0000.0001) SETDIAG: Allocate  1 Levels for Stats-Diag #   205 SIsnwPrc
(PID.TID 0000.0001) SETDIAG: Allocate  1 Levels for Count.Diag #   203 SI_FrcFx
(PID.TID 0000.0001) SETDIAG: Allocate  1 Levels for Stats-Diag #   204 SIalbedo
(PID.TID 0000.0001) - NOTE - SETDIAG: Counter Diagnostic #   203 SI_FrcFx has already been set
(PID.TID 0000.0001) SETDIAG: Allocate  1 Levels for Stats-Diag #   202 SIsnwAge
(PID.TID 0000.0001) SETDIAG: Allocate  1 Levels for Stats-Diag #   208 SIflx2oc
(PID.TID 0000.0001) SETDIAG: Allocate  1 Levels for Stats-Diag #   209 SIfrw2oc
(PID.TID 0000.0001) SETDIAG: Allocate  1 Levels for Stats-Diag #   210 SIsaltFx
(PID.TID 0000.0001) SETDIAG: Allocate  1 Levels for Stats-Diag #   206 SIflxAtm
(PID.TID 0000.0001) SETDIAG: Allocate  1 Levels for Stats-Diag #   207 SIfrwAtm
(PID.TID 0000.0001)   space allocated for all stats-diags:     107 levels
(PID.TID 0000.0001) DIAGSTATS_SET_POINTERS: done
(PID.TID 0000.0001) ------------------------------------------------------------
(PID.TID 0000.0001) DIAGSTATS_INI_IO: open file: dynStDiag.0000036000.txt , unit=     9
(PID.TID 0000.0001) DIAGSTATS_INI_IO: open file: surfStDiag.0000036000.txt , unit=    10
(PID.TID 0000.0001) DIAGSTATS_INI_IO: open file: instStDiag.0000036000.txt , unit=    11
(PID.TID 0000.0001) DIAGSTATS_INI_IO: open file: thSIceStDiag.0000036000.txt , unit=    12
(PID.TID 0000.0001) %MON fCori_max                    =   1.4574827780704E-04
(PID.TID 0000.0001) %MON fCori_min                    =  -1.4574827780704E-04
(PID.TID 0000.0001) %MON fCori_mean                   =   3.3881317890172E-21
(PID.TID 0000.0001) %MON fCori_sd                     =   8.4202189509968E-05
(PID.TID 0000.0001) %MON fCoriG_max                   =   1.4584247033981E-04
(PID.TID 0000.0001) %MON fCoriG_min                   =  -1.4584247033981E-04
(PID.TID 0000.0001) %MON fCoriG_mean                  =  -1.6940658945086E-20
(PID.TID 0000.0001) %MON fCoriG_sd                    =   8.4202189509968E-05
(PID.TID 0000.0001) %MON fCoriCos_max                 =   1.4580166994612E-04
(PID.TID 0000.0001) %MON fCoriCos_min                 =   5.2407700865903E-06
(PID.TID 0000.0001) %MON fCoriCos_mean                =   1.1514045869113E-04
(PID.TID 0000.0001) %MON fCoriCos_sd                  =   3.0375849106513E-05
(PID.TID 0000.0001) INI_CG2D: CG2D normalisation factor =  1.9156564154949553E-04
(PID.TID 0000.0001) INI_CG2D: cg2dTolerance = 5.809016360175296E-07 (Area=3.6388673751E+14)
(PID.TID 0000.0001) 
(PID.TID 0000.0001) // =======================================================
(PID.TID 0000.0001) // Model configuration
(PID.TID 0000.0001) // =======================================================
(PID.TID 0000.0001) //
(PID.TID 0000.0001) // "Physical" paramters ( PARM01 in namelist )
(PID.TID 0000.0001) //
(PID.TID 0000.0001) buoyancyRelation = /* Type of relation to get Buoyancy */
(PID.TID 0000.0001)               'OCEANIC'
(PID.TID 0000.0001)     ;
(PID.TID 0000.0001) fluidIsAir   =  /* fluid major constituent is Air */
(PID.TID 0000.0001)                   F
(PID.TID 0000.0001)     ;
(PID.TID 0000.0001) fluidIsWater =  /* fluid major constituent is Water */
(PID.TID 0000.0001)                   T
(PID.TID 0000.0001)     ;
(PID.TID 0000.0001) usingPCoords =  /* use p (or p*) vertical coordinate */
(PID.TID 0000.0001)                   F
(PID.TID 0000.0001)     ;
(PID.TID 0000.0001) usingZCoords =  /* use z (or z*) vertical coordinate */
(PID.TID 0000.0001)                   T
(PID.TID 0000.0001)     ;
(PID.TID 0000.0001) tRef =   /* Reference temperature profile ( oC or K ) */
(PID.TID 0000.0001)    15 @  2.000000000000000E+01              /* K =  1: 15 */
(PID.TID 0000.0001)     ;
(PID.TID 0000.0001) sRef =   /* Reference salinity profile ( psu ) */
(PID.TID 0000.0001)    15 @  3.500000000000000E+01              /* K =  1: 15 */
(PID.TID 0000.0001)     ;
(PID.TID 0000.0001) viscAh  =   /* Lateral eddy viscosity ( m^2/s ) */
(PID.TID 0000.0001)                 3.000000000000000E+05
(PID.TID 0000.0001)     ;
(PID.TID 0000.0001) viscAhMax = /* Maximum lateral eddy viscosity ( m^2/s ) */
(PID.TID 0000.0001)                 1.000000000000000E+21
(PID.TID 0000.0001)     ;
(PID.TID 0000.0001) viscAhGrid = /* Grid dependent lateral eddy viscosity ( non-dim. ) */
(PID.TID 0000.0001)                 0.000000000000000E+00
(PID.TID 0000.0001)     ;
(PID.TID 0000.0001) useFullLeith = /* Use Full Form of Leith Viscosity on/off flag*/
(PID.TID 0000.0001)                   F
(PID.TID 0000.0001)     ;
(PID.TID 0000.0001) useStrainTensionVisc= /* Use StrainTension Form of Viscous Operator flag*/
(PID.TID 0000.0001)                   F
(PID.TID 0000.0001)     ;
(PID.TID 0000.0001) useAreaViscLength = /* Use area for visc length instead of geom. mean*/
(PID.TID 0000.0001)                   F
(PID.TID 0000.0001)     ;
(PID.TID 0000.0001) viscC2leith = /* Leith harmonic visc. factor (on grad(vort),non-dim.) */
(PID.TID 0000.0001)                 0.000000000000000E+00
(PID.TID 0000.0001)     ;
(PID.TID 0000.0001) viscC2leithD = /* Leith harmonic viscosity factor (on grad(div),non-dim.)*/
(PID.TID 0000.0001)                 0.000000000000000E+00
(PID.TID 0000.0001)     ;
(PID.TID 0000.0001) viscC2smag = /* Smagorinsky harmonic viscosity factor (non-dim.) */
(PID.TID 0000.0001)                 0.000000000000000E+00
(PID.TID 0000.0001)     ;
(PID.TID 0000.0001) viscA4  =   /* Lateral biharmonic viscosity ( m^4/s ) */
(PID.TID 0000.0001)                 0.000000000000000E+00
(PID.TID 0000.0001)     ;
(PID.TID 0000.0001) viscA4Max = /* Maximum biharmonic viscosity ( m^2/s ) */
(PID.TID 0000.0001)                 1.000000000000000E+21
(PID.TID 0000.0001)     ;
(PID.TID 0000.0001) viscA4Grid = /* Grid dependent biharmonic viscosity ( non-dim. ) */
(PID.TID 0000.0001)                 0.000000000000000E+00
(PID.TID 0000.0001)     ;
(PID.TID 0000.0001) viscC4leith = /* Leith biharm viscosity factor (on grad(vort), non-dim.)*/
(PID.TID 0000.0001)                 0.000000000000000E+00
(PID.TID 0000.0001)     ;
(PID.TID 0000.0001) viscC4leithD = /* Leith biharm viscosity factor (on grad(div), non-dim.) */
(PID.TID 0000.0001)                 0.000000000000000E+00
(PID.TID 0000.0001)     ;
(PID.TID 0000.0001) viscC4Smag = /* Smagorinsky biharm viscosity factor (non-dim) */
(PID.TID 0000.0001)                 0.000000000000000E+00
(PID.TID 0000.0001)     ;
(PID.TID 0000.0001) no_slip_sides =  /* Viscous BCs: No-slip sides */
(PID.TID 0000.0001)                   T
(PID.TID 0000.0001)     ;
(PID.TID 0000.0001) sideDragFactor = /* side-drag scaling factor (non-dim) */
(PID.TID 0000.0001)                 2.000000000000000E+00
(PID.TID 0000.0001)     ;
(PID.TID 0000.0001) viscArNr = /* vertical profile of vertical viscosity ( m^2/s )*/
(PID.TID 0000.0001)    15 @  1.000000000000000E-03              /* K =  1: 15 */
(PID.TID 0000.0001)     ;
(PID.TID 0000.0001) no_slip_bottom =  /* Viscous BCs: No-slip bottom */
(PID.TID 0000.0001)                   T
(PID.TID 0000.0001)     ;
(PID.TID 0000.0001) bottomDragLinear = /* linear bottom-drag coefficient ( m/s ) */
(PID.TID 0000.0001)                 0.000000000000000E+00
(PID.TID 0000.0001)     ;
(PID.TID 0000.0001) bottomDragQuadratic = /* quadratic bottom-drag coefficient (-) */
(PID.TID 0000.0001)                 0.000000000000000E+00
(PID.TID 0000.0001)     ;
(PID.TID 0000.0001) diffKhT =   /* Laplacian diffusion of heat laterally ( m^2/s ) */
(PID.TID 0000.0001)                 0.000000000000000E+00
(PID.TID 0000.0001)     ;
(PID.TID 0000.0001) diffK4T =   /* Biharmonic diffusion of heat laterally ( m^4/s ) */
(PID.TID 0000.0001)                 0.000000000000000E+00
(PID.TID 0000.0001)     ;
(PID.TID 0000.0001) diffKhS =   /* Laplacian diffusion of salt laterally ( m^2/s ) */
(PID.TID 0000.0001)                 0.000000000000000E+00
(PID.TID 0000.0001)     ;
(PID.TID 0000.0001) diffK4S =   /* Biharmonic diffusion of salt laterally ( m^4/s ) */
(PID.TID 0000.0001)                 0.000000000000000E+00
(PID.TID 0000.0001)     ;
(PID.TID 0000.0001) diffKrNrT = /* vertical profile of vertical diffusion of Temp ( m^2/s )*/
(PID.TID 0000.0001)    15 @  3.000000000000000E-05              /* K =  1: 15 */
(PID.TID 0000.0001)     ;
(PID.TID 0000.0001) diffKrNrS = /* vertical profile of vertical diffusion of Salt ( m^2/s )*/
(PID.TID 0000.0001)    15 @  3.000000000000000E-05              /* K =  1: 15 */
(PID.TID 0000.0001)     ;
(PID.TID 0000.0001) diffKrBL79surf = /* Surface diffusion for Bryan and Lewis 79 ( m^2/s ) */
(PID.TID 0000.0001)                 0.000000000000000E+00
(PID.TID 0000.0001)     ;
(PID.TID 0000.0001) diffKrBL79deep = /* Deep diffusion for Bryan and Lewis 1979 ( m^2/s ) */
(PID.TID 0000.0001)                 0.000000000000000E+00
(PID.TID 0000.0001)     ;
(PID.TID 0000.0001) diffKrBL79scl = /* Depth scale for Bryan and Lewis 1979 ( m ) */
(PID.TID 0000.0001)                 2.000000000000000E+02
(PID.TID 0000.0001)     ;
(PID.TID 0000.0001) diffKrBL79Ho = /* Turning depth for Bryan and Lewis 1979 ( m ) */
(PID.TID 0000.0001)                -2.000000000000000E+03
(PID.TID 0000.0001)     ;
(PID.TID 0000.0001) ivdc_kappa = /* Implicit Vertical Diffusivity for Convection ( m^2/s) */
(PID.TID 0000.0001)                 1.000000000000000E+01
(PID.TID 0000.0001)     ;
(PID.TID 0000.0001) hMixCriteria=  /* Criteria for mixed-layer diagnostic */
(PID.TID 0000.0001)                -8.000000000000000E-01
(PID.TID 0000.0001)     ;
(PID.TID 0000.0001) dRhoSmall =  /* Parameter for mixed-layer diagnostic */
(PID.TID 0000.0001)                 1.000000000000000E-06
(PID.TID 0000.0001)     ;
(PID.TID 0000.0001) hMixSmooth=  /* Smoothing parameter for mixed-layer diagnostic */
(PID.TID 0000.0001)                 0.000000000000000E+00
(PID.TID 0000.0001)     ;
(PID.TID 0000.0001) eosType =  /* Type of Equation of State */
(PID.TID 0000.0001)               'JMD95Z'
(PID.TID 0000.0001)     ;
(PID.TID 0000.0001) tAlpha =   /* Linear EOS thermal expansion coefficient ( 1/oC ) */
(PID.TID 0000.0001)                 1.234567000000000E+05
(PID.TID 0000.0001)     ;
(PID.TID 0000.0001) sBeta =   /* Linear EOS haline contraction coefficient ( 1/psu ) */
(PID.TID 0000.0001)                 1.234567000000000E+05
(PID.TID 0000.0001)     ;
(PID.TID 0000.0001) rhonil =   /* Reference density ( kg/m^3 ) */
(PID.TID 0000.0001)                 1.035000000000000E+03
(PID.TID 0000.0001)     ;
(PID.TID 0000.0001) rhoConst =   /* Reference density ( kg/m^3 ) */
(PID.TID 0000.0001)                 1.035000000000000E+03
(PID.TID 0000.0001)     ;
(PID.TID 0000.0001) rhoFacC = /* normalized Reference density @ cell-Center (-) */
(PID.TID 0000.0001)    15 @  1.000000000000000E+00              /* K =  1: 15 */
(PID.TID 0000.0001)     ;
(PID.TID 0000.0001) rhoFacF = /* normalized Reference density @ W-Interface (-) */
(PID.TID 0000.0001)    16 @  1.000000000000000E+00              /* K =  1: 16 */
(PID.TID 0000.0001)     ;
(PID.TID 0000.0001) rhoConstFresh =   /* Reference density ( kg/m^3 ) */
(PID.TID 0000.0001)                 1.000000000000000E+03
(PID.TID 0000.0001)     ;
(PID.TID 0000.0001) gravity =   /* Gravitational acceleration ( m/s^2 ) */
(PID.TID 0000.0001)                 9.810000000000000E+00
(PID.TID 0000.0001)     ;
(PID.TID 0000.0001) gBaro =   /* Barotropic gravity ( m/s^2 ) */
(PID.TID 0000.0001)                 9.810000000000000E+00
(PID.TID 0000.0001)     ;
(PID.TID 0000.0001) rotationPeriod =   /* Rotation Period ( s ) */
(PID.TID 0000.0001)                 8.616400000000000E+04
(PID.TID 0000.0001)     ;
(PID.TID 0000.0001) omega =   /* Angular velocity ( rad/s ) */
(PID.TID 0000.0001)                 7.292123516990375E-05
(PID.TID 0000.0001)     ;
(PID.TID 0000.0001) f0 =   /* Reference coriolis parameter ( 1/s ) */
(PID.TID 0000.0001)                 1.000000000000000E-04
(PID.TID 0000.0001)     ;
(PID.TID 0000.0001) beta =   /* Beta ( 1/(m.s) ) */
(PID.TID 0000.0001)                 9.999999999999999E-12
(PID.TID 0000.0001)     ;
(PID.TID 0000.0001) rigidLid =   /* Rigid lid on/off flag */
(PID.TID 0000.0001)                   F
(PID.TID 0000.0001)     ;
(PID.TID 0000.0001) implicitFreeSurface =   /* Implicit free surface on/off flag */
(PID.TID 0000.0001)                   T
(PID.TID 0000.0001)     ;
(PID.TID 0000.0001) freeSurfFac =   /* Implicit free surface factor */
(PID.TID 0000.0001)                 1.000000000000000E+00
(PID.TID 0000.0001)     ;
(PID.TID 0000.0001) implicSurfPress =  /* Surface Pressure implicit factor (0-1)*/
(PID.TID 0000.0001)                 1.000000000000000E+00
(PID.TID 0000.0001)     ;
(PID.TID 0000.0001) implicDiv2Dflow =  /* Barot. Flow Div. implicit factor (0-1)*/
(PID.TID 0000.0001)                 1.000000000000000E+00
(PID.TID 0000.0001)     ;
(PID.TID 0000.0001) exactConserv =  /* Exact Volume Conservation on/off flag*/
(PID.TID 0000.0001)                   T
(PID.TID 0000.0001)     ;
(PID.TID 0000.0001) linFSConserveTr = /* Tracer correction for Lin Free Surface on/off flag*/
(PID.TID 0000.0001)                   F
(PID.TID 0000.0001)     ;
(PID.TID 0000.0001) uniformLin_PhiSurf = /* use uniform Bo_surf on/off flag*/
(PID.TID 0000.0001)                   T
(PID.TID 0000.0001)     ;
(PID.TID 0000.0001) hFacMin =   /* minimum partial cell factor (hFac) */
(PID.TID 0000.0001)                 1.000000000000000E-01
(PID.TID 0000.0001)     ;
(PID.TID 0000.0001) hFacMinDr = /* minimum partial cell thickness ( m) */
(PID.TID 0000.0001)                 1.000000000000000E-01
(PID.TID 0000.0001)     ;
(PID.TID 0000.0001) nonlinFreeSurf =  /* Non-linear Free Surf. options (-1,0,1,2,3)*/
(PID.TID 0000.0001)                       4
(PID.TID 0000.0001)     ;
(PID.TID 0000.0001)      -1,0= Off ; 1,2,3= On, 2=+rescale gU,gV, 3=+update cg2d solv.
(PID.TID 0000.0001) hFacInf =   /* lower threshold for hFac (nonlinFreeSurf only)*/
(PID.TID 0000.0001)                 2.000000000000000E-01
(PID.TID 0000.0001)     ;
(PID.TID 0000.0001) hFacSup =   /* upper threshold for hFac (nonlinFreeSurf only)*/
(PID.TID 0000.0001)                 2.000000000000000E+00
(PID.TID 0000.0001)     ;
(PID.TID 0000.0001) select_rStar = /* r* Vertical coord. options (=0 r coord.; >0 uses r*)*/
(PID.TID 0000.0001)                       2
(PID.TID 0000.0001)     ;
(PID.TID 0000.0001) selectAddFluid = /* option for mass source/sink of fluid (=0: off) */
(PID.TID 0000.0001)                       0
(PID.TID 0000.0001)     ;
(PID.TID 0000.0001) useRealFreshWaterFlux = /* Real Fresh Water Flux on/off flag*/
(PID.TID 0000.0001)                   T
(PID.TID 0000.0001)     ;
(PID.TID 0000.0001) temp_EvPrRn = /* Temp. of Evap/Prec/R (UNSET=use local T)(oC)*/
(PID.TID 0000.0001)                 1.234567000000000E+05
(PID.TID 0000.0001)     ;
(PID.TID 0000.0001) salt_EvPrRn = /* Salin. of Evap/Prec/R (UNSET=use local S)(psu)*/
(PID.TID 0000.0001)                 0.000000000000000E+00
(PID.TID 0000.0001)     ;
(PID.TID 0000.0001) temp_addMass = /* Temp. of addMass array (UNSET=use local T)(oC)*/
(PID.TID 0000.0001)                 1.234567000000000E+05
(PID.TID 0000.0001)     ;
(PID.TID 0000.0001) salt_addMass = /* Salin. of addMass array (UNSET=use local S)(psu)*/
(PID.TID 0000.0001)                 0.000000000000000E+00
(PID.TID 0000.0001)     ;
(PID.TID 0000.0001) use3Dsolver = /* use 3-D pressure solver on/off flag */
(PID.TID 0000.0001)                   F
(PID.TID 0000.0001)     ;
(PID.TID 0000.0001) nonHydrostatic =  /* Non-Hydrostatic on/off flag */
(PID.TID 0000.0001)                   F
(PID.TID 0000.0001)     ;
(PID.TID 0000.0001) nh_Am2 = /* Non-Hydrostatic terms scaling factor */
(PID.TID 0000.0001)                 1.000000000000000E+00
(PID.TID 0000.0001)     ;
(PID.TID 0000.0001) implicitNHPress = /* Non-Hyd Pressure implicit factor (0-1)*/
(PID.TID 0000.0001)                 1.000000000000000E+00
(PID.TID 0000.0001)     ;
(PID.TID 0000.0001) selectNHfreeSurf = /* Non-Hyd (free-)Surface option */
(PID.TID 0000.0001)                       0
(PID.TID 0000.0001)     ;
(PID.TID 0000.0001) quasiHydrostatic = /* Quasi-Hydrostatic on/off flag */
(PID.TID 0000.0001)                   F
(PID.TID 0000.0001)     ;
(PID.TID 0000.0001) momStepping =  /* Momentum equation on/off flag */
(PID.TID 0000.0001)                   T
(PID.TID 0000.0001)     ;
(PID.TID 0000.0001) vectorInvariantMomentum= /* Vector-Invariant Momentum on/off */
(PID.TID 0000.0001)                   T
(PID.TID 0000.0001)     ;
(PID.TID 0000.0001) momAdvection =  /* Momentum advection on/off flag */
(PID.TID 0000.0001)                   T
(PID.TID 0000.0001)     ;
(PID.TID 0000.0001) momViscosity =  /* Momentum viscosity on/off flag */
(PID.TID 0000.0001)                   T
(PID.TID 0000.0001)     ;
(PID.TID 0000.0001) momImplVertAdv= /* Momentum implicit vert. advection on/off*/
(PID.TID 0000.0001)                   F
(PID.TID 0000.0001)     ;
(PID.TID 0000.0001) implicitViscosity = /* Implicit viscosity on/off flag */
(PID.TID 0000.0001)                   F
(PID.TID 0000.0001)     ;
(PID.TID 0000.0001) metricTerms =  /* metric-Terms on/off flag */
(PID.TID 0000.0001)                   F
(PID.TID 0000.0001)     ;
(PID.TID 0000.0001) useNHMTerms = /* Non-Hydrostatic Metric-Terms on/off */
(PID.TID 0000.0001)                   F
(PID.TID 0000.0001)     ;
(PID.TID 0000.0001) useConstantF =  /* use Constant f0 Coriolis flag */
(PID.TID 0000.0001)                   F
(PID.TID 0000.0001)     ;
(PID.TID 0000.0001) useBetaPlaneF = /* use Beta-Plane Coriolis flag */
(PID.TID 0000.0001)                   F
(PID.TID 0000.0001)     ;
(PID.TID 0000.0001) useSphereF  =   /* use Spherical Coriolis flag */
(PID.TID 0000.0001)                   T
(PID.TID 0000.0001)     ;
(PID.TID 0000.0001) use3dCoriolis = /* 3-D Coriolis on/off flag */
(PID.TID 0000.0001)                   F
(PID.TID 0000.0001)     ;
(PID.TID 0000.0001) useCoriolis =  /* Coriolis on/off flag */
(PID.TID 0000.0001)                   T
(PID.TID 0000.0001)     ;
(PID.TID 0000.0001) useCDscheme =  /* CD scheme on/off flag */
(PID.TID 0000.0001)                   F
(PID.TID 0000.0001)     ;
(PID.TID 0000.0001) useJamartWetPoints= /* Coriolis WetPoints method flag */
(PID.TID 0000.0001)                   F
(PID.TID 0000.0001)     ;
(PID.TID 0000.0001) useJamartMomAdv= /* V.I. Non-linear terms Jamart flag */
(PID.TID 0000.0001)                   F
(PID.TID 0000.0001)     ;
(PID.TID 0000.0001) useAbsVorticity= /* Work with f+zeta in Coriolis */
(PID.TID 0000.0001)                   F
(PID.TID 0000.0001)     ;
(PID.TID 0000.0001) selectVortScheme= /* Scheme selector for Vorticity-Term */
(PID.TID 0000.0001)                       1
(PID.TID 0000.0001)    = 0 : enstrophy (Shallow-Water Eq.) conserving scheme by Sadourny, JAS 75
(PID.TID 0000.0001)    = 1 : same as 0 with modified hFac
(PID.TID 0000.0001)    = 2 : energy conserving scheme (used by Sadourny in JAS 75 paper)
(PID.TID 0000.0001)    = 3 : energy (general) and enstrophy (2D, nonDiv.) conserving scheme
(PID.TID 0000.0001)          from Sadourny (Burridge & Haseler, ECMWF Rep.4, 1977)
(PID.TID 0000.0001)     ;
(PID.TID 0000.0001) upwindVorticity= /* Upwind bias vorticity flag */
(PID.TID 0000.0001)                   F
(PID.TID 0000.0001)     ;
(PID.TID 0000.0001) highOrderVorticity= /* High order interp. of vort. flag */
(PID.TID 0000.0001)                   F
(PID.TID 0000.0001)     ;
(PID.TID 0000.0001) upwindShear= /* Upwind vertical Shear advection flag */
(PID.TID 0000.0001)                   F
(PID.TID 0000.0001)     ;
(PID.TID 0000.0001) selectKEscheme= /* Kinetic Energy scheme selector */
(PID.TID 0000.0001)                       0
(PID.TID 0000.0001)     ;
(PID.TID 0000.0001) momForcing =  /* Momentum forcing on/off flag */
(PID.TID 0000.0001)                   T
(PID.TID 0000.0001)     ;
(PID.TID 0000.0001) momPressureForcing =  /* Momentum pressure term on/off flag */
(PID.TID 0000.0001)                   T
(PID.TID 0000.0001)     ;
(PID.TID 0000.0001) implicitIntGravWave= /* Implicit Internal Gravity Wave flag */
(PID.TID 0000.0001)                   F
(PID.TID 0000.0001)     ;
(PID.TID 0000.0001) staggerTimeStep =   /* Stagger time stepping on/off flag */
(PID.TID 0000.0001)                   T
(PID.TID 0000.0001)     ;
(PID.TID 0000.0001) multiDimAdvection =   /* enable/disable Multi-Dim Advection */
(PID.TID 0000.0001)                   T
(PID.TID 0000.0001)     ;
(PID.TID 0000.0001) useMultiDimAdvec =   /* Multi-Dim Advection is/is-not used */
(PID.TID 0000.0001)                   F
(PID.TID 0000.0001)     ;
(PID.TID 0000.0001) implicitDiffusion = /* Implicit Diffusion on/off flag */
(PID.TID 0000.0001)                   T
(PID.TID 0000.0001)     ;
(PID.TID 0000.0001) tempStepping =  /* Temperature equation on/off flag */
(PID.TID 0000.0001)                   T
(PID.TID 0000.0001)     ;
(PID.TID 0000.0001) tempAdvection=  /* Temperature advection on/off flag */
(PID.TID 0000.0001)                   T
(PID.TID 0000.0001)     ;
(PID.TID 0000.0001) tempImplVertAdv = /* Temp. implicit vert. advection on/off */
(PID.TID 0000.0001)                   F
(PID.TID 0000.0001)     ;
(PID.TID 0000.0001) tempForcing  =  /* Temperature forcing on/off flag */
(PID.TID 0000.0001)                   T
(PID.TID 0000.0001)     ;
(PID.TID 0000.0001) tempIsActiveTr = /* Temp. is a dynamically Active Tracer */
(PID.TID 0000.0001)                   T
(PID.TID 0000.0001)     ;
(PID.TID 0000.0001) saltStepping =  /* Salinity equation on/off flag */
(PID.TID 0000.0001)                   T
(PID.TID 0000.0001)     ;
(PID.TID 0000.0001) saltAdvection=  /* Salinity advection on/off flag */
(PID.TID 0000.0001)                   T
(PID.TID 0000.0001)     ;
(PID.TID 0000.0001) saltImplVertAdv = /* Sali. implicit vert. advection on/off */
(PID.TID 0000.0001)                   F
(PID.TID 0000.0001)     ;
(PID.TID 0000.0001) saltForcing  =  /* Salinity forcing on/off flag */
(PID.TID 0000.0001)                   T
(PID.TID 0000.0001)     ;
(PID.TID 0000.0001) saltIsActiveTr = /* Salt  is a dynamically Active Tracer */
(PID.TID 0000.0001)                   T
(PID.TID 0000.0001)     ;
(PID.TID 0000.0001)  readBinaryPrec = /* Precision used for reading binary files */
(PID.TID 0000.0001)                      64
(PID.TID 0000.0001)     ;
(PID.TID 0000.0001) writeBinaryPrec = /* Precision used for writing binary files */
(PID.TID 0000.0001)                      32
(PID.TID 0000.0001)     ;
(PID.TID 0000.0001)  globalFiles = /* write "global" (=not per tile) files */
(PID.TID 0000.0001)                   F
(PID.TID 0000.0001)     ;
(PID.TID 0000.0001)  useSingleCpuIO = /* only master MPI process does I/O */
(PID.TID 0000.0001)                   F
(PID.TID 0000.0001)     ;
(PID.TID 0000.0001)  debugMode  =  /* Debug Mode on/off flag */
(PID.TID 0000.0001)                   F
(PID.TID 0000.0001)     ;
(PID.TID 0000.0001)    debLevA  =  /* 1rst level of debugging */
(PID.TID 0000.0001)                       1
(PID.TID 0000.0001)     ;
(PID.TID 0000.0001)    debLevB  =  /* 2nd  level of debugging */
(PID.TID 0000.0001)                       2
(PID.TID 0000.0001)     ;
(PID.TID 0000.0001)  debugLevel =  /* select debugging level */
(PID.TID 0000.0001)                       1
(PID.TID 0000.0001)     ;
(PID.TID 0000.0001) //
(PID.TID 0000.0001) // Elliptic solver(s) paramters ( PARM02 in namelist )
(PID.TID 0000.0001) //
(PID.TID 0000.0001) cg2dMaxIters =   /* Upper limit on 2d con. grad iterations  */
(PID.TID 0000.0001)                     200
(PID.TID 0000.0001)     ;
(PID.TID 0000.0001) cg2dChkResFreq =   /* 2d con. grad convergence test frequency */
(PID.TID 0000.0001)                       1
(PID.TID 0000.0001)     ;
(PID.TID 0000.0001) cg2dTargetResidual =   /* 2d con. grad target residual  */
(PID.TID 0000.0001)                 1.000000000000000E-07
(PID.TID 0000.0001)     ;
(PID.TID 0000.0001) cg2dTargetResWunit =   /* CG2d target residual [W units] */
(PID.TID 0000.0001)                 1.000000000000000E-14
(PID.TID 0000.0001)     ;
(PID.TID 0000.0001) cg2dPreCondFreq =   /* Freq. for updating cg2d preconditioner */
(PID.TID 0000.0001)                       1
(PID.TID 0000.0001)     ;
(PID.TID 0000.0001) useSRCGSolver =  /* use single reduction CG solver(s) */
(PID.TID 0000.0001)                   F
(PID.TID 0000.0001)     ;
(PID.TID 0000.0001) //
(PID.TID 0000.0001) // Time stepping paramters ( PARM03 in namelist )
(PID.TID 0000.0001) //
(PID.TID 0000.0001) deltaTmom =   /* Momentum equation timestep ( s ) */
(PID.TID 0000.0001)                 1.200000000000000E+03
(PID.TID 0000.0001)     ;
(PID.TID 0000.0001) deltaTfreesurf = /* FreeSurface equation timestep ( s ) */
(PID.TID 0000.0001)                 8.640000000000000E+04
(PID.TID 0000.0001)     ;
(PID.TID 0000.0001) dTtracerLev =  /* Tracer equation timestep ( s ) */
(PID.TID 0000.0001)    15 @  8.640000000000000E+04              /* K =  1: 15 */
(PID.TID 0000.0001)     ;
(PID.TID 0000.0001) deltaTClock  =   /* Model clock timestep ( s ) */
(PID.TID 0000.0001)                 8.640000000000000E+04
(PID.TID 0000.0001)     ;
(PID.TID 0000.0001) cAdjFreq =   /* Convective adjustment interval ( s ) */
(PID.TID 0000.0001)                 0.000000000000000E+00
(PID.TID 0000.0001)     ;
(PID.TID 0000.0001) momForcingOutAB = /* =1: take Momentum Forcing out of Adams-Bash. stepping */
(PID.TID 0000.0001)                       0
(PID.TID 0000.0001)     ;
(PID.TID 0000.0001) tracForcingOutAB = /* =1: take T,S,pTr Forcing out of Adams-Bash. stepping */
(PID.TID 0000.0001)                       1
(PID.TID 0000.0001)     ;
(PID.TID 0000.0001) momDissip_In_AB = /* put Dissipation Tendency in Adams-Bash. stepping */
(PID.TID 0000.0001)                   T
(PID.TID 0000.0001)     ;
(PID.TID 0000.0001) doAB_onGtGs = /* apply AB on Tendencies (rather than on T,S)*/
(PID.TID 0000.0001)                   T
(PID.TID 0000.0001)     ;
(PID.TID 0000.0001) abEps =   /* Adams-Bashforth-2 stabilizing weight */
(PID.TID 0000.0001)                 1.000000000000000E-01
(PID.TID 0000.0001)     ;
(PID.TID 0000.0001) pickupStrictlyMatch= /* stop if pickup do not strictly match */
(PID.TID 0000.0001)                   T
(PID.TID 0000.0001)     ;
(PID.TID 0000.0001) nIter0 =   /* Run starting timestep number  */
(PID.TID 0000.0001)                   36000
(PID.TID 0000.0001)     ;
(PID.TID 0000.0001) nTimeSteps =   /* Number of timesteps */
(PID.TID 0000.0001)                      20
(PID.TID 0000.0001)     ;
(PID.TID 0000.0001) baseTime =   /* Model base time ( s ). */
(PID.TID 0000.0001)                 0.000000000000000E+00
(PID.TID 0000.0001)     ;
(PID.TID 0000.0001) startTime =   /* Run start time ( s ). */
(PID.TID 0000.0001)                 3.110400000000000E+09
(PID.TID 0000.0001)     ;
(PID.TID 0000.0001) endTime =   /* Integration ending time ( s ). */
(PID.TID 0000.0001)                 3.112128000000000E+09
(PID.TID 0000.0001)     ;
(PID.TID 0000.0001) pChkPtFreq =   /* Permanent restart/checkpoint file interval ( s ). */
(PID.TID 0000.0001)                 3.110400000000000E+07
(PID.TID 0000.0001)     ;
(PID.TID 0000.0001) chkPtFreq =   /* Rolling restart/checkpoint file interval ( s ). */
(PID.TID 0000.0001)                 0.000000000000000E+00
(PID.TID 0000.0001)     ;
(PID.TID 0000.0001) pickup_write_mdsio =   /* Model IO flag. */
(PID.TID 0000.0001)                   T
(PID.TID 0000.0001)     ;
(PID.TID 0000.0001) pickup_read_mdsio =   /* Model IO flag. */
(PID.TID 0000.0001)                   T
(PID.TID 0000.0001)     ;
(PID.TID 0000.0001) pickup_write_mnc =   /* Model IO flag. */
(PID.TID 0000.0001)                   F
(PID.TID 0000.0001)     ;
(PID.TID 0000.0001) pickup_read_mnc =   /* Model IO flag. */
(PID.TID 0000.0001)                   F
(PID.TID 0000.0001)     ;
(PID.TID 0000.0001) pickup_write_immed =   /* Model IO flag. */
(PID.TID 0000.0001)                   F
(PID.TID 0000.0001)     ;
(PID.TID 0000.0001) writePickupAtEnd =   /* Model IO flag. */
(PID.TID 0000.0001)                   T
(PID.TID 0000.0001)     ;
(PID.TID 0000.0001) dumpFreq =   /* Model state write out interval ( s ). */
(PID.TID 0000.0001)                 3.110400000000000E+07
(PID.TID 0000.0001)     ;
(PID.TID 0000.0001) dumpInitAndLast= /* write out Initial & Last iter. model state */
(PID.TID 0000.0001)                   T
(PID.TID 0000.0001)     ;
(PID.TID 0000.0001) snapshot_mdsio =   /* Model IO flag. */
(PID.TID 0000.0001)                   T
(PID.TID 0000.0001)     ;
(PID.TID 0000.0001) snapshot_mnc =   /* Model IO flag. */
(PID.TID 0000.0001)                   F
(PID.TID 0000.0001)     ;
(PID.TID 0000.0001) monitorFreq =   /* Monitor output interval ( s ). */
(PID.TID 0000.0001)                 1.000000000000000E+00
(PID.TID 0000.0001)     ;
(PID.TID 0000.0001) monitorSelect = /* select group of variables to monitor */
(PID.TID 0000.0001)                       3
(PID.TID 0000.0001)     ;
(PID.TID 0000.0001) monitor_stdio =   /* Model IO flag. */
(PID.TID 0000.0001)                   T
(PID.TID 0000.0001)     ;
(PID.TID 0000.0001) monitor_mnc =   /* Model IO flag. */
(PID.TID 0000.0001)                   F
(PID.TID 0000.0001)     ;
(PID.TID 0000.0001) externForcingPeriod =   /* forcing period (s) */
(PID.TID 0000.0001)                 2.592000000000000E+06
(PID.TID 0000.0001)     ;
(PID.TID 0000.0001) externForcingCycle =   /* period of the cyle (s). */
(PID.TID 0000.0001)                 3.110400000000000E+07
(PID.TID 0000.0001)     ;
(PID.TID 0000.0001) tauThetaClimRelax =   /* relaxation time scale (s) */
(PID.TID 0000.0001)                 5.184000000000000E+06
(PID.TID 0000.0001)     ;
(PID.TID 0000.0001) tauSaltClimRelax =   /* relaxation time scale (s) */
(PID.TID 0000.0001)                 1.555200000000000E+07
(PID.TID 0000.0001)     ;
(PID.TID 0000.0001) latBandClimRelax =   /* max. Lat. where relaxation */
(PID.TID 0000.0001)                 5.000000000000000E+01
(PID.TID 0000.0001)     ;
(PID.TID 0000.0001) //
(PID.TID 0000.0001) // Gridding paramters ( PARM04 in namelist )
(PID.TID 0000.0001) //
(PID.TID 0000.0001) usingCartesianGrid = /* Cartesian coordinates flag ( True/False ) */
(PID.TID 0000.0001)                   F
(PID.TID 0000.0001)     ;
(PID.TID 0000.0001) usingCylindricalGrid = /* Cylindrical coordinates flag ( True/False ) */
(PID.TID 0000.0001)                   F
(PID.TID 0000.0001)     ;
(PID.TID 0000.0001) usingSphericalPolarGrid = /* Spherical coordinates flag ( True/False ) */
(PID.TID 0000.0001)                   F
(PID.TID 0000.0001)     ;
(PID.TID 0000.0001) usingCurvilinearGrid = /* Curvilinear coordinates flag ( True/False ) */
(PID.TID 0000.0001)                   T
(PID.TID 0000.0001)     ;
(PID.TID 0000.0001) selectSigmaCoord = /* Hybrid-Sigma Vert. Coordinate option */
(PID.TID 0000.0001)                       0
(PID.TID 0000.0001)     ;
(PID.TID 0000.0001) Ro_SeaLevel = /* r(1) ( units of r ==  m ) */
(PID.TID 0000.0001)                 0.000000000000000E+00
(PID.TID 0000.0001)     ;
(PID.TID 0000.0001) rSigmaBnd = /* r/sigma transition ( units of r ==  m ) */
(PID.TID 0000.0001)                 1.234567000000000E+05
(PID.TID 0000.0001)     ;
(PID.TID 0000.0001) rkSign =   /* index orientation relative to vertical coordinate */
(PID.TID 0000.0001)                -1.000000000000000E+00
(PID.TID 0000.0001)     ;
(PID.TID 0000.0001) gravitySign = /* gravity orientation relative to vertical coordinate */
(PID.TID 0000.0001)                -1.000000000000000E+00
(PID.TID 0000.0001)     ;
(PID.TID 0000.0001) mass2rUnit = /* convert mass per unit area [kg/m2] to r-units [m] */
(PID.TID 0000.0001)                 9.661835748792270E-04
(PID.TID 0000.0001)     ;
(PID.TID 0000.0001) rUnit2mass = /* convert r-units [m] to mass per unit area [kg/m2] */
(PID.TID 0000.0001)                 1.035000000000000E+03
(PID.TID 0000.0001)     ;
(PID.TID 0000.0001) drC =   /* C spacing ( units of r ) */
(PID.TID 0000.0001)                 2.500000000000000E+01,      /* K =  1 */
(PID.TID 0000.0001)                 6.000000000000000E+01,      /* K =  2 */
(PID.TID 0000.0001)                 8.500000000000000E+01,      /* K =  3 */
(PID.TID 0000.0001)                 1.200000000000000E+02,      /* K =  4 */
(PID.TID 0000.0001)                 1.650000000000000E+02,      /* K =  5 */
(PID.TID 0000.0001)                 2.150000000000000E+02,      /* K =  6 */
(PID.TID 0000.0001)                 2.650000000000000E+02,      /* K =  7 */
(PID.TID 0000.0001)                 3.150000000000000E+02,      /* K =  8 */
(PID.TID 0000.0001)                 3.650000000000000E+02,      /* K =  9 */
(PID.TID 0000.0001)                 4.150000000000000E+02,      /* K = 10 */
(PID.TID 0000.0001)                 4.650000000000000E+02,      /* K = 11 */
(PID.TID 0000.0001)                 5.150000000000000E+02,      /* K = 12 */
(PID.TID 0000.0001)                 5.650000000000000E+02,      /* K = 13 */
(PID.TID 0000.0001)                 6.150000000000000E+02,      /* K = 14 */
(PID.TID 0000.0001)                 6.650000000000000E+02       /* K = 15 */
(PID.TID 0000.0001)     ;
(PID.TID 0000.0001) drF =   /* W spacing ( units of r ) */
(PID.TID 0000.0001)                 5.000000000000000E+01,      /* K =  1 */
(PID.TID 0000.0001)                 7.000000000000000E+01,      /* K =  2 */
(PID.TID 0000.0001)                 1.000000000000000E+02,      /* K =  3 */
(PID.TID 0000.0001)                 1.400000000000000E+02,      /* K =  4 */
(PID.TID 0000.0001)                 1.900000000000000E+02,      /* K =  5 */
(PID.TID 0000.0001)                 2.400000000000000E+02,      /* K =  6 */
(PID.TID 0000.0001)                 2.900000000000000E+02,      /* K =  7 */
(PID.TID 0000.0001)                 3.400000000000000E+02,      /* K =  8 */
(PID.TID 0000.0001)                 3.900000000000000E+02,      /* K =  9 */
(PID.TID 0000.0001)                 4.400000000000000E+02,      /* K = 10 */
(PID.TID 0000.0001)                 4.900000000000000E+02,      /* K = 11 */
(PID.TID 0000.0001)                 5.400000000000000E+02,      /* K = 12 */
(PID.TID 0000.0001)                 5.900000000000000E+02,      /* K = 13 */
(PID.TID 0000.0001)                 6.400000000000000E+02,      /* K = 14 */
(PID.TID 0000.0001)                 6.900000000000000E+02       /* K = 15 */
(PID.TID 0000.0001)     ;
(PID.TID 0000.0001) xgOrigin = /* X-axis origin of West  edge (cartesian: m, lat-lon: deg.) */
(PID.TID 0000.0001)                 0.000000000000000E+00
(PID.TID 0000.0001)     ;
(PID.TID 0000.0001) ygOrigin = /* Y-axis origin of South edge (cartesian: m, lat-lon: deg.) */
(PID.TID 0000.0001)                 0.000000000000000E+00
(PID.TID 0000.0001)     ;
(PID.TID 0000.0001) rSphere =  /* Radius ( ignored - cartesian, m - spherical ) */
(PID.TID 0000.0001)                 6.370000000000000E+06
(PID.TID 0000.0001)     ;
(PID.TID 0000.0001) deepAtmosphere = /* Deep/Shallow Atmosphere flag (True/False) */
(PID.TID 0000.0001)                   F
(PID.TID 0000.0001)     ;
(PID.TID 0000.0001) xC =  /* xC(:,1,:,1) : P-point X coord ( deg. or m if cartesian) */
(PID.TID 0000.0001)                -4.439521994760536E+01,      /* I =  1 */
(PID.TID 0000.0001)                -4.295641272275883E+01,      /* I =  2 */
(PID.TID 0000.0001)                -4.122055553388957E+01,      /* I =  3 */
(PID.TID 0000.0001)      . . .
(PID.TID 0000.0001)                 1.312205555338896E+02,      /* I = 94 */
(PID.TID 0000.0001)                 1.329564127227588E+02,      /* I = 95 */
(PID.TID 0000.0001)                 1.343952199476053E+02,      /* I = 96 */
(PID.TID 0000.0001)                 4.635509675007168E+01,      /* I = 97 */
(PID.TID 0000.0001)                 4.906731228843647E+01,      /* I = 98 */
(PID.TID 0000.0001)                 5.178550688214704E+01,      /* I = 99 */
(PID.TID 0000.0001)      . . .
(PID.TID 0000.0001)                -1.778001716525716E+02,      /* I =190 */
(PID.TID 0000.0001)                -1.779288225675308E+02,      /* I =191 */
(PID.TID 0000.0001)                -1.780367200854751E+02,      /* I =192 */
(PID.TID 0000.0001)                 1.356047800523947E+02,      /* I =193 */
(PID.TID 0000.0001)                 1.358367907661329E+02,      /* I =194 */
(PID.TID 0000.0001)                 1.359720382181193E+02,      /* I =195 */
(PID.TID 0000.0001)      . . .
(PID.TID 0000.0001)                -1.340279617818807E+02,      /* I =286 */
(PID.TID 0000.0001)                -1.341632092338671E+02,      /* I =287 */
(PID.TID 0000.0001)                -1.343952199476053E+02,      /* I =288 */
(PID.TID 0000.0001)                -8.812739148696656E+01,      /* I =289 */
(PID.TID 0000.0001)                -8.820362659721324E+01,      /* I =290 */
(PID.TID 0000.0001)                -8.826768106944316E+01,      /* I =291 */
(PID.TID 0000.0001)      . . .
(PID.TID 0000.0001)                 8.780017165257156E+01,      /* I =382 */
(PID.TID 0000.0001)                 8.792882256753080E+01,      /* I =383 */
(PID.TID 0000.0001)                 8.803672008547504E+01       /* I =384 */
(PID.TID 0000.0001)     ;
(PID.TID 0000.0001) yC =  /* yC(1,:,1,:) : P-point Y coord ( deg. or m if cartesian) */
(PID.TID 0000.0001)                -3.497677942598243E+01,      /* J =  1 */
(PID.TID 0000.0001)                -3.374005967394886E+01,      /* J =  2 */
(PID.TID 0000.0001)                -3.220655175667454E+01,      /* J =  3 */
(PID.TID 0000.0001)                -3.045756348838641E+01,      /* J =  4 */
(PID.TID 0000.0001)                -2.853728129852918E+01,      /* J =  5 */
(PID.TID 0000.0001)                -2.647426640173173E+01,      /* J =  6 */
(PID.TID 0000.0001)                -2.428936657094636E+01,      /* J =  7 */
(PID.TID 0000.0001)                -2.199915808312262E+01,      /* J =  8 */
(PID.TID 0000.0001)                -1.961768597440146E+01,      /* J =  9 */
(PID.TID 0000.0001)                -1.715743888281371E+01,      /* J = 10 */
(PID.TID 0000.0001)                -1.462993396899330E+01,      /* J = 11 */
(PID.TID 0000.0001)                -1.204608340464756E+01,      /* J = 12 */
(PID.TID 0000.0001)                -9.416429130284818E+00,      /* J = 13 */
(PID.TID 0000.0001)                -6.751293662992216E+00,      /* J = 14 */
(PID.TID 0000.0001)                -4.060875511835959E+00,      /* J = 15 */
(PID.TID 0000.0001)                -1.355307764409121E+00       /* J = 16 */
(PID.TID 0000.0001)     ;
(PID.TID 0000.0001) rcoord = /* P-point R coordinate (  units of r ) */
(PID.TID 0000.0001)                -2.500000000000000E+01,      /* K =  1 */
(PID.TID 0000.0001)                -8.500000000000000E+01,      /* K =  2 */
(PID.TID 0000.0001)                -1.700000000000000E+02,      /* K =  3 */
(PID.TID 0000.0001)                -2.900000000000000E+02,      /* K =  4 */
(PID.TID 0000.0001)                -4.550000000000000E+02,      /* K =  5 */
(PID.TID 0000.0001)                -6.700000000000000E+02,      /* K =  6 */
(PID.TID 0000.0001)                -9.350000000000000E+02,      /* K =  7 */
(PID.TID 0000.0001)                -1.250000000000000E+03,      /* K =  8 */
(PID.TID 0000.0001)                -1.615000000000000E+03,      /* K =  9 */
(PID.TID 0000.0001)                -2.030000000000000E+03,      /* K = 10 */
(PID.TID 0000.0001)                -2.495000000000000E+03,      /* K = 11 */
(PID.TID 0000.0001)                -3.010000000000000E+03,      /* K = 12 */
(PID.TID 0000.0001)                -3.575000000000000E+03,      /* K = 13 */
(PID.TID 0000.0001)                -4.190000000000000E+03,      /* K = 14 */
(PID.TID 0000.0001)                -4.855000000000000E+03       /* K = 15 */
(PID.TID 0000.0001)     ;
(PID.TID 0000.0001) rF =   /* W-Interf. R coordinate (  units of r ) */
(PID.TID 0000.0001)                 0.000000000000000E+00,      /* K =  1 */
(PID.TID 0000.0001)                -5.000000000000000E+01,      /* K =  2 */
(PID.TID 0000.0001)                -1.200000000000000E+02,      /* K =  3 */
(PID.TID 0000.0001)                -2.200000000000000E+02,      /* K =  4 */
(PID.TID 0000.0001)                -3.600000000000000E+02,      /* K =  5 */
(PID.TID 0000.0001)                -5.500000000000000E+02,      /* K =  6 */
(PID.TID 0000.0001)                -7.900000000000000E+02,      /* K =  7 */
(PID.TID 0000.0001)                -1.080000000000000E+03,      /* K =  8 */
(PID.TID 0000.0001)                -1.420000000000000E+03,      /* K =  9 */
(PID.TID 0000.0001)                -1.810000000000000E+03,      /* K = 10 */
(PID.TID 0000.0001)                -2.250000000000000E+03,      /* K = 11 */
(PID.TID 0000.0001)                -2.740000000000000E+03,      /* K = 12 */
(PID.TID 0000.0001)                -3.280000000000000E+03,      /* K = 13 */
(PID.TID 0000.0001)                -3.870000000000000E+03,      /* K = 14 */
(PID.TID 0000.0001)                -4.510000000000000E+03,      /* K = 15 */
(PID.TID 0000.0001)                -5.200000000000000E+03       /* K = 16 */
(PID.TID 0000.0001)     ;
(PID.TID 0000.0001) deepFacC = /* deep-model grid factor @ cell-Center (-) */
(PID.TID 0000.0001)    15 @  1.000000000000000E+00              /* K =  1: 15 */
(PID.TID 0000.0001)     ;
(PID.TID 0000.0001) deepFacF = /* deep-model grid factor @ W-Interface (-) */
(PID.TID 0000.0001)    16 @  1.000000000000000E+00              /* K =  1: 16 */
(PID.TID 0000.0001)     ;
(PID.TID 0000.0001) rVel2wUnit = /* convert units: rVel -> wSpeed (=1 if z-coord)*/
(PID.TID 0000.0001)    16 @  1.000000000000000E+00              /* K =  1: 16 */
(PID.TID 0000.0001)     ;
(PID.TID 0000.0001) wUnit2rVel = /* convert units: wSpeed -> rVel (=1 if z-coord)*/
(PID.TID 0000.0001)    16 @  1.000000000000000E+00              /* K =  1: 16 */
(PID.TID 0000.0001)     ;
(PID.TID 0000.0001) dBdrRef = /* Vertical gradient of reference boyancy [(m/s/r)^2)] */
(PID.TID 0000.0001)    15 @  0.000000000000000E+00              /* K =  1: 15 */
(PID.TID 0000.0001)     ;
(PID.TID 0000.0001) rotateGrid = /* use rotated grid ( True/False ) */
(PID.TID 0000.0001)                   F
(PID.TID 0000.0001)     ;
(PID.TID 0000.0001) phiEuler = /* Euler angle, rotation about original z-coordinate [rad] */
(PID.TID 0000.0001)                 0.000000000000000E+00
(PID.TID 0000.0001)     ;
(PID.TID 0000.0001) thetaEuler = /* Euler angle, rotation about new x-coordinate [rad] */
(PID.TID 0000.0001)                 0.000000000000000E+00
(PID.TID 0000.0001)     ;
(PID.TID 0000.0001) psiEuler = /* Euler angle, rotation about new z-coordinate [rad] */
(PID.TID 0000.0001)                 0.000000000000000E+00
(PID.TID 0000.0001)     ;
(PID.TID 0000.0001) dxF =  /* dxF(:,1,:,1) ( units: m ) */
(PID.TID 0000.0001)                 1.202082051331828E+05,      /* I =  1 */
(PID.TID 0000.0001)                 1.563594089971120E+05,      /* I =  2 */
(PID.TID 0000.0001)                 1.835530058121492E+05,      /* I =  3 */
(PID.TID 0000.0001)      . . .
(PID.TID 0000.0001)                 1.835530058121492E+05,      /* I = 94 */
(PID.TID 0000.0001)                 1.563594089971120E+05,      /* I = 95 */
(PID.TID 0000.0001)                 1.202082051331828E+05,      /* I = 96 */
(PID.TID 0000.0001)                 3.012844832048790E+05,      /* I = 97 */
(PID.TID 0000.0001)                 3.017314519159184E+05,      /* I = 98 */
(PID.TID 0000.0001)                 3.026061571839506E+05,      /* I = 99 */
(PID.TID 0000.0001)      . . .
(PID.TID 0000.0001)                 3.026061571839506E+05,      /* I =190 */
(PID.TID 0000.0001)                 3.017314519159184E+05,      /* I =191 */
(PID.TID 0000.0001)                 3.012844832048790E+05,      /* I =192 */
(PID.TID 0000.0001)                 1.202082051331828E+05,      /* I =193 */
(PID.TID 0000.0001)                 1.563594089971120E+05,      /* I =194 */
(PID.TID 0000.0001)                 1.835530058121492E+05,      /* I =195 */
(PID.TID 0000.0001)      . . .
(PID.TID 0000.0001)                 1.835530058121492E+05,      /* I =286 */
(PID.TID 0000.0001)                 1.563594089971120E+05,      /* I =287 */
(PID.TID 0000.0001)                 1.202082051331828E+05,      /* I =288 */
(PID.TID 0000.0001)                 3.012844832048790E+05,      /* I =289 */
(PID.TID 0000.0001)                 3.017314519159184E+05,      /* I =290 */
(PID.TID 0000.0001)                 3.026061571839506E+05,      /* I =291 */
(PID.TID 0000.0001)      . . .
(PID.TID 0000.0001)                 3.026061571839506E+05,      /* I =382 */
(PID.TID 0000.0001)                 3.017314519159184E+05,      /* I =383 */
(PID.TID 0000.0001)                 3.012844832048790E+05       /* I =384 */
(PID.TID 0000.0001)     ;
(PID.TID 0000.0001) dxF =  /* dxF(1,:,1,:) ( units: m ) */
(PID.TID 0000.0001)                 1.202082051331828E+05,      /* J =  1 */
(PID.TID 0000.0001)                 1.572908084538706E+05,      /* J =  2 */
(PID.TID 0000.0001)                 1.840412227747703E+05,      /* J =  3 */
(PID.TID 0000.0001)                 2.048868197919576E+05,      /* J =  4 */
(PID.TID 0000.0001)                 2.220405216043041E+05,      /* J =  5 */
(PID.TID 0000.0001)                 2.365892017348392E+05,      /* J =  6 */
(PID.TID 0000.0001)                 2.491250781852558E+05,      /* J =  7 */
(PID.TID 0000.0001)                 2.599949918261881E+05,      /* J =  8 */
(PID.TID 0000.0001)                 2.694110134598581E+05,      /* J =  9 */
(PID.TID 0000.0001)                 2.775055554645015E+05,      /* J = 10 */
(PID.TID 0000.0001)                 2.843615645344775E+05,      /* J = 11 */
(PID.TID 0000.0001)                 2.900303768613599E+05,      /* J = 12 */
(PID.TID 0000.0001)                 2.945429307892709E+05,      /* J = 13 */
(PID.TID 0000.0001)                 2.979171143158405E+05,      /* J = 14 */
(PID.TID 0000.0001)                 3.001626787528886E+05,      /* J = 15 */
(PID.TID 0000.0001)                 3.012844832048790E+05       /* J = 16 */
(PID.TID 0000.0001)     ;
(PID.TID 0000.0001) dyF =  /* dyF(:,1,:,1) ( units: m ) */
(PID.TID 0000.0001)                 1.202082051331828E+05,      /* I =  1 */
(PID.TID 0000.0001)                 1.572908084538706E+05,      /* I =  2 */
(PID.TID 0000.0001)                 1.840412227747703E+05,      /* I =  3 */
(PID.TID 0000.0001)      . . .
(PID.TID 0000.0001)                 1.840412227747703E+05,      /* I = 94 */
(PID.TID 0000.0001)                 1.572908084538706E+05,      /* I = 95 */
(PID.TID 0000.0001)                 1.202082051331828E+05,      /* I = 96 */
(PID.TID 0000.0001)                 3.012190981969055E+05,      /* I = 97 */
(PID.TID 0000.0001)                 3.016675528553907E+05,      /* I = 98 */
(PID.TID 0000.0001)                 3.025451404065074E+05,      /* I = 99 */
(PID.TID 0000.0001)      . . .
(PID.TID 0000.0001)                 3.025451404065074E+05,      /* I =190 */
(PID.TID 0000.0001)                 3.016675528553907E+05,      /* I =191 */
(PID.TID 0000.0001)                 3.012190981969055E+05,      /* I =192 */
(PID.TID 0000.0001)                 1.202082051331828E+05,      /* I =193 */
(PID.TID 0000.0001)                 1.572908084538706E+05,      /* I =194 */
(PID.TID 0000.0001)                 1.840412227747703E+05,      /* I =195 */
(PID.TID 0000.0001)      . . .
(PID.TID 0000.0001)                 1.840412227747703E+05,      /* I =286 */
(PID.TID 0000.0001)                 1.572908084538706E+05,      /* I =287 */
(PID.TID 0000.0001)                 1.202082051331828E+05,      /* I =288 */
(PID.TID 0000.0001)                 3.012190981969055E+05,      /* I =289 */
(PID.TID 0000.0001)                 3.016675528553907E+05,      /* I =290 */
(PID.TID 0000.0001)                 3.025451404065074E+05,      /* I =291 */
(PID.TID 0000.0001)      . . .
(PID.TID 0000.0001)                 3.025451404065074E+05,      /* I =382 */
(PID.TID 0000.0001)                 3.016675528553907E+05,      /* I =383 */
(PID.TID 0000.0001)                 3.012190981969055E+05       /* I =384 */
(PID.TID 0000.0001)     ;
(PID.TID 0000.0001) dyF =  /* dyF(1,:,1,:) ( units: m ) */
(PID.TID 0000.0001)                 1.202082051331828E+05,      /* J =  1 */
(PID.TID 0000.0001)                 1.563594089971120E+05,      /* J =  2 */
(PID.TID 0000.0001)                 1.835530058121492E+05,      /* J =  3 */
(PID.TID 0000.0001)                 2.045883481718707E+05,      /* J =  4 */
(PID.TID 0000.0001)                 2.218350349844185E+05,      /* J =  5 */
(PID.TID 0000.0001)                 2.364352994647058E+05,      /* J =  6 */
(PID.TID 0000.0001)                 2.490022710862746E+05,      /* J =  7 */
(PID.TID 0000.0001)                 2.598919724358304E+05,      /* J =  8 */
(PID.TID 0000.0001)                 2.693210245495156E+05,      /* J =  9 */
(PID.TID 0000.0001)                 2.774243179696503E+05,      /* J = 10 */
(PID.TID 0000.0001)                 2.842862532064524E+05,      /* J = 11 */
(PID.TID 0000.0001)                 2.899590699694043E+05,      /* J = 12 */
(PID.TID 0000.0001)                 2.944742915095688E+05,      /* J = 13 */
(PID.TID 0000.0001)                 2.978501920522794E+05,      /* J = 14 */
(PID.TID 0000.0001)                 3.000967749619962E+05,      /* J = 15 */
(PID.TID 0000.0001)                 3.012190981969055E+05       /* J = 16 */
(PID.TID 0000.0001)     ;
(PID.TID 0000.0001) dxG =  /* dxG(:,1,:,1) ( units: m ) */
(PID.TID 0000.0001)                 1.009837800879055E+05,      /* I =  1 */
(PID.TID 0000.0001)                 1.534505834330338E+05,      /* I =  2 */
(PID.TID 0000.0001)                 1.823321598773926E+05,      /* I =  3 */
(PID.TID 0000.0001)      . . .
(PID.TID 0000.0001)                 1.823321598773926E+05,      /* I = 94 */
(PID.TID 0000.0001)                 1.534505834330338E+05,      /* I = 95 */
(PID.TID 0000.0001)                 1.009837800879055E+05,      /* I = 96 */
(PID.TID 0000.0001)                 3.014246674484008E+05,      /* I = 97 */
(PID.TID 0000.0001)                 3.018694497480782E+05,      /* I = 98 */
(PID.TID 0000.0001)                 3.027399364062562E+05,      /* I = 99 */
(PID.TID 0000.0001)      . . .
(PID.TID 0000.0001)                 3.027399364062562E+05,      /* I =190 */
(PID.TID 0000.0001)                 3.018694497480782E+05,      /* I =191 */
(PID.TID 0000.0001)                 3.014246674484008E+05,      /* I =192 */
(PID.TID 0000.0001)                 1.009837800879055E+05,      /* I =193 */
(PID.TID 0000.0001)                 1.534505834330338E+05,      /* I =194 */
(PID.TID 0000.0001)                 1.823321598773926E+05,      /* I =195 */
(PID.TID 0000.0001)      . . .
(PID.TID 0000.0001)                 1.823321598773926E+05,      /* I =286 */
(PID.TID 0000.0001)                 1.534505834330338E+05,      /* I =287 */
(PID.TID 0000.0001)                 1.009837800879055E+05,      /* I =288 */
(PID.TID 0000.0001)                 3.014246674484008E+05,      /* I =289 */
(PID.TID 0000.0001)                 3.018694497480782E+05,      /* I =290 */
(PID.TID 0000.0001)                 3.027399364062562E+05,      /* I =291 */
(PID.TID 0000.0001)      . . .
(PID.TID 0000.0001)                 3.027399364062562E+05,      /* I =382 */
(PID.TID 0000.0001)                 3.018694497480782E+05,      /* I =383 */
(PID.TID 0000.0001)                 3.014246674484008E+05       /* I =384 */
(PID.TID 0000.0001)     ;
(PID.TID 0000.0001) dxG =  /* dxG(1,:,1,:) ( units: m ) */
(PID.TID 0000.0001)                 1.009837800879055E+05,      /* J =  1 */
(PID.TID 0000.0001)                 1.403701524205398E+05,      /* J =  2 */
(PID.TID 0000.0001)                 1.716197227386011E+05,      /* J =  3 */
(PID.TID 0000.0001)                 1.950254041626018E+05,      /* J =  4 */
(PID.TID 0000.0001)                 2.138410773065497E+05,      /* J =  5 */
(PID.TID 0000.0001)                 2.295958105911512E+05,      /* J =  6 */
(PID.TID 0000.0001)                 2.430829951739083E+05,      /* J =  7 */
(PID.TID 0000.0001)                 2.547526806712889E+05,      /* J =  8 */
(PID.TID 0000.0001)                 2.648750305193301E+05,      /* J =  9 */
(PID.TID 0000.0001)                 2.736173771018112E+05,      /* J = 10 */
(PID.TID 0000.0001)                 2.810845823202647E+05,      /* J = 11 */
(PID.TID 0000.0001)                 2.873420591008078E+05,      /* J = 12 */
(PID.TID 0000.0001)                 2.924298293668651E+05,      /* J = 13 */
(PID.TID 0000.0001)                 2.963715635865306E+05,      /* J = 14 */
(PID.TID 0000.0001)                 2.991805843171258E+05,      /* J = 15 */
(PID.TID 0000.0001)                 3.008638765647886E+05       /* J = 16 */
(PID.TID 0000.0001)     ;
(PID.TID 0000.0001) dyG =  /* dyG(:,1,:,1) ( units: m ) */
(PID.TID 0000.0001)                 1.009837800879055E+05,      /* I =  1 */
(PID.TID 0000.0001)                 1.403701524205398E+05,      /* I =  2 */
(PID.TID 0000.0001)                 1.716197227386011E+05,      /* I =  3 */
(PID.TID 0000.0001)      . . .
(PID.TID 0000.0001)                 1.950254041626018E+05,      /* I = 94 */
(PID.TID 0000.0001)                 1.716197227386011E+05,      /* I = 95 */
(PID.TID 0000.0001)                 1.403701524205398E+05,      /* I = 96 */
(PID.TID 0000.0001)                 3.011625828699101E+05,      /* I = 97 */
(PID.TID 0000.0001)                 3.013880313304323E+05,      /* I = 98 */
(PID.TID 0000.0001)                 3.020546438966793E+05,      /* I = 99 */
(PID.TID 0000.0001)      . . .
(PID.TID 0000.0001)                 3.031337933484788E+05,      /* I =190 */
(PID.TID 0000.0001)                 3.020546438966793E+05,      /* I =191 */
(PID.TID 0000.0001)                 3.013880313304323E+05,      /* I =192 */
(PID.TID 0000.0001)                 1.009837800879055E+05,      /* I =193 */
(PID.TID 0000.0001)                 1.403701524205398E+05,      /* I =194 */
(PID.TID 0000.0001)                 1.716197227386011E+05,      /* I =195 */
(PID.TID 0000.0001)      . . .
(PID.TID 0000.0001)                 1.950254041626018E+05,      /* I =286 */
(PID.TID 0000.0001)                 1.716197227386011E+05,      /* I =287 */
(PID.TID 0000.0001)                 1.403701524205398E+05,      /* I =288 */
(PID.TID 0000.0001)                 3.011625828699101E+05,      /* I =289 */
(PID.TID 0000.0001)                 3.013880313304323E+05,      /* I =290 */
(PID.TID 0000.0001)                 3.020546438966793E+05,      /* I =291 */
(PID.TID 0000.0001)      . . .
(PID.TID 0000.0001)                 3.031337933484788E+05,      /* I =382 */
(PID.TID 0000.0001)                 3.020546438966793E+05,      /* I =383 */
(PID.TID 0000.0001)                 3.013880313304323E+05       /* I =384 */
(PID.TID 0000.0001)     ;
(PID.TID 0000.0001) dyG =  /* dyG(1,:,1,:) ( units: m ) */
(PID.TID 0000.0001)                 1.009837800879055E+05,      /* J =  1 */
(PID.TID 0000.0001)                 1.534505834330338E+05,      /* J =  2 */
(PID.TID 0000.0001)                 1.823321598773926E+05,      /* J =  3 */
(PID.TID 0000.0001)                 2.038999045536999E+05,      /* J =  4 */
(PID.TID 0000.0001)                 2.213884732245467E+05,      /* J =  5 */
(PID.TID 0000.0001)                 2.361211699596122E+05,      /* J =  6 */
(PID.TID 0000.0001)                 2.487693460283865E+05,      /* J =  7 */
(PID.TID 0000.0001)                 2.597126963772147E+05,      /* J =  8 */
(PID.TID 0000.0001)                 2.691790288994575E+05,      /* J =  9 */
(PID.TID 0000.0001)                 2.773091043277394E+05,      /* J = 10 */
(PID.TID 0000.0001)                 2.841906470085516E+05,      /* J = 11 */
(PID.TID 0000.0001)                 2.898778860929753E+05,      /* J = 12 */
(PID.TID 0000.0001)                 2.944035815526416E+05,      /* J = 13 */
(PID.TID 0000.0001)                 2.977867909042096E+05,      /* J = 14 */
(PID.TID 0000.0001)                 3.000380090330854E+05,      /* J = 15 */
(PID.TID 0000.0001)                 3.011625828699101E+05       /* J = 16 */
(PID.TID 0000.0001)     ;
(PID.TID 0000.0001) dxC =  /* dxC(:,1,:,1) ( units: m ) */
(PID.TID 0000.0001)                 1.114203141013064E+05,      /* I =  1 */
(PID.TID 0000.0001)                 1.391343389937106E+05,      /* I =  2 */
(PID.TID 0000.0001)                 1.709574999026266E+05,      /* I =  3 */
(PID.TID 0000.0001)      . . .
(PID.TID 0000.0001)                 1.946503699269892E+05,      /* I = 94 */
(PID.TID 0000.0001)                 1.709574999026266E+05,      /* I = 95 */
(PID.TID 0000.0001)                 1.391343389937106E+05,      /* I = 96 */
(PID.TID 0000.0001)                 3.012281885409289E+05,      /* I = 97 */
(PID.TID 0000.0001)                 3.014528555318499E+05,      /* I = 98 */
(PID.TID 0000.0001)                 3.021172674809921E+05,      /* I = 99 */
(PID.TID 0000.0001)      . . .
(PID.TID 0000.0001)                 3.031928954490276E+05,      /* I =190 */
(PID.TID 0000.0001)                 3.021172674809921E+05,      /* I =191 */
(PID.TID 0000.0001)                 3.014528555318499E+05,      /* I =192 */
(PID.TID 0000.0001)                 1.114203141013064E+05,      /* I =193 */
(PID.TID 0000.0001)                 1.391343389937106E+05,      /* I =194 */
(PID.TID 0000.0001)                 1.709574999026266E+05,      /* I =195 */
(PID.TID 0000.0001)      . . .
(PID.TID 0000.0001)                 1.946503699269892E+05,      /* I =286 */
(PID.TID 0000.0001)                 1.709574999026266E+05,      /* I =287 */
(PID.TID 0000.0001)                 1.391343389937106E+05,      /* I =288 */
(PID.TID 0000.0001)                 3.012281885409289E+05,      /* I =289 */
(PID.TID 0000.0001)                 3.014528555318499E+05,      /* I =290 */
(PID.TID 0000.0001)                 3.021172674809921E+05,      /* I =291 */
(PID.TID 0000.0001)      . . .
(PID.TID 0000.0001)                 3.031928954490276E+05,      /* I =382 */
(PID.TID 0000.0001)                 3.021172674809921E+05,      /* I =383 */
(PID.TID 0000.0001)                 3.014528555318499E+05       /* I =384 */
(PID.TID 0000.0001)     ;
(PID.TID 0000.0001) dxC =  /* dxC(1,:,1,:) ( units: m ) */
(PID.TID 0000.0001)                 1.114203141013064E+05,      /* J =  1 */
(PID.TID 0000.0001)                 1.549545757850771E+05,      /* J =  2 */
(PID.TID 0000.0001)                 1.829777599966776E+05,      /* J =  3 */
(PID.TID 0000.0001)                 2.042717761866506E+05,      /* J =  4 */
(PID.TID 0000.0001)                 2.216367828252819E+05,      /* J =  5 */
(PID.TID 0000.0001)                 2.363029564123586E+05,      /* J =  6 */
(PID.TID 0000.0001)                 2.489113743322025E+05,      /* J =  7 */
(PID.TID 0000.0001)                 2.598293319150326E+05,      /* J =  8 */
(PID.TID 0000.0001)                 2.692787333338535E+05,      /* J =  9 */
(PID.TID 0000.0001)                 2.773972106720365E+05,      /* J = 10 */
(PID.TID 0000.0001)                 2.842706922224557E+05,      /* J = 11 */
(PID.TID 0000.0001)                 2.899523122489403E+05,      /* J = 12 */
(PID.TID 0000.0001)                 2.944741346384699E+05,      /* J = 13 */
(PID.TID 0000.0001)                 2.978547649292580E+05,      /* J = 14 */
(PID.TID 0000.0001)                 3.001044073506459E+05,      /* J = 15 */
(PID.TID 0000.0001)                 3.012281885409289E+05       /* J = 16 */
(PID.TID 0000.0001)     ;
(PID.TID 0000.0001) dyC =  /* dyC(:,1,:,1) ( units: m ) */
(PID.TID 0000.0001)                 1.114203141013064E+05,      /* I =  1 */
(PID.TID 0000.0001)                 1.549545757850771E+05,      /* I =  2 */
(PID.TID 0000.0001)                 1.829777599966776E+05,      /* I =  3 */
(PID.TID 0000.0001)      . . .
(PID.TID 0000.0001)                 1.829777599966776E+05,      /* I = 94 */
(PID.TID 0000.0001)                 1.549545757850771E+05,      /* I = 95 */
(PID.TID 0000.0001)                 1.114203141013064E+05,      /* I = 96 */
(PID.TID 0000.0001)                 3.013593857228136E+05,      /* I = 97 */
(PID.TID 0000.0001)                 3.018056440786431E+05,      /* I = 98 */
(PID.TID 0000.0001)                 3.026789946729719E+05,      /* I = 99 */
(PID.TID 0000.0001)      . . .
(PID.TID 0000.0001)                 3.026789946729719E+05,      /* I =190 */
(PID.TID 0000.0001)                 3.018056440786431E+05,      /* I =191 */
(PID.TID 0000.0001)                 3.013593857228136E+05,      /* I =192 */
(PID.TID 0000.0001)                 1.114203141013064E+05,      /* I =193 */
(PID.TID 0000.0001)                 1.549545757850771E+05,      /* I =194 */
(PID.TID 0000.0001)                 1.829777599966776E+05,      /* I =195 */
(PID.TID 0000.0001)      . . .
(PID.TID 0000.0001)                 1.829777599966776E+05,      /* I =286 */
(PID.TID 0000.0001)                 1.549545757850771E+05,      /* I =287 */
(PID.TID 0000.0001)                 1.114203141013064E+05,      /* I =288 */
(PID.TID 0000.0001)                 3.013593857228136E+05,      /* I =289 */
(PID.TID 0000.0001)                 3.018056440786431E+05,      /* I =290 */
(PID.TID 0000.0001)                 3.026789946729719E+05,      /* I =291 */
(PID.TID 0000.0001)      . . .
(PID.TID 0000.0001)                 3.026789946729719E+05,      /* I =382 */
(PID.TID 0000.0001)                 3.018056440786431E+05,      /* I =383 */
(PID.TID 0000.0001)                 3.013593857228136E+05       /* I =384 */
(PID.TID 0000.0001)     ;
(PID.TID 0000.0001) dyC =  /* dyC(1,:,1,:) ( units: m ) */
(PID.TID 0000.0001)                 1.114203141013064E+05,      /* J =  1 */
(PID.TID 0000.0001)                 1.391343389937106E+05,      /* J =  2 */
(PID.TID 0000.0001)                 1.709574999026266E+05,      /* J =  3 */
(PID.TID 0000.0001)                 1.946503699269892E+05,      /* J =  4 */
(PID.TID 0000.0001)                 2.135964483342134E+05,      /* J =  5 */
(PID.TID 0000.0001)                 2.294195678257306E+05,      /* J =  6 */
(PID.TID 0000.0001)                 2.429464709770498E+05,      /* J =  7 */
(PID.TID 0000.0001)                 2.546408290696998E+05,      /* J =  8 */
(PID.TID 0000.0001)                 2.647791839299727E+05,      /* J =  9 */
(PID.TID 0000.0001)                 2.735321911346108E+05,      /* J = 10 */
(PID.TID 0000.0001)                 2.810065951609633E+05,      /* J = 11 */
(PID.TID 0000.0001)                 2.872689479506990E+05,      /* J = 12 */
(PID.TID 0000.0001)                 2.923599955312932E+05,      /* J = 13 */
(PID.TID 0000.0001)                 2.963038832565530E+05,      /* J = 14 */
(PID.TID 0000.0001)                 2.991142470004740E+05,      /* J = 15 */
(PID.TID 0000.0001)                 3.007982711627968E+05       /* J = 16 */
(PID.TID 0000.0001)     ;
(PID.TID 0000.0001) dxV =  /* dxV(:,1,:,1) ( units: m ) */
(PID.TID 0000.0001)                 8.015229982413632E+04,      /* I =  1 */
(PID.TID 0000.0001)                 1.333130744933864E+05,      /* I =  2 */
(PID.TID 0000.0001)                 1.691744868129062E+05,      /* I =  3 */
(PID.TID 0000.0001)      . . .
(PID.TID 0000.0001)                 1.937548202849060E+05,      /* I = 94 */
(PID.TID 0000.0001)                 1.691744868129062E+05,      /* I = 95 */
(PID.TID 0000.0001)                 1.333130744933864E+05,      /* I = 96 */
(PID.TID 0000.0001)                 3.013686170436881E+05,      /* I = 97 */
(PID.TID 0000.0001)                 3.015922136961168E+05,      /* I = 98 */
(PID.TID 0000.0001)                 3.022533948177109E+05,      /* I = 99 */
(PID.TID 0000.0001)      . . .
(PID.TID 0000.0001)                 3.033238888442880E+05,      /* I =190 */
(PID.TID 0000.0001)                 3.022533948177109E+05,      /* I =191 */
(PID.TID 0000.0001)                 3.015922136961168E+05,      /* I =192 */
(PID.TID 0000.0001)                 8.015229982413632E+04,      /* I =193 */
(PID.TID 0000.0001)                 1.333130744933864E+05,      /* I =194 */
(PID.TID 0000.0001)                 1.691744868129062E+05,      /* I =195 */
(PID.TID 0000.0001)      . . .
(PID.TID 0000.0001)                 1.937548202849060E+05,      /* I =286 */
(PID.TID 0000.0001)                 1.691744868129062E+05,      /* I =287 */
(PID.TID 0000.0001)                 1.333130744933864E+05,      /* I =288 */
(PID.TID 0000.0001)                 3.013686170436881E+05,      /* I =289 */
(PID.TID 0000.0001)                 3.015922136961168E+05,      /* I =290 */
(PID.TID 0000.0001)                 3.022533948177109E+05,      /* I =291 */
(PID.TID 0000.0001)      . . .
(PID.TID 0000.0001)                 3.033238888442880E+05,      /* I =382 */
(PID.TID 0000.0001)                 3.022533948177109E+05,      /* I =383 */
(PID.TID 0000.0001)                 3.015922136961168E+05       /* I =384 */
(PID.TID 0000.0001)     ;
(PID.TID 0000.0001) dxV =  /* dxV(1,:,1,:) ( units: m ) */
(PID.TID 0000.0001)                 8.015229982413632E+04,      /* J =  1 */
(PID.TID 0000.0001)                 1.362652340208229E+05,      /* J =  2 */
(PID.TID 0000.0001)                 1.701080315742101E+05,      /* J =  3 */
(PID.TID 0000.0001)                 1.942331448101592E+05,      /* J =  4 */
(PID.TID 0000.0001)                 2.133486626971531E+05,      /* J =  5 */
(PID.TID 0000.0001)                 2.292584591272880E+05,      /* J =  6 */
(PID.TID 0000.0001)                 2.428369969078989E+05,      /* J =  7 */
(PID.TID 0000.0001)                 2.545652950875683E+05,      /* J =  8 */
(PID.TID 0000.0001)                 2.647274964828301E+05,      /* J =  9 */
(PID.TID 0000.0001)                 2.734980225206389E+05,      /* J = 10 */
(PID.TID 0000.0001)                 2.809856491525217E+05,      /* J = 11 */
(PID.TID 0000.0001)                 2.872580915202295E+05,      /* J = 12 */
(PID.TID 0000.0001)                 2.923567890694162E+05,      /* J = 13 */
(PID.TID 0000.0001)                 2.963063101754721E+05,      /* J = 14 */
(PID.TID 0000.0001)                 2.991205495886625E+05,      /* J = 15 */
(PID.TID 0000.0001)                 3.008068453676764E+05       /* J = 16 */
(PID.TID 0000.0001)     ;
(PID.TID 0000.0001) dyU =  /* dyU(:,1,:,1) ( units: m ) */
(PID.TID 0000.0001)                 8.015229982413632E+04,      /* I =  1 */
(PID.TID 0000.0001)                 1.362652340208229E+05,      /* I =  2 */
(PID.TID 0000.0001)                 1.701080315742101E+05,      /* I =  3 */
(PID.TID 0000.0001)      . . .
(PID.TID 0000.0001)                 1.942331448101592E+05,      /* I = 94 */
(PID.TID 0000.0001)                 1.701080315742101E+05,      /* I = 95 */
(PID.TID 0000.0001)                 1.362652340208229E+05,      /* I = 96 */
(PID.TID 0000.0001)                 3.013031486919771E+05,      /* I = 97 */
(PID.TID 0000.0001)                 3.015274890091515E+05,      /* I = 98 */
(PID.TID 0000.0001)                 3.021908563699420E+05,      /* I = 99 */
(PID.TID 0000.0001)      . . .
(PID.TID 0000.0001)                 3.032648502024415E+05,      /* I =190 */
(PID.TID 0000.0001)                 3.021908563699420E+05,      /* I =191 */
(PID.TID 0000.0001)                 3.015274890091515E+05,      /* I =192 */
(PID.TID 0000.0001)                 8.015229982413632E+04,      /* I =193 */
(PID.TID 0000.0001)                 1.362652340208229E+05,      /* I =194 */
(PID.TID 0000.0001)                 1.701080315742101E+05,      /* I =195 */
(PID.TID 0000.0001)      . . .
(PID.TID 0000.0001)                 1.942331448101592E+05,      /* I =286 */
(PID.TID 0000.0001)                 1.701080315742101E+05,      /* I =287 */
(PID.TID 0000.0001)                 1.362652340208229E+05,      /* I =288 */
(PID.TID 0000.0001)                 3.013031486919771E+05,      /* I =289 */
(PID.TID 0000.0001)                 3.015274890091515E+05,      /* I =290 */
(PID.TID 0000.0001)                 3.021908563699420E+05,      /* I =291 */
(PID.TID 0000.0001)      . . .
(PID.TID 0000.0001)                 3.032648502024415E+05,      /* I =382 */
(PID.TID 0000.0001)                 3.021908563699420E+05,      /* I =383 */
(PID.TID 0000.0001)                 3.015274890091515E+05       /* I =384 */
(PID.TID 0000.0001)     ;
(PID.TID 0000.0001) dyU =  /* dyU(1,:,1,:) ( units: m ) */
(PID.TID 0000.0001)                 8.015229982413632E+04,      /* J =  1 */
(PID.TID 0000.0001)                 1.333130744933864E+05,      /* J =  2 */
(PID.TID 0000.0001)                 1.691744868129062E+05,      /* J =  3 */
(PID.TID 0000.0001)                 1.937548202849060E+05,      /* J =  4 */
(PID.TID 0000.0001)                 2.130490056267208E+05,      /* J =  5 */
(PID.TID 0000.0001)                 2.290479919481738E+05,      /* J =  6 */
(PID.TID 0000.0001)                 2.426774358027003E+05,      /* J =  7 */
(PID.TID 0000.0001)                 2.544372984215561E+05,      /* J =  8 */
(PID.TID 0000.0001)                 2.646201463834826E+05,      /* J =  9 */
(PID.TID 0000.0001)                 2.734046499619031E+05,      /* J = 10 */
(PID.TID 0000.0001)                 2.809019351693761E+05,      /* J = 11 */
(PID.TID 0000.0001)                 2.871811105274442E+05,      /* J = 12 */
(PID.TID 0000.0001)                 2.922844849381675E+05,      /* J = 13 */
(PID.TID 0000.0001)                 2.962371870847826E+05,      /* J = 14 */
(PID.TID 0000.0001)                 2.990534755671296E+05,      /* J = 15 */
(PID.TID 0000.0001)                 3.007409169495504E+05       /* J = 16 */
(PID.TID 0000.0001)     ;
(PID.TID 0000.0001) rA  =  /* rA (:,1,:,1) ( units: m^2 ) */
(PID.TID 0000.0001)                 1.401900702255611E+10,      /* I =  1 */
(PID.TID 0000.0001)                 2.459906945574446E+10,      /* I =  2 */
(PID.TID 0000.0001)                 3.378518544307869E+10,      /* I =  3 */
(PID.TID 0000.0001)      . . .
(PID.TID 0000.0001)                 3.378518544304265E+10,      /* I = 94 */
(PID.TID 0000.0001)                 2.459906945574446E+10,      /* I = 95 */
(PID.TID 0000.0001)                 1.401900702259215E+10,      /* I = 96 */
(PID.TID 0000.0001)                 9.076111290422060E+10,      /* I = 97 */
(PID.TID 0000.0001)                 9.103111035233499E+10,      /* I = 98 */
(PID.TID 0000.0001)                 9.156064070993231E+10,      /* I = 99 */
(PID.TID 0000.0001)      . . .
(PID.TID 0000.0001)                 9.156064070993231E+10,      /* I =190 */
(PID.TID 0000.0001)                 9.103111035233499E+10,      /* I =191 */
(PID.TID 0000.0001)                 9.076111290418457E+10,      /* I =192 */
(PID.TID 0000.0001)                 1.401900702255611E+10,      /* I =193 */
(PID.TID 0000.0001)                 2.459906945574446E+10,      /* I =194 */
(PID.TID 0000.0001)                 3.378518544307869E+10,      /* I =195 */
(PID.TID 0000.0001)      . . .
(PID.TID 0000.0001)                 3.378518544304265E+10,      /* I =286 */
(PID.TID 0000.0001)                 2.459906945574446E+10,      /* I =287 */
(PID.TID 0000.0001)                 1.401900702259215E+10,      /* I =288 */
(PID.TID 0000.0001)                 9.076111290422060E+10,      /* I =289 */
(PID.TID 0000.0001)                 9.103111035233499E+10,      /* I =290 */
(PID.TID 0000.0001)                 9.156064070993231E+10,      /* I =291 */
(PID.TID 0000.0001)      . . .
(PID.TID 0000.0001)                 9.156064070993231E+10,      /* I =382 */
(PID.TID 0000.0001)                 9.103111035233499E+10,      /* I =383 */
(PID.TID 0000.0001)                 9.076111290418457E+10       /* I =384 */
(PID.TID 0000.0001)     ;
(PID.TID 0000.0001) rA  =  /* rA (1,:,1,:) ( units: m^2 ) */
(PID.TID 0000.0001)                 1.401900702255611E+10,      /* J =  1 */
(PID.TID 0000.0001)                 2.459906945574446E+10,      /* J =  2 */
(PID.TID 0000.0001)                 3.378518544307869E+10,      /* J =  3 */
(PID.TID 0000.0001)                 4.192037169898667E+10,      /* J =  4 */
(PID.TID 0000.0001)                 4.925938996118163E+10,      /* J =  5 */
(PID.TID 0000.0001)                 5.594154126607553E+10,      /* J =  6 */
(PID.TID 0000.0001)                 6.203683527776127E+10,      /* J =  7 */
(PID.TID 0000.0001)                 6.757541173817516E+10,      /* J =  8 */
(PID.TID 0000.0001)                 7.256353271748119E+10,      /* J =  9 */
(PID.TID 0000.0001)                 7.699293007098555E+10,      /* J = 10 */
(PID.TID 0000.0001)                 8.084683449728902E+10,      /* J = 11 */
(PID.TID 0000.0001)                 8.410423102799828E+10,      /* J = 12 */
(PID.TID 0000.0001)                 8.674306976737517E+10,      /* J = 13 */
(PID.TID 0000.0001)                 8.874277443041928E+10,      /* J = 14 */
(PID.TID 0000.0001)                 9.008620045350865E+10,      /* J = 15 */
(PID.TID 0000.0001)                 9.076111290418457E+10       /* J = 16 */
(PID.TID 0000.0001)     ;
(PID.TID 0000.0001) rAw =  /* rAw(:,1,:,1) ( units: m^2 ) */
(PID.TID 0000.0001)                 1.216690346714270E+10,      /* I =  1 */
(PID.TID 0000.0001)                 1.974052138506315E+10,      /* I =  2 */
(PID.TID 0000.0001)                 2.943712825252015E+10,      /* I =  3 */
(PID.TID 0000.0001)      . . .
(PID.TID 0000.0001)                 3.801790263325260E+10,      /* I = 94 */
(PID.TID 0000.0001)                 2.943712825251114E+10,      /* I = 95 */
(PID.TID 0000.0001)                 1.974052138509018E+10,      /* I = 96 */
(PID.TID 0000.0001)                 9.071447638299399E+10,      /* I = 97 */
(PID.TID 0000.0001)                 9.085012105610597E+10,      /* I = 98 */
(PID.TID 0000.0001)                 9.125179254955583E+10,      /* I = 99 */
(PID.TID 0000.0001)      . . .
(PID.TID 0000.0001)                 9.190392048045309E+10,      /* I =190 */
(PID.TID 0000.0001)                 9.125179254954683E+10,      /* I =191 */
(PID.TID 0000.0001)                 9.085012105606993E+10,      /* I =192 */
(PID.TID 0000.0001)                 1.216690346714270E+10,      /* I =193 */
(PID.TID 0000.0001)                 1.974052138506315E+10,      /* I =194 */
(PID.TID 0000.0001)                 2.943712825252015E+10,      /* I =195 */
(PID.TID 0000.0001)      . . .
(PID.TID 0000.0001)                 3.801790263325260E+10,      /* I =286 */
(PID.TID 0000.0001)                 2.943712825251114E+10,      /* I =287 */
(PID.TID 0000.0001)                 1.974052138509018E+10,      /* I =288 */
(PID.TID 0000.0001)                 9.071447638299399E+10,      /* I =289 */
(PID.TID 0000.0001)                 9.085012105610597E+10,      /* I =290 */
(PID.TID 0000.0001)                 9.125179254955583E+10,      /* I =291 */
(PID.TID 0000.0001)      . . .
(PID.TID 0000.0001)                 9.190392048045309E+10,      /* I =382 */
(PID.TID 0000.0001)                 9.125179254954683E+10,      /* I =383 */
(PID.TID 0000.0001)                 9.085012105606993E+10       /* I =384 */
(PID.TID 0000.0001)     ;
(PID.TID 0000.0001) rAw =  /* rAw(1,:,1,:) ( units: m^2 ) */
(PID.TID 0000.0001)                 1.216690346714270E+10,      /* J =  1 */
(PID.TID 0000.0001)                 2.390126200743558E+10,      /* J =  2 */
(PID.TID 0000.0001)                 3.341968103208270E+10,      /* J =  3 */
(PID.TID 0000.0001)                 4.168532893152940E+10,      /* J =  4 */
(PID.TID 0000.0001)                 4.909074590409593E+10,      /* J =  5 */
(PID.TID 0000.0001)                 5.581203765722643E+10,      /* J =  6 */
(PID.TID 0000.0001)                 6.193257577506788E+10,      /* J =  7 */
(PID.TID 0000.0001)                 6.748840226738273E+10,      /* J =  8 */
(PID.TID 0000.0001)                 7.248875782324815E+10,      /* J =  9 */
(PID.TID 0000.0001)                 7.692702995909871E+10,      /* J = 10 */
(PID.TID 0000.0001)                 8.078743937057304E+10,      /* J = 11 */
(PID.TID 0000.0001)                 8.404959656062837E+10,      /* J = 12 */
(PID.TID 0000.0001)                 8.669186205742538E+10,      /* J = 13 */
(PID.TID 0000.0001)                 8.869393350723613E+10,      /* J = 14 */
(PID.TID 0000.0001)                 9.003884657168852E+10,      /* J = 15 */
(PID.TID 0000.0001)                 9.071447638299399E+10       /* J = 16 */
(PID.TID 0000.0001)     ;
(PID.TID 0000.0001) rAs =  /* rAs(:,1,:,1) ( units: m^2 ) */
(PID.TID 0000.0001)                 1.216690346714270E+10,      /* I =  1 */
(PID.TID 0000.0001)                 2.390126200743558E+10,      /* I =  2 */
(PID.TID 0000.0001)                 3.341968103208270E+10,      /* I =  3 */
(PID.TID 0000.0001)      . . .
(PID.TID 0000.0001)                 3.341968103208270E+10,      /* I = 94 */
(PID.TID 0000.0001)                 2.390126200743558E+10,      /* I = 95 */
(PID.TID 0000.0001)                 1.216690346714270E+10,      /* I = 96 */
(PID.TID 0000.0001)                 9.083293515008307E+10,      /* I = 97 */
(PID.TID 0000.0001)                 9.110170898494536E+10,      /* I = 98 */
(PID.TID 0000.0001)                 9.162886297688426E+10,      /* I = 99 */
(PID.TID 0000.0001)      . . .
(PID.TID 0000.0001)                 9.162886297688426E+10,      /* I =190 */
(PID.TID 0000.0001)                 9.110170898494536E+10,      /* I =191 */
(PID.TID 0000.0001)                 9.083293515008307E+10,      /* I =192 */
(PID.TID 0000.0001)                 1.216690346714270E+10,      /* I =193 */
(PID.TID 0000.0001)                 2.390126200743558E+10,      /* I =194 */
(PID.TID 0000.0001)                 3.341968103208270E+10,      /* I =195 */
(PID.TID 0000.0001)      . . .
(PID.TID 0000.0001)                 3.341968103208270E+10,      /* I =286 */
(PID.TID 0000.0001)                 2.390126200743558E+10,      /* I =287 */
(PID.TID 0000.0001)                 1.216690346714270E+10,      /* I =288 */
(PID.TID 0000.0001)                 9.083293515008307E+10,      /* I =289 */
(PID.TID 0000.0001)                 9.110170898494536E+10,      /* I =290 */
(PID.TID 0000.0001)                 9.162886297688426E+10,      /* I =291 */
(PID.TID 0000.0001)      . . .
(PID.TID 0000.0001)                 9.162886297688426E+10,      /* I =382 */
(PID.TID 0000.0001)                 9.110170898494536E+10,      /* I =383 */
(PID.TID 0000.0001)                 9.083293515008307E+10       /* I =384 */
(PID.TID 0000.0001)     ;
(PID.TID 0000.0001) rAs =  /* rAs(1,:,1,:) ( units: m^2 ) */
(PID.TID 0000.0001)                 1.216690346714270E+10,      /* J =  1 */
(PID.TID 0000.0001)                 1.974052138506315E+10,      /* J =  2 */
(PID.TID 0000.0001)                 2.943712825252015E+10,      /* J =  3 */
(PID.TID 0000.0001)                 3.801790263324359E+10,      /* J =  4 */
(PID.TID 0000.0001)                 4.571243814189866E+10,      /* J =  5 */
(PID.TID 0000.0001)                 5.269930713599979E+10,      /* J =  6 */
(PID.TID 0000.0001)                 5.907428494299063E+10,      /* J =  7 */
(PID.TID 0000.0001)                 6.488320895111514E+10,      /* J =  8 */
(PID.TID 0000.0001)                 7.014205907741882E+10,      /* J =  9 */
(PID.TID 0000.0001)                 7.484854821847499E+10,      /* J = 10 */
(PID.TID 0000.0001)                 7.898934631431560E+10,      /* J = 11 */
(PID.TID 0000.0001)                 8.254500894894537E+10,      /* J = 12 */
(PID.TID 0000.0001)                 8.549360686473492E+10,      /* J = 13 */
(PID.TID 0000.0001)                 8.781353403175085E+10,      /* J = 14 */
(PID.TID 0000.0001)                 8.948571540392021E+10,      /* J = 15 */
(PID.TID 0000.0001)                 9.049530583086168E+10       /* J = 16 */
(PID.TID 0000.0001)     ;
(PID.TID 0000.0001) globalArea = /* Integrated horizontal Area (m^2) */
(PID.TID 0000.0001)                 3.638867375081599E+14
(PID.TID 0000.0001)     ;
(PID.TID 0000.0001) // =======================================================
(PID.TID 0000.0001) // End of Model config. summary
(PID.TID 0000.0001) // =======================================================
(PID.TID 0000.0001) 
(PID.TID 0000.0001) == Packages configuration : Check & print summary ==
(PID.TID 0000.0001) 
(PID.TID 0000.0001) GAD_CHECK: #define ALLOW_GENERIC_ADVDIFF
(PID.TID 0000.0001) GMREDI_CHECK: #define GMREDI
(PID.TID 0000.0001) GM_AdvForm =     /* if FALSE => use SkewFlux Form */
(PID.TID 0000.0001)                   F
(PID.TID 0000.0001)     ;
(PID.TID 0000.0001) GM_InMomAsStress = /* if TRUE => apply as Eddy Stress */
(PID.TID 0000.0001)                   F
(PID.TID 0000.0001)     ;
(PID.TID 0000.0001) GM_AdvSeparate = /* Calc Bolus & Euler Adv. separately */
(PID.TID 0000.0001)                   F
(PID.TID 0000.0001)     ;
(PID.TID 0000.0001) GM_ExtraDiag =   /* Tensor Extra Diag (line 1&2) non 0 */
(PID.TID 0000.0001)                   F
(PID.TID 0000.0001)     ;
(PID.TID 0000.0001) GM_isopycK =    /* Background Isopyc. Diffusivity [m^2/s] */
(PID.TID 0000.0001)                 8.000000000000000E+02
(PID.TID 0000.0001)     ;
(PID.TID 0000.0001) GM_skewflx*K =  /* Background GM_SkewFlx Diffusivity [m^2/s] */
(PID.TID 0000.0001)                 8.000000000000000E+02
(PID.TID 0000.0001)     ;
(PID.TID 0000.0001) GM_advec*K =    /* Backg. GM-Advec(=Bolus) Diffusivity [m^2/s]*/
(PID.TID 0000.0001)                 0.000000000000000E+00
(PID.TID 0000.0001)     ;
(PID.TID 0000.0001) GM_Kmin_horiz = /* Minimum Horizontal Diffusivity [m^2/s] */
(PID.TID 0000.0001)                 5.000000000000000E+01
(PID.TID 0000.0001)     ;
(PID.TID 0000.0001) GM_Visbeck_alpha = /* Visbeck alpha coeff. [-] */
(PID.TID 0000.0001)                 0.000000000000000E+00
(PID.TID 0000.0001)     ;
(PID.TID 0000.0001) GM_Small_Number =  /* epsilon used in slope calc */
(PID.TID 0000.0001)                 9.999999999999999E-21
(PID.TID 0000.0001)     ;
(PID.TID 0000.0001) GM_slopeSqCutoff = /* Slope^2 cut-off value */
(PID.TID 0000.0001)                 1.000000000000000E+48
(PID.TID 0000.0001)     ;
(PID.TID 0000.0001) GM_taper_scheme =  /* Type of Tapering/Clipping scheme */
(PID.TID 0000.0001)               'gkw91                                   '
(PID.TID 0000.0001)     ;
(PID.TID 0000.0001) GM_maxSlope =  /* Maximum Slope (Tapering/Clipping) */
(PID.TID 0000.0001)                 1.000000000000000E-02
(PID.TID 0000.0001)     ;
(PID.TID 0000.0001) GM_facTrL2dz = /* Minimum Trans.Layer Thick. (factor of dz) */
(PID.TID 0000.0001)                 1.000000000000000E+00
(PID.TID 0000.0001)     ;
(PID.TID 0000.0001) GM_facTrL2ML = /* Max.Trans.Layer Thick. (factor of MxL Depth)*/
(PID.TID 0000.0001)                 5.000000000000000E+00
(PID.TID 0000.0001)     ;
(PID.TID 0000.0001) GM_maxTransLay = /* Maximum Transition Layer Thickness [m] */
(PID.TID 0000.0001)                 5.000000000000000E+02
(PID.TID 0000.0001)     ;
(PID.TID 0000.0001) THSICE_CHECK: #define THSICE
(PID.TID 0000.0001) // =======================================================
(PID.TID 0000.0001) // CONFIG_CHECK : Normal End
(PID.TID 0000.0001) // =======================================================
(PID.TID 0000.0001) 
(PID.TID 0000.0001)  MDS_READ_META: opening file: pickup.0000036000.meta
(PID.TID 0000.0001)  nRecords = 123 ; filePrec =  64 ; fileIter =     36000
(PID.TID 0000.0001)     nDims =   2 , dims:
(PID.TID 0000.0001)    1: 192   1 192
(PID.TID 0000.0001)    2:  32   1  32
(PID.TID 0000.0001)     nFlds =  11 , nFl3D =   8 , fields:
(PID.TID 0000.0001)  >Uvel    < >GuNm1   < >Vvel    < >GvNm1   < >Theta   < >GtNm1   < >Salt    < >GsNm1   < >EtaN    < >dEtaHdt < >EtaH    <
(PID.TID 0000.0001)   nTimRec =   0 , timeList:
(PID.TID 0000.0001) READ_MFLDS_3D_RL: read field: "Uvel    ", #   1 in fldList, rec=   1
(PID.TID 0000.0001)  MDS_READ_FIELD: opening global file: pickup.0000036000
(PID.TID 0000.0001) READ_MFLDS_3D_RL: read field: "Vvel    ", #   3 in fldList, rec=   3
(PID.TID 0000.0001)  MDS_READ_FIELD: opening global file: pickup.0000036000
(PID.TID 0000.0001) READ_MFLDS_3D_RL: read field: "Theta   ", #   5 in fldList, rec=   5
(PID.TID 0000.0001)  MDS_READ_FIELD: opening global file: pickup.0000036000
(PID.TID 0000.0001) READ_MFLDS_3D_RL: read field: "Salt    ", #   7 in fldList, rec=   7
(PID.TID 0000.0001)  MDS_READ_FIELD: opening global file: pickup.0000036000
(PID.TID 0000.0001) READ_MFLDS_3D_RL: read field: "GuNm1   ", #   2 in fldList, rec=   2
(PID.TID 0000.0001)  MDS_READ_FIELD: opening global file: pickup.0000036000
(PID.TID 0000.0001) READ_MFLDS_3D_RL: read field: "GvNm1   ", #   4 in fldList, rec=   4
(PID.TID 0000.0001)  MDS_READ_FIELD: opening global file: pickup.0000036000
(PID.TID 0000.0001) READ_MFLDS_3D_RL: read field: "GtNm1   ", #   6 in fldList, rec=   6
(PID.TID 0000.0001)  MDS_READ_FIELD: opening global file: pickup.0000036000
(PID.TID 0000.0001) READ_MFLDS_3D_RL: read field: "GsNm1   ", #   8 in fldList, rec=   8
(PID.TID 0000.0001)  MDS_READ_FIELD: opening global file: pickup.0000036000
(PID.TID 0000.0001) READ_MFLDS_3D_RL: read field: "EtaN    ", #   9 in fldList, rec= 121
(PID.TID 0000.0001)  MDS_READ_FIELD: opening global file: pickup.0000036000
(PID.TID 0000.0001) READ_MFLDS_3D_RL: read field: "dEtaHdt ", #  10 in fldList, rec= 122
(PID.TID 0000.0001)  MDS_READ_FIELD: opening global file: pickup.0000036000
(PID.TID 0000.0001) READ_MFLDS_3D_RL: read field: "EtaH    ", #  11 in fldList, rec= 123
(PID.TID 0000.0001)  MDS_READ_FIELD: opening global file: pickup.0000036000
(PID.TID 0000.0001) READ_MFLDS_CHECK: - normal end ; reset MFLDS file-name: pickup.0000036000
(PID.TID 0000.0001)  MDS_READ_FIELD: opening global file: trenberth_taux.bin
(PID.TID 0000.0001)  MDS_READ_FIELD: opening global file: trenberth_tauy.bin
(PID.TID 0000.0001)  MDS_READ_FIELD: opening global file: lev_surfT_cs_12m.bin
(PID.TID 0000.0001)  MDS_READ_FIELD: opening global file: lev_surfS_cs_12m.bin
(PID.TID 0000.0001)  write diagnostics summary to file ioUnit:      6
Iter.Nb:     36000 ; Time(s):  3.1104000000000E+09
------------------------------------------------------------------------
2D/3D diagnostics: Number of lists:     6
------------------------------------------------------------------------
listId=    1 ; file name: surfDiag
 nFlds, nActive,       freq     &     phase        , nLev               
   17  |   17  |1555200000.000000         0.000000 |   1
 levels:   1
 diag# | name   |   ipt  |  iMate | kLev|   count |   mate.C|           
    23 |ETAN    |      1 |      0 |   1 |       0 |
    24 |ETANSQ  |      2 |      0 |   1 |       0 |
    25 |DETADT2 |      3 |      0 |   1 |       0 |
    69 |PHIBOT  |      4 |      0 |   1 |       0 |
    70 |PHIBOTSQ|      5 |      0 |   1 |       0 |
    75 |oceTAUX |      6 |      7 |   1 |       0 |       0 |
    76 |oceTAUY |      7 |      6 |   1 |       0 |       0 |
    84 |TRELAX  |      8 |      0 |   1 |       0 |
    85 |SRELAX  |      9 |      0 |   1 |       0 |
    86 |surForcT|     10 |      0 |   1 |       0 |
    87 |surForcS|     11 |      0 |   1 |       0 |
    88 |TFLUX   |     12 |      0 |   1 |       0 |
    89 |SFLUX   |     13 |      0 |   1 |       0 |
    82 |oceQsw  |     14 |      0 |   1 |       0 |
    81 |oceQnet |     15 |      0 |   1 |       0 |
    80 |oceSflux|     16 |      0 |   1 |       0 |
    79 |oceFWflx|     17 |      0 |   1 |       0 |
------------------------------------------------------------------------
listId=    2 ; file name: dynDiag
 nFlds, nActive,       freq     &     phase        , nLev               
   15  |   15  |1555200000.000000         0.000000 |  15
 levels:   1   2   3   4   5   6   7   8   9  10  11  12  13  14  15
 diag# | name   |   ipt  |  iMate | kLev|   count |   mate.C|           
    30 |UVEL    |     18 |     33 |  15 |       0 |       0 |
    31 |VVEL    |     33 |     18 |  15 |       0 |       0 |
    32 |WVEL    |     48 |      0 |  15 |       0 |
    67 |PHIHYD  |     63 |      0 |  15 |       0 |
    46 |VVELMASS|     78 |     93 |  15 |       0 |       0 |
    45 |UVELMASS|     93 |     78 |  15 |       0 |       0 |
    38 |WVELSQ  |    108 |      0 |  15 |       0 |
    26 |THETA   |    123 |      0 |  15 |       0 |
    48 |UTHMASS |    138 |    153 |  15 |       0 |       0 |
    49 |VTHMASS |    153 |    138 |  15 |       0 |       0 |
    50 |WTHMASS |    168 |      0 |  15 |       0 |
    27 |SALT    |    183 |      0 |  15 |       0 |
    51 |USLTMASS|    198 |    213 |  15 |       0 |       0 |
    52 |VSLTMASS|    213 |    198 |  15 |       0 |       0 |
    53 |WSLTMASS|    228 |      0 |  15 |       0 |
------------------------------------------------------------------------
listId=    3 ; file name: thSIceDiag
 nFlds, nActive,       freq     &     phase        , nLev               
   16  |   17  |1555200000.000000         0.000000 |   1
 levels:   1
 diag# | name   |   ipt  |  iMate | kLev|   count |   mate.C|           
   194 |SI_Fract|    243 |      0 |   1 |      0(x 12) |
   195 |SI_Thick|    255 |    243 |   1 |      0(x 12) |
   196 |SI_SnowH|    267 |    243 |   1 |      0(x 12) |
   197 |SI_Tsrf |    279 |    243 |   1 |      0(x 12) |
   198 |SI_Tice1|    291 |    243 |   1 |      0(x 12) |
   199 |SI_Tice2|    303 |    243 |   1 |      0(x 12) |
   200 |SI_Qice1|    315 |    255 |   1 |      0(x 12) |
   201 |SI_Qice2|    327 |    255 |   1 |      0(x 12) |
   202 |SIsnwAge|    339 |      0 |   1 |      0(x 12) |
   205 |SIsnwPrc|    351 |    363 |   1 |      0(x 12) |
   204 |SIalbedo|    375 |    363 |   1 |      0(x 12) |
   208 |SIflx2oc|    387 |      0 |   1 |      0(x 12) |
   209 |SIfrw2oc|    399 |      0 |   1 |      0(x 12) |
   210 |SIsaltFx|    411 |      0 |   1 |      0(x 12) |
   206 |SIflxAtm|    423 |      0 |   1 |      0(x 12) |
   207 |SIfrwAtm|    435 |      0 |   1 |      0(x 12) |
   203 |SI_FrcFx|    363 |      0 |   1 |      0(x 12) |
------------------------------------------------------------------------
listId=    4 ; file name: surfInst
 nFlds, nActive,       freq     &     phase        , nLev               
    2  |    2  |   -777600.000000         0.000000 |   1
 levels:   1
 diag# | name   |   ipt  |  iMate | kLev|   count |   mate.C|           
    23 |ETAN    |    447 |      0 |   1 |       0 |
    79 |oceFWflx|    448 |      0 |   1 |       0 |
------------------------------------------------------------------------
listId=    5 ; file name: etaInst
 nFlds, nActive,       freq     &     phase        , nLev               
    1  |    1  |   -777600.000000     86400.000000 |   1
 levels:   1
 diag# | name   |   ipt  |  iMate | kLev|   count |   mate.C|           
    23 |ETAN    |    449 |      0 |   1 |       0 |
------------------------------------------------------------------------
listId=    6 ; file name: dynInst
 nFlds, nActive,       freq     &     phase        , nLev               
    2  |    2  |   -777600.000000         0.000000 |  15
 levels:   1   2   3   4   5   6   7   8   9  10  11  12  13  14  15
 diag# | name   |   ipt  |  iMate | kLev|   count |   mate.C|           
    26 |THETA   |    450 |      0 |  15 |       0 |
    27 |SALT    |    465 |      0 |  15 |       0 |
------------------------------------------------------------------------
Global & Regional Statistics diagnostics: Number of lists:     4
------------------------------------------------------------------------
listId=   1 ; file name: dynStDiag
 nFlds, nActive,       freq     &     phase        |                    
    6  |    6  |    864000.000000         0.000000 |
 Regions:   0
 diag# | name   |   ipt  |  iMate |    Volume   |   mate-Vol. |         
    23 |ETAN    |      1 |      0 | 0.00000E+00 |
    24 |ETANSQ  |      2 |      0 | 0.00000E+00 |
    25 |DETADT2 |      3 |      0 | 0.00000E+00 |
    26 |THETA   |      4 |      0 | 0.00000E+00 |
    27 |SALT    |     19 |      0 | 0.00000E+00 |
    74 |CONVADJ |     34 |      0 | 0.00000E+00 |
------------------------------------------------------------------------
listId=   2 ; file name: surfStDiag
 nFlds, nActive,       freq     &     phase        |                    
   11  |   11  |    777600.000000     86400.000000 |
 Regions:   0
 diag# | name   |   ipt  |  iMate |    Volume   |   mate-Vol. |         
    75 |oceTAUX |     49 |      0 | 0.00000E+00 |
    76 |oceTAUY |     50 |      0 | 0.00000E+00 |
    84 |TRELAX  |     51 |      0 | 0.00000E+00 |
    85 |SRELAX  |     52 |      0 | 0.00000E+00 |
    86 |surForcT|     53 |      0 | 0.00000E+00 |
    87 |surForcS|     54 |      0 | 0.00000E+00 |
    88 |TFLUX   |     55 |      0 | 0.00000E+00 |
    89 |SFLUX   |     56 |      0 | 0.00000E+00 |
    81 |oceQnet |     57 |      0 | 0.00000E+00 |
    80 |oceSflux|     58 |      0 | 0.00000E+00 |
    79 |oceFWflx|     59 |      0 | 0.00000E+00 |
------------------------------------------------------------------------
listId=   3 ; file name: instStDiag
 nFlds, nActive,       freq     &     phase        |                    
    3  |    3  |   -777600.000000     86400.000000 |
 Regions:   0
 diag# | name   |   ipt  |  iMate |    Volume   |   mate-Vol. |         
    23 |ETAN    |     60 |      0 | 0.00000E+00 |
    26 |THETA   |     61 |      0 | 0.00000E+00 |
    27 |SALT    |     76 |      0 | 0.00000E+00 |
------------------------------------------------------------------------
listId=   4 ; file name: thSIceStDiag
 nFlds, nActive,       freq     &     phase        |                    
   16  |   17  |    864000.000000         0.000000 |
 Regions:   0  1  3
 diag# | name   |   ipt  |  iMate |    Volume   |   mate-Vol. |         
   194 |SI_Fract|     91 |      0 | 0.00000E+00 |
   195 |SI_Thick|     92 |     91 | 0.00000E+00 | 0.00000E+00 |
   196 |SI_SnowH|     93 |     91 | 0.00000E+00 | 0.00000E+00 |
   197 |SI_Tsrf |     94 |     91 | 0.00000E+00 | 0.00000E+00 |
   198 |SI_Tice1|     95 |     91 | 0.00000E+00 | 0.00000E+00 |
   199 |SI_Tice2|     96 |     91 | 0.00000E+00 | 0.00000E+00 |
   200 |SI_Qice1|     97 |     92 | 0.00000E+00 | 0.00000E+00 |
   201 |SI_Qice2|     98 |     92 | 0.00000E+00 | 0.00000E+00 |
   205 |SIsnwPrc|     99 |    100 | 0.00000E+00 | 0.00000E+00 |
   204 |SIalbedo|    101 |    100 | 0.00000E+00 | 0.00000E+00 |
   202 |SIsnwAge|    102 |      0 | 0.00000E+00 |
   208 |SIflx2oc|    103 |      0 | 0.00000E+00 |
   209 |SIfrw2oc|    104 |      0 | 0.00000E+00 |
   210 |SIsaltFx|    105 |      0 | 0.00000E+00 |
   206 |SIflxAtm|    106 |      0 | 0.00000E+00 |
   207 |SIfrwAtm|    107 |      0 | 0.00000E+00 |
   203 |SI_FrcFx|    100 |      0 | 0.00000E+00 |
------------------------------------------------------------------------
(PID.TID 0000.0001)  MDS_READ_FIELD: opening global file: pickup_ic.0000036000
(PID.TID 0000.0001)  MDS_READ_FIELD: opening global file: pickup_ic.0000036000
(PID.TID 0000.0001)  MDS_READ_FIELD: opening global file: pickup_ic.0000036000
(PID.TID 0000.0001)  MDS_READ_FIELD: opening global file: pickup_ic.0000036000
(PID.TID 0000.0001)  MDS_READ_FIELD: opening global file: pickup_ic.0000036000
(PID.TID 0000.0001)  MDS_READ_FIELD: opening global file: pickup_ic.0000036000
(PID.TID 0000.0001)  MDS_READ_FIELD: opening global file: pickup_ic.0000036000
(PID.TID 0000.0001)  MDS_READ_FIELD: opening global file: pickup_ic.0000036000
(PID.TID 0000.0001)  MDS_READ_FIELD: opening global file: pickup_ic.0000036000
(PID.TID 0000.0001) // =======================================================
(PID.TID 0000.0001) // Model current state
(PID.TID 0000.0001) // =======================================================
(PID.TID 0000.0001) 
(PID.TID 0000.0001) // =======================================================
(PID.TID 0000.0001) // Begin MONITOR dynamic field statistics
(PID.TID 0000.0001) // =======================================================
(PID.TID 0000.0001) %MON time_tsnumber                =                 36000
(PID.TID 0000.0001) %MON time_secondsf                =   3.1104000000000E+09
(PID.TID 0000.0001) %MON dynstat_eta_max              =   7.3500434503471E-01
(PID.TID 0000.0001) %MON dynstat_eta_min              =  -1.1986891348601E+01
(PID.TID 0000.0001) %MON dynstat_eta_mean             =  -5.8045564487853E-01
(PID.TID 0000.0001) %MON dynstat_eta_sd               =   1.6994311255501E+00
(PID.TID 0000.0001) %MON dynstat_eta_del2             =   2.0900254542352E-02
(PID.TID 0000.0001) %MON dynstat_uvel_max             =   1.7235154042170E-01
(PID.TID 0000.0001) %MON dynstat_uvel_min             =  -2.7145887709522E-01
(PID.TID 0000.0001) %MON dynstat_uvel_mean            =  -5.2887824837157E-04
(PID.TID 0000.0001) %MON dynstat_uvel_sd              =   1.2989468965472E-02
(PID.TID 0000.0001) %MON dynstat_uvel_del2            =   5.8837039483483E-05
(PID.TID 0000.0001) %MON dynstat_vvel_max             =   1.9306786753954E-01
(PID.TID 0000.0001) %MON dynstat_vvel_min             =  -2.1050631286072E-01
(PID.TID 0000.0001) %MON dynstat_vvel_mean            =  -4.2470116939793E-04
(PID.TID 0000.0001) %MON dynstat_vvel_sd              =   1.3472945317820E-02
(PID.TID 0000.0001) %MON dynstat_vvel_del2            =   5.6407764932197E-05
(PID.TID 0000.0001) %MON dynstat_wvel_max             =   8.3888727589247E-05
(PID.TID 0000.0001) %MON dynstat_wvel_min             =  -1.7681850941337E-04
(PID.TID 0000.0001) %MON dynstat_wvel_mean            =  -1.2631701181817E-09
(PID.TID 0000.0001) %MON dynstat_wvel_sd              =   4.6274614748344E-06
(PID.TID 0000.0001) %MON dynstat_wvel_del2            =   4.0327258278207E-08
(PID.TID 0000.0001) %MON dynstat_theta_max            =   3.0162021109834E+01
(PID.TID 0000.0001) %MON dynstat_theta_min            =  -5.5087736803077E+00
(PID.TID 0000.0001) %MON dynstat_theta_mean           =   3.5027154873320E+00
(PID.TID 0000.0001) %MON dynstat_theta_sd             =   4.7490175075967E+00
(PID.TID 0000.0001) %MON dynstat_theta_del2           =   2.9355189374162E-03
(PID.TID 0000.0001) %MON dynstat_salt_max             =   4.0815425249776E+01
(PID.TID 0000.0001) %MON dynstat_salt_min             =   1.8030178312691E+01
(PID.TID 0000.0001) %MON dynstat_salt_mean            =   3.4756092396968E+01
(PID.TID 0000.0001) %MON dynstat_salt_sd              =   5.1193688315107E-01
(PID.TID 0000.0001) %MON dynstat_salt_del2            =   8.3648722179445E-04
(PID.TID 0000.0001) %MON forcing_qnet_max             =   0.0000000000000E+00
(PID.TID 0000.0001) %MON forcing_qnet_min             =   0.0000000000000E+00
(PID.TID 0000.0001) %MON forcing_qnet_mean            =   0.0000000000000E+00
(PID.TID 0000.0001) %MON forcing_qnet_sd              =   0.0000000000000E+00
(PID.TID 0000.0001) %MON forcing_qnet_del2            =   0.0000000000000E+00
(PID.TID 0000.0001) %MON forcing_qsw_max              =   0.0000000000000E+00
(PID.TID 0000.0001) %MON forcing_qsw_min              =   0.0000000000000E+00
(PID.TID 0000.0001) %MON forcing_qsw_mean             =   0.0000000000000E+00
(PID.TID 0000.0001) %MON forcing_qsw_sd               =   0.0000000000000E+00
(PID.TID 0000.0001) %MON forcing_qsw_del2             =   0.0000000000000E+00
(PID.TID 0000.0001) %MON forcing_empmr_max            =   0.0000000000000E+00
(PID.TID 0000.0001) %MON forcing_empmr_min            =   0.0000000000000E+00
(PID.TID 0000.0001) %MON forcing_empmr_mean           =   0.0000000000000E+00
(PID.TID 0000.0001) %MON forcing_empmr_sd             =   0.0000000000000E+00
(PID.TID 0000.0001) %MON forcing_empmr_del2           =   0.0000000000000E+00
(PID.TID 0000.0001) %MON forcing_fu_max               =   2.4892781143428E-01
(PID.TID 0000.0001) %MON forcing_fu_min               =  -2.5159107438040E-01
(PID.TID 0000.0001) %MON forcing_fu_mean              =  -3.8956966288612E-03
(PID.TID 0000.0001) %MON forcing_fu_sd                =   6.5480383395885E-02
(PID.TID 0000.0001) %MON forcing_fu_del2              =   2.3114393556995E-04
(PID.TID 0000.0001) %MON forcing_fv_max               =   2.9305960402537E-01
(PID.TID 0000.0001) %MON forcing_fv_min               =  -3.3950131228473E-01
(PID.TID 0000.0001) %MON forcing_fv_mean              =  -1.3743384707768E-02
(PID.TID 0000.0001) %MON forcing_fv_sd                =   7.6816469815204E-02
(PID.TID 0000.0001) %MON forcing_fv_del2              =   2.5671701728584E-04
(PID.TID 0000.0001) %MON advcfl_uvel_max              =   7.6990886762546E-02
(PID.TID 0000.0001) %MON advcfl_vvel_max              =   8.4155563479013E-02
(PID.TID 0000.0001) %MON advcfl_wvel_max              =   5.7649506465342E-02
(PID.TID 0000.0001) %MON advcfl_W_hf_max              =   6.5892167239956E-02
(PID.TID 0000.0001) %MON pe_b_mean                    =   4.2969665467446E-03
(PID.TID 0000.0001) %MON ke_max                       =   3.6920742855791E-02
(PID.TID 0000.0001) %MON ke_mean                      =   1.6194090277160E-04
(PID.TID 0000.0001) %MON ke_vol                       =   1.3395912415612E+18
(PID.TID 0000.0001) %MON vort_r_min                   =  -1.2103928619458E-06
(PID.TID 0000.0001) %MON vort_r_max                   =   1.3658356323918E-06
(PID.TID 0000.0001) %MON vort_a_mean                  =  -2.0549865324846E-05
(PID.TID 0000.0001) %MON vort_a_sd                    =   7.5259583459532E-05
(PID.TID 0000.0001) %MON vort_p_mean                  =  -2.4787190757548E-05
(PID.TID 0000.0001) %MON vort_p_sd                    =   1.2817278044840E-04
(PID.TID 0000.0001) %MON surfExpan_theta_mean         =   8.4664546923379E-08
(PID.TID 0000.0001) %MON surfExpan_salt_mean          =   2.0573162615946E-08
(PID.TID 0000.0001) // =======================================================
(PID.TID 0000.0001) // End MONITOR dynamic field statistics
(PID.TID 0000.0001) // =======================================================
(PID.TID 0000.0001) // =======================================================
(PID.TID 0000.0001) // Begin MONITOR Therm.SeaIce statistics
(PID.TID 0000.0001) // =======================================================
(PID.TID 0000.0001) %MON thSI_time_sec                =   3.1104000000000E+09
(PID.TID 0000.0001) %MON thSI_Ice_Area_G              =   2.4716044426698E+13
(PID.TID 0000.0001) %MON thSI_Ice_Area_S              =   1.2123515471256E+13
(PID.TID 0000.0001) %MON thSI_Ice_Area_N              =   1.2592528955442E+13
(PID.TID 0000.0001) %MON thSI_IceH_ave_G              =   4.5665991101486E+00
(PID.TID 0000.0001) %MON thSI_IceH_ave_S              =   5.6548113929333E+00
(PID.TID 0000.0001) %MON thSI_IceH_ave_N              =   3.5189177037341E+00
(PID.TID 0000.0001) %MON thSI_IceH_max_S              =   1.0000000000000E+01
(PID.TID 0000.0001) %MON thSI_IceH_max_N              =   1.0000000000000E+01
(PID.TID 0000.0001) %MON thSI_SnwH_ave_G              =   1.0642325960795E+00
(PID.TID 0000.0001) %MON thSI_SnwH_ave_S              =   1.8039252994821E+00
(PID.TID 0000.0001) %MON thSI_SnwH_ave_N              =   3.5209002603598E-01
(PID.TID 0000.0001) %MON thSI_SnwH_max_S              =   4.0920173287519E+00
(PID.TID 0000.0001) %MON thSI_SnwH_max_N              =   4.0933581672150E+00
(PID.TID 0000.0001) %MON thSI_Tsrf_ave_G              =  -1.6644740861567E+01
(PID.TID 0000.0001) %MON thSI_Tsrf_ave_S              =  -1.2271804409750E-01
(PID.TID 0000.0001) %MON thSI_Tsrf_ave_N              =  -3.2551394715834E+01
(PID.TID 0000.0001) %MON thSI_Tsrf_min_S              =  -5.2879155123950E+00
(PID.TID 0000.0001) %MON thSI_Tsrf_min_N              =  -4.6099403861095E+01
(PID.TID 0000.0001) %MON thSI_Tsrf_max_S              =   0.0000000000000E+00
(PID.TID 0000.0001) %MON thSI_Tsrf_max_N              =  -1.7223298637424E+00
(PID.TID 0000.0001) %MON thSI_Tic1_ave_G              =  -8.3503593345479E+00
(PID.TID 0000.0001) %MON thSI_Tic1_ave_S              =  -5.1859254669298E+00
(PID.TID 0000.0001) %MON thSI_Tic1_ave_N              =  -1.3246125323351E+01
(PID.TID 0000.0001) %MON thSI_Tic1_min_S              =  -1.7372153208148E+01
(PID.TID 0000.0001) %MON thSI_Tic1_min_N              =  -2.0584120855350E+01
(PID.TID 0000.0001) %MON thSI_Tic1_max_S              =  -1.5363024655854E-01
(PID.TID 0000.0001) %MON thSI_Tic1_max_N              =  -5.8630083767312E-01
(PID.TID 0000.0001) %MON thSI_Tic2_ave_G              =  -3.7701031784537E+00
(PID.TID 0000.0001) %MON thSI_Tic2_ave_S              =  -3.1173552909385E+00
(PID.TID 0000.0001) %MON thSI_Tic2_ave_N              =  -4.7799839472262E+00
(PID.TID 0000.0001) %MON thSI_Tic2_min_S              =  -8.8326933331569E+00
(PID.TID 0000.0001) %MON thSI_Tic2_min_N              =  -7.3985906582730E+00
(PID.TID 0000.0001) %MON thSI_Tic2_max_S              =  -1.1778332319913E+00
(PID.TID 0000.0001) %MON thSI_Tic2_max_N              =  -1.1561961802541E+00
(PID.TID 0000.0001) %MON thSI_TotEnerg_G              =  -3.7927617991529E+22
(PID.TID 0000.0001) // =======================================================
(PID.TID 0000.0001) // End MONITOR Therm.SeaIce statistics
(PID.TID 0000.0001) // =======================================================
S/R BULKF_FIELDS_LOAD: Reading new data:   12    1     36000  3.110400000000E+09
(PID.TID 0000.0001)  MDS_READ_FIELD: opening global file: ncep_tair_cs.bin
(PID.TID 0000.0001)  MDS_READ_FIELD: opening global file: ncep_tair_cs.bin
(PID.TID 0000.0001)  MDS_READ_FIELD: opening global file: ncep_qair_cs.bin
(PID.TID 0000.0001)  MDS_READ_FIELD: opening global file: ncep_qair_cs.bin
(PID.TID 0000.0001)  MDS_READ_FIELD: opening global file: ncep_downsolar_cs.bin
(PID.TID 0000.0001)  MDS_READ_FIELD: opening global file: ncep_downsolar_cs.bin
(PID.TID 0000.0001)  MDS_READ_FIELD: opening global file: ncep_downlw_cs.bin
(PID.TID 0000.0001)  MDS_READ_FIELD: opening global file: ncep_downlw_cs.bin
(PID.TID 0000.0001)  MDS_READ_FIELD: opening global file: ncep_windspeed_cs.bin
(PID.TID 0000.0001)  MDS_READ_FIELD: opening global file: ncep_windspeed_cs.bin
(PID.TID 0000.0001)  MDS_READ_FIELD: opening global file: ncep_pr_scal_cs.bin
(PID.TID 0000.0001)  MDS_READ_FIELD: opening global file: ncep_pr_scal_cs.bin
S/R EXTERNAL_FIELDS_LOAD: Reading new data:   12    1     36000  3.110400000000E+09
(PID.TID 0000.0001)  MDS_READ_FIELD: opening global file: trenberth_taux.bin
(PID.TID 0000.0001)  MDS_READ_FIELD: opening global file: trenberth_taux.bin
(PID.TID 0000.0001)  MDS_READ_FIELD: opening global file: trenberth_tauy.bin
(PID.TID 0000.0001)  MDS_READ_FIELD: opening global file: trenberth_tauy.bin
(PID.TID 0000.0001)  MDS_READ_FIELD: opening global file: lev_surfT_cs_12m.bin
(PID.TID 0000.0001)  MDS_READ_FIELD: opening global file: lev_surfT_cs_12m.bin
(PID.TID 0000.0001)  MDS_READ_FIELD: opening global file: lev_surfS_cs_12m.bin
(PID.TID 0000.0001)  MDS_READ_FIELD: opening global file: lev_surfS_cs_12m.bin
(PID.TID 0000.0001) SOLVE_FOR_PRESSURE: putPmEinXvector =    F
(PID.TID 0000.0001) SOLVE_FOR_PRESSURE: zeroPsNH=    F , zeroMeanPnh=    F
(PID.TID 0000.0001) SOLVE_FOR_PRESSURE: oldFreeSurfTerm =    F
 cg2d: Sum(rhs),rhsMax =   3.91123171841600E+02  2.29216909151821E+02
(PID.TID 0000.0001)                    cg2d_init_res =    1.95242193209935E+01
(PID.TID 0000.0001)                       cg2d_iters =    72
(PID.TID 0000.0001)                         cg2d_res =    5.46408886398732E-07
(PID.TID 0000.0001) // =======================================================
(PID.TID 0000.0001) // Begin MONITOR dynamic field statistics
(PID.TID 0000.0001) // =======================================================
(PID.TID 0000.0001) %MON time_tsnumber                =                 36001
(PID.TID 0000.0001) %MON time_secondsf                =   3.1104864000000E+09
(PID.TID 0000.0001) %MON dynstat_eta_max              =   7.3388365064227E-01
(PID.TID 0000.0001) %MON dynstat_eta_min              =  -1.1986231184597E+01
(PID.TID 0000.0001) %MON dynstat_eta_mean             =  -5.8173432388293E-01
(PID.TID 0000.0001) %MON dynstat_eta_sd               =   1.7027393996681E+00
(PID.TID 0000.0001) %MON dynstat_eta_del2             =   2.1076783275783E-02
(PID.TID 0000.0001) %MON dynstat_uvel_max             =   1.7286116299088E-01
(PID.TID 0000.0001) %MON dynstat_uvel_min             =  -2.7114320697541E-01
(PID.TID 0000.0001) %MON dynstat_uvel_mean            =  -5.2865022965187E-04
(PID.TID 0000.0001) %MON dynstat_uvel_sd              =   1.2989393178518E-02
(PID.TID 0000.0001) %MON dynstat_uvel_del2            =   5.8821803371260E-05
(PID.TID 0000.0001) %MON dynstat_vvel_max             =   1.9356390916179E-01
(PID.TID 0000.0001) %MON dynstat_vvel_min             =  -2.1061335313895E-01
(PID.TID 0000.0001) %MON dynstat_vvel_mean            =  -4.2461259113623E-04
(PID.TID 0000.0001) %MON dynstat_vvel_sd              =   1.3474964755062E-02
(PID.TID 0000.0001) %MON dynstat_vvel_del2            =   5.6363744991273E-05
(PID.TID 0000.0001) %MON dynstat_wvel_max             =   8.3985212379618E-05
(PID.TID 0000.0001) %MON dynstat_wvel_min             =  -1.7706298341014E-04
(PID.TID 0000.0001) %MON dynstat_wvel_mean            =   1.7416098782924E-09
(PID.TID 0000.0001) %MON dynstat_wvel_sd              =   4.6302076880399E-06
(PID.TID 0000.0001) %MON dynstat_wvel_del2            =   4.0408133923544E-08
(PID.TID 0000.0001) %MON dynstat_theta_max            =   3.0143977320706E+01
(PID.TID 0000.0001) %MON dynstat_theta_min            =  -4.0278078229730E+00
(PID.TID 0000.0001) %MON dynstat_theta_mean           =   3.5028309605796E+00
(PID.TID 0000.0001) %MON dynstat_theta_sd             =   4.7489713229263E+00
(PID.TID 0000.0001) %MON dynstat_theta_del2           =   2.9391437057709E-03
(PID.TID 0000.0001) %MON dynstat_salt_max             =   4.0818099946521E+01
(PID.TID 0000.0001) %MON dynstat_salt_min             =   1.8030808815811E+01
(PID.TID 0000.0001) %MON dynstat_salt_mean            =   3.4756104174753E+01
(PID.TID 0000.0001) %MON dynstat_salt_sd              =   5.1189179655277E-01
(PID.TID 0000.0001) %MON dynstat_salt_del2            =   8.3943621794550E-04
(PID.TID 0000.0001) %MON forcing_qnet_max             =   7.7549616936275E+02
(PID.TID 0000.0001) %MON forcing_qnet_min             =  -8.9676147940171E+03
(PID.TID 0000.0001) %MON forcing_qnet_mean            =  -1.4533423828233E+01
(PID.TID 0000.0001) %MON forcing_qnet_sd              =   2.3414680962637E+02
(PID.TID 0000.0001) %MON forcing_qnet_del2            =   5.9824190539883E+00
(PID.TID 0000.0001) %MON forcing_qsw_max              =  -0.0000000000000E+00
(PID.TID 0000.0001) %MON forcing_qsw_min              =  -3.4195662119167E+02
(PID.TID 0000.0001) %MON forcing_qsw_mean             =  -1.8643093634317E+02
(PID.TID 0000.0001) %MON forcing_qsw_sd               =   8.0933736225501E+01
(PID.TID 0000.0001) %MON forcing_qsw_del2             =   6.7406354942812E-01
(PID.TID 0000.0001) %MON forcing_empmr_max            =   2.6554484665544E-02
(PID.TID 0000.0001) %MON forcing_empmr_min            =  -4.0448513424106E-04
(PID.TID 0000.0001) %MON forcing_empmr_mean           =   1.5317508906792E-05
(PID.TID 0000.0001) %MON forcing_empmr_sd             =   5.1033105559495E-04
(PID.TID 0000.0001) %MON forcing_empmr_del2           =   1.5990962211993E-05
(PID.TID 0000.0001) %MON forcing_fu_max               =   2.4760613571392E-01
(PID.TID 0000.0001) %MON forcing_fu_min               =  -2.0293190974520E-01
(PID.TID 0000.0001) %MON forcing_fu_mean              =  -4.5478806648627E-03
(PID.TID 0000.0001) %MON forcing_fu_sd                =   6.3937396831278E-02
(PID.TID 0000.0001) %MON forcing_fu_del2              =   2.0509729664672E-04
(PID.TID 0000.0001) %MON forcing_fv_max               =   2.5281098043587E-01
(PID.TID 0000.0001) %MON forcing_fv_min               =  -3.2691992401999E-01
(PID.TID 0000.0001) %MON forcing_fv_mean              =  -1.3684501518858E-02
(PID.TID 0000.0001) %MON forcing_fv_sd                =   7.5153512230531E-02
(PID.TID 0000.0001) %MON forcing_fv_del2              =   2.3373863441584E-04
(PID.TID 0000.0001) %MON advcfl_uvel_max              =   7.6901356728721E-02
(PID.TID 0000.0001) %MON advcfl_vvel_max              =   8.4371781033812E-02
(PID.TID 0000.0001) %MON advcfl_wvel_max              =   8.8668887926684E-02
(PID.TID 0000.0001) %MON advcfl_W_hf_max              =   6.5617758705099E-02
(PID.TID 0000.0001) %MON pe_b_mean                    =  -1.9285648876349E-03
(PID.TID 0000.0001) %MON ke_max                       =   3.6817140029557E-02
(PID.TID 0000.0001) %MON ke_mean                      =   1.6196509728825E-04
(PID.TID 0000.0001) %MON ke_vol                       =   1.3395912252519E+18
(PID.TID 0000.0001) %MON vort_r_min                   =  -1.2135568727371E-06
(PID.TID 0000.0001) %MON vort_r_max                   =   1.3680147037095E-06
(PID.TID 0000.0001) %MON vort_a_mean                  =  -2.0549865324846E-05
(PID.TID 0000.0001) %MON vort_a_sd                    =   7.5259583286529E-05
(PID.TID 0000.0001) %MON vort_p_mean                  =  -2.4787190486060E-05
(PID.TID 0000.0001) %MON vort_p_sd                    =   1.2817278636374E-04
(PID.TID 0000.0001) %MON surfExpan_theta_mean         =   3.7878597719727E-08
(PID.TID 0000.0001) %MON surfExpan_salt_mean          =   9.2604174719932E-10
(PID.TID 0000.0001) // =======================================================
(PID.TID 0000.0001) // End MONITOR dynamic field statistics
(PID.TID 0000.0001) // =======================================================
(PID.TID 0000.0001) // =======================================================
(PID.TID 0000.0001) // Begin MONITOR Therm.SeaIce statistics
(PID.TID 0000.0001) // =======================================================
(PID.TID 0000.0001) %MON thSI_time_sec                =   3.1104864000000E+09
(PID.TID 0000.0001) %MON thSI_Ice_Area_G              =   2.4738356411237E+13
(PID.TID 0000.0001) %MON thSI_Ice_Area_S              =   1.2042847194238E+13
(PID.TID 0000.0001) %MON thSI_Ice_Area_N              =   1.2695509216998E+13
(PID.TID 0000.0001) %MON thSI_IceH_ave_G              =   4.5846834480039E+00
(PID.TID 0000.0001) %MON thSI_IceH_ave_S              =   5.6904735119020E+00
(PID.TID 0000.0001) %MON thSI_IceH_ave_N              =   3.5357408226382E+00
(PID.TID 0000.0001) %MON thSI_IceH_max_S              =   1.0000000000000E+01
(PID.TID 0000.0001) %MON thSI_IceH_max_N              =   1.0000000000000E+01
(PID.TID 0000.0001) %MON thSI_SnwH_ave_G              =   1.0583997408712E+00
(PID.TID 0000.0001) %MON thSI_SnwH_ave_S              =   1.8029351955650E+00
(PID.TID 0000.0001) %MON thSI_SnwH_ave_N              =   3.5214002664359E-01
(PID.TID 0000.0001) %MON thSI_SnwH_max_S              =   4.0985942889861E+00
(PID.TID 0000.0001) %MON thSI_SnwH_max_N              =   4.1095075267918E+00
(PID.TID 0000.0001) %MON thSI_Tsrf_ave_G              =  -1.6749297971996E+01
(PID.TID 0000.0001) %MON thSI_Tsrf_ave_S              =  -1.0618241809861E-01
(PID.TID 0000.0001) %MON thSI_Tsrf_ave_N              =  -3.2536809447570E+01
(PID.TID 0000.0001) %MON thSI_Tsrf_min_S              =  -5.3043441467213E+00
(PID.TID 0000.0001) %MON thSI_Tsrf_min_N              =  -4.6213990021686E+01
(PID.TID 0000.0001) %MON thSI_Tsrf_max_S              =   0.0000000000000E+00
(PID.TID 0000.0001) %MON thSI_Tsrf_max_N              =  -6.7474323125520E+00
(PID.TID 0000.0001) %MON thSI_Tic1_ave_G              =  -8.3521197353959E+00
(PID.TID 0000.0001) %MON thSI_Tic1_ave_S              =  -5.1622181897384E+00
(PID.TID 0000.0001) %MON thSI_Tic1_ave_N              =  -1.3222067613469E+01
(PID.TID 0000.0001) %MON thSI_Tic1_min_S              =  -1.7216897768510E+01
(PID.TID 0000.0001) %MON thSI_Tic1_min_N              =  -2.0666395739877E+01
(PID.TID 0000.0001) %MON thSI_Tic1_max_S              =  -2.1831092533945E-01
(PID.TID 0000.0001) %MON thSI_Tic1_max_N              =  -5.9497842414135E-01
(PID.TID 0000.0001) %MON thSI_Tic2_ave_G              =  -3.7741536126138E+00
(PID.TID 0000.0001) %MON thSI_Tic2_ave_S              =  -3.1128115907687E+00
(PID.TID 0000.0001) %MON thSI_Tic2_ave_N              =  -4.7838089671339E+00
(PID.TID 0000.0001) %MON thSI_Tic2_min_S              =  -8.8094598422842E+00
(PID.TID 0000.0001) %MON thSI_Tic2_min_N              =  -7.4380986141887E+00
(PID.TID 0000.0001) %MON thSI_Tic2_max_S              =  -1.1539915958877E+00
(PID.TID 0000.0001) %MON thSI_Tic2_max_N              =  -1.1753502729289E+00
(PID.TID 0000.0001) %MON thSI_TotEnerg_G              =  -3.8086152333288E+22
(PID.TID 0000.0001) // =======================================================
(PID.TID 0000.0001) // End MONITOR Therm.SeaIce statistics
(PID.TID 0000.0001) // =======================================================
 Computing Diagnostic #     23  ETAN         Counter:       1   Parms: SM      M1      
 Computing Diagnostic #     79  oceFWflx     Counter:       1   Parms: SM      U1      
 Computing Diagnostic #     26  THETA        Counter:       1   Parms: SMR     MR      
 Computing Diagnostic #     27  SALT         Counter:       1   Parms: SMR     MR      
 Compute Stats, Diag. #     75  oceTAUX   vol(   0 ): 3.457E+14  Parms: UU      U1      
 Compute Stats, Diag. #     76  oceTAUY   vol(   0 ): 3.478E+14  Parms: VV      U1      
 Compute Stats, Diag. #     84  TRELAX    vol(   0 ): 3.639E+14  Parms: SM      U1      
 Compute Stats, Diag. #     85  SRELAX    vol(   0 ): 3.639E+14  Parms: SM      U1      
 Compute Stats, Diag. #     86  surForcT  vol(   0 ): 3.639E+14  Parms: SM      U1      
 Compute Stats, Diag. #     87  surForcS  vol(   0 ): 3.639E+14  Parms: SM      U1      
 Compute Stats, Diag. #     88  TFLUX     vol(   0 ): 3.639E+14  Parms: SM      U1      
 Compute Stats, Diag. #     89  SFLUX     vol(   0 ): 3.639E+14  Parms: SM      U1      
 Compute Stats, Diag. #     81  oceQnet   vol(   0 ): 3.639E+14  Parms: SM      U1      
 Compute Stats, Diag. #     80  oceSflux  vol(   0 ): 3.639E+14  Parms: SM      U1      
 Compute Stats, Diag. #     79  oceFWflx  vol(   0 ): 3.639E+14  Parms: SM      U1      
 cg2d: Sum(rhs),rhsMax =   3.91131921824871E+02  2.29255287241867E+02
(PID.TID 0000.0001)                    cg2d_init_res =    2.74856936053468E+00
(PID.TID 0000.0001)                       cg2d_iters =    69
(PID.TID 0000.0001)                         cg2d_res =    5.38174366779394E-07
(PID.TID 0000.0001) // =======================================================
(PID.TID 0000.0001) // Begin MONITOR dynamic field statistics
(PID.TID 0000.0001) // =======================================================
(PID.TID 0000.0001) %MON time_tsnumber                =                 36002
(PID.TID 0000.0001) %MON time_secondsf                =   3.1105728000000E+09
(PID.TID 0000.0001) %MON dynstat_eta_max              =   7.3253161004735E-01
(PID.TID 0000.0001) %MON dynstat_eta_min              =  -1.1985096656221E+01
(PID.TID 0000.0001) %MON dynstat_eta_mean             =  -5.8174733810956E-01
(PID.TID 0000.0001) %MON dynstat_eta_sd               =   1.7022747292739E+00
(PID.TID 0000.0001) %MON dynstat_eta_del2             =   2.1086598010563E-02
(PID.TID 0000.0001) %MON dynstat_uvel_max             =   1.7329420055447E-01
(PID.TID 0000.0001) %MON dynstat_uvel_min             =  -2.7081627038570E-01
(PID.TID 0000.0001) %MON dynstat_uvel_mean            =  -5.2836325739975E-04
(PID.TID 0000.0001) %MON dynstat_uvel_sd              =   1.2988528968031E-02
(PID.TID 0000.0001) %MON dynstat_uvel_del2            =   5.8802705595983E-05
(PID.TID 0000.0001) %MON dynstat_vvel_max             =   1.9398833968584E-01
(PID.TID 0000.0001) %MON dynstat_vvel_min             =  -2.1072375648724E-01
(PID.TID 0000.0001) %MON dynstat_vvel_mean            =  -4.2452102885347E-04
(PID.TID 0000.0001) %MON dynstat_vvel_sd              =   1.3476491636945E-02
(PID.TID 0000.0001) %MON dynstat_vvel_del2            =   5.6319623354942E-05
(PID.TID 0000.0001) %MON dynstat_wvel_max             =   8.3878461487957E-05
(PID.TID 0000.0001) %MON dynstat_wvel_min             =  -1.7741686258955E-04
(PID.TID 0000.0001) %MON dynstat_wvel_mean            =  -1.2005582791155E-09
(PID.TID 0000.0001) %MON dynstat_wvel_sd              =   4.6256908530211E-06
(PID.TID 0000.0001) %MON dynstat_wvel_del2            =   4.0321202865293E-08
(PID.TID 0000.0001) %MON dynstat_theta_max            =   3.0124603885919E+01
(PID.TID 0000.0001) %MON dynstat_theta_min            =  -3.3553040930762E+00
(PID.TID 0000.0001) %MON dynstat_theta_mean           =   3.5028877722369E+00
(PID.TID 0000.0001) %MON dynstat_theta_sd             =   4.7490129241137E+00
(PID.TID 0000.0001) %MON dynstat_theta_del2           =   2.9390885163114E-03
(PID.TID 0000.0001) %MON dynstat_salt_max             =   4.0820622830092E+01
(PID.TID 0000.0001) %MON dynstat_salt_min             =   1.8031424151899E+01
(PID.TID 0000.0001) %MON dynstat_salt_mean            =   3.4756104653073E+01
(PID.TID 0000.0001) %MON dynstat_salt_sd              =   5.1188354792970E-01
(PID.TID 0000.0001) %MON dynstat_salt_del2            =   8.3859065872661E-04
(PID.TID 0000.0001) %MON forcing_qnet_max             =   7.7879139082092E+02
(PID.TID 0000.0001) %MON forcing_qnet_min             =  -2.4011440766621E+02
(PID.TID 0000.0001) %MON forcing_qnet_mean            =  -4.7129339304887E+00
(PID.TID 0000.0001) %MON forcing_qnet_sd              =   1.2148791669915E+02
(PID.TID 0000.0001) %MON forcing_qnet_del2            =   1.0444759594954E+00
(PID.TID 0000.0001) %MON forcing_qsw_max              =  -0.0000000000000E+00
(PID.TID 0000.0001) %MON forcing_qsw_min              =  -3.4175257854448E+02
(PID.TID 0000.0001) %MON forcing_qsw_mean             =  -1.8646518663948E+02
(PID.TID 0000.0001) %MON forcing_qsw_sd               =   8.0799357798136E+01
(PID.TID 0000.0001) %MON forcing_qsw_del2             =   6.7576898575840E-01
(PID.TID 0000.0001) %MON forcing_empmr_max            =   5.9715672482521E-04
(PID.TID 0000.0001) %MON forcing_empmr_min            =  -3.9950652419193E-04
(PID.TID 0000.0001) %MON forcing_empmr_mean           =   1.5589958993164E-07
(PID.TID 0000.0001) %MON forcing_empmr_sd             =   5.5506383120820E-05
(PID.TID 0000.0001) %MON forcing_empmr_del2           =   1.0594698438100E-06
(PID.TID 0000.0001) %MON forcing_fu_max               =   2.4755808644372E-01
(PID.TID 0000.0001) %MON forcing_fu_min               =  -2.0607770640355E-01
(PID.TID 0000.0001) %MON forcing_fu_mean              =  -4.5044017291293E-03
(PID.TID 0000.0001) %MON forcing_fu_sd                =   6.3947166868600E-02
(PID.TID 0000.0001) %MON forcing_fu_del2              =   2.0524826999043E-04
(PID.TID 0000.0001) %MON forcing_fv_max               =   2.5549422200851E-01
(PID.TID 0000.0001) %MON forcing_fv_min               =  -3.2770782795392E-01
(PID.TID 0000.0001) %MON forcing_fv_mean              =  -1.3688427064785E-02
(PID.TID 0000.0001) %MON forcing_fv_sd                =   7.5192943168452E-02
(PID.TID 0000.0001) %MON forcing_fv_del2              =   2.3392164091250E-04
(PID.TID 0000.0001) %MON advcfl_uvel_max              =   7.6808631310320E-02
(PID.TID 0000.0001) %MON advcfl_vvel_max              =   8.4556784319777E-02
(PID.TID 0000.0001) %MON advcfl_wvel_max              =   5.7844592180140E-02
(PID.TID 0000.0001) %MON advcfl_W_hf_max              =   6.5305822431910E-02
(PID.TID 0000.0001) %MON pe_b_mean                    =  -1.9270086451602E-03
(PID.TID 0000.0001) %MON ke_max                       =   3.6710666120170E-02
(PID.TID 0000.0001) %MON ke_mean                      =   1.6197371246300E-04
(PID.TID 0000.0001) %MON ke_vol                       =   1.3395907599575E+18
(PID.TID 0000.0001) %MON vort_r_min                   =  -1.2170150075846E-06
(PID.TID 0000.0001) %MON vort_r_max                   =   1.3705352204397E-06
(PID.TID 0000.0001) %MON vort_a_mean                  =  -2.0549865324846E-05
(PID.TID 0000.0001) %MON vort_a_sd                    =   7.5259583113972E-05
(PID.TID 0000.0001) %MON vort_p_mean                  =  -2.4787196681009E-05
(PID.TID 0000.0001) %MON vort_p_sd                    =   1.2817293504035E-04
(PID.TID 0000.0001) %MON surfExpan_theta_mean         =   8.5120869160650E-08
(PID.TID 0000.0001) %MON surfExpan_salt_mean          =   1.8910280778552E-08
(PID.TID 0000.0001) // =======================================================
(PID.TID 0000.0001) // End MONITOR dynamic field statistics
(PID.TID 0000.0001) // =======================================================
(PID.TID 0000.0001) // =======================================================
(PID.TID 0000.0001) // Begin MONITOR Therm.SeaIce statistics
(PID.TID 0000.0001) // =======================================================
(PID.TID 0000.0001) %MON thSI_time_sec                =   3.1105728000000E+09
(PID.TID 0000.0001) %MON thSI_Ice_Area_G              =   2.4756287438070E+13
(PID.TID 0000.0001) %MON thSI_Ice_Area_S              =   1.1991786953099E+13
(PID.TID 0000.0001) %MON thSI_Ice_Area_N              =   1.2764500484970E+13
(PID.TID 0000.0001) %MON thSI_IceH_ave_G              =   4.5821668091274E+00
(PID.TID 0000.0001) %MON thSI_IceH_ave_S              =   5.7074957146612E+00
(PID.TID 0000.0001) %MON thSI_IceH_ave_N              =   3.5249609667825E+00
(PID.TID 0000.0001) %MON thSI_IceH_max_S              =   1.0000000000000E+01
(PID.TID 0000.0001) %MON thSI_IceH_max_N              =   1.0000000000000E+01
(PID.TID 0000.0001) %MON thSI_SnwH_ave_G              =   1.0529442325396E+00
(PID.TID 0000.0001) %MON thSI_SnwH_ave_S              =   1.7979823388206E+00
(PID.TID 0000.0001) %MON thSI_SnwH_ave_N              =   3.5300785406704E-01
(PID.TID 0000.0001) %MON thSI_SnwH_max_S              =   4.0952680525060E+00
(PID.TID 0000.0001) %MON thSI_SnwH_max_N              =   4.1020845310451E+00
(PID.TID 0000.0001) %MON thSI_Tsrf_ave_G              =  -1.6871695084796E+01
(PID.TID 0000.0001) %MON thSI_Tsrf_ave_S              =  -1.2634335888251E-01
(PID.TID 0000.0001) %MON thSI_Tsrf_ave_N              =  -3.2603347928423E+01
(PID.TID 0000.0001) %MON thSI_Tsrf_min_S              =  -5.3207170352752E+00
(PID.TID 0000.0001) %MON thSI_Tsrf_min_N              =  -4.6355041687304E+01
(PID.TID 0000.0001) %MON thSI_Tsrf_max_S              =   0.0000000000000E+00
(PID.TID 0000.0001) %MON thSI_Tsrf_max_N              =  -7.6783592689093E+00
(PID.TID 0000.0001) %MON thSI_Tic1_ave_G              =  -8.3768872884348E+00
(PID.TID 0000.0001) %MON thSI_Tic1_ave_S              =  -5.1376630553904E+00
(PID.TID 0000.0001) %MON thSI_Tic1_ave_N              =  -1.3304225516661E+01
(PID.TID 0000.0001) %MON thSI_Tic1_min_S              =  -1.6689794567922E+01
(PID.TID 0000.0001) %MON thSI_Tic1_min_N              =  -2.0726706592963E+01
(PID.TID 0000.0001) %MON thSI_Tic1_max_S              =  -2.2651862665666E-01
(PID.TID 0000.0001) %MON thSI_Tic1_max_N              =  -6.4311679079621E-01
(PID.TID 0000.0001) %MON thSI_Tic2_ave_G              =  -3.7793621069394E+00
(PID.TID 0000.0001) %MON thSI_Tic2_ave_S              =  -3.1002033567845E+00
(PID.TID 0000.0001) %MON thSI_Tic2_ave_N              =  -4.8124628223928E+00
(PID.TID 0000.0001) %MON thSI_Tic2_min_S              =  -8.7485368036072E+00
(PID.TID 0000.0001) %MON thSI_Tic2_min_N              =  -7.4594173056918E+00
(PID.TID 0000.0001) %MON thSI_Tic2_max_S              =  -1.1905054593224E+00
(PID.TID 0000.0001) %MON thSI_Tic2_max_N              =  -1.1847736548613E+00
(PID.TID 0000.0001) %MON thSI_TotEnerg_G              =  -3.8083632131948E+22
(PID.TID 0000.0001) // =======================================================
(PID.TID 0000.0001) // End MONITOR Therm.SeaIce statistics
(PID.TID 0000.0001) // =======================================================
 Computing Diagnostic #     23  ETAN         Counter:       1   Parms: SM      M1      
 Compute Stats, Diag. #     23  ETAN      vol(   0 ): 3.639E+14  Parms: SM      M1      
 Compute Stats, Diag. #     26  THETA     vol(   0 ): 1.340E+18  Parms: SMR     MR      
 Compute Stats, Diag. #     27  SALT      vol(   0 ): 1.340E+18  Parms: SMR     MR      
 cg2d: Sum(rhs),rhsMax =   3.91306457345962E+02  2.29299174390983E+02
(PID.TID 0000.0001)                    cg2d_init_res =    6.05881510161922E+00
(PID.TID 0000.0001)                       cg2d_iters =    69
(PID.TID 0000.0001)                         cg2d_res =    5.26814301672221E-07
(PID.TID 0000.0001) // =======================================================
(PID.TID 0000.0001) // Begin MONITOR dynamic field statistics
(PID.TID 0000.0001) // =======================================================
(PID.TID 0000.0001) %MON time_tsnumber                =                 36003
(PID.TID 0000.0001) %MON time_secondsf                =   3.1106592000000E+09
(PID.TID 0000.0001) %MON dynstat_eta_max              =   7.3125883441893E-01
(PID.TID 0000.0001) %MON dynstat_eta_min              =  -1.1983414707440E+01
(PID.TID 0000.0001) %MON dynstat_eta_mean             =  -5.8200693230051E-01
(PID.TID 0000.0001) %MON dynstat_eta_sd               =   1.7027138668921E+00
(PID.TID 0000.0001) %MON dynstat_eta_del2             =   2.1151932971679E-02
(PID.TID 0000.0001) %MON dynstat_uvel_max             =   1.7366837431578E-01
(PID.TID 0000.0001) %MON dynstat_uvel_min             =  -2.7047805389613E-01
(PID.TID 0000.0001) %MON dynstat_uvel_mean            =  -5.2788824696051E-04
(PID.TID 0000.0001) %MON dynstat_uvel_sd              =   1.2987419729418E-02
(PID.TID 0000.0001) %MON dynstat_uvel_del2            =   5.8781178496076E-05
(PID.TID 0000.0001) %MON dynstat_vvel_max             =   1.9435149230720E-01
(PID.TID 0000.0001) %MON dynstat_vvel_min             =  -2.1082634112719E-01
(PID.TID 0000.0001) %MON dynstat_vvel_mean            =  -4.2436193635445E-04
(PID.TID 0000.0001) %MON dynstat_vvel_sd              =   1.3478041093806E-02
(PID.TID 0000.0001) %MON dynstat_vvel_del2            =   5.6276318679090E-05
(PID.TID 0000.0001) %MON dynstat_wvel_max             =   8.3856395721696E-05
(PID.TID 0000.0001) %MON dynstat_wvel_min             =  -1.7771419054994E-04
(PID.TID 0000.0001) %MON dynstat_wvel_mean            =  -6.4725927528087E-10
(PID.TID 0000.0001) %MON dynstat_wvel_sd              =   4.6253268016134E-06
(PID.TID 0000.0001) %MON dynstat_wvel_del2            =   4.0333590472275E-08
(PID.TID 0000.0001) %MON dynstat_theta_max            =   3.0104705418602E+01
(PID.TID 0000.0001) %MON dynstat_theta_min            =  -3.3518898952525E+00
(PID.TID 0000.0001) %MON dynstat_theta_mean           =   3.5029533029649E+00
(PID.TID 0000.0001) %MON dynstat_theta_sd             =   4.7490564681970E+00
(PID.TID 0000.0001) %MON dynstat_theta_del2           =   2.9416556556543E-03
(PID.TID 0000.0001) %MON dynstat_salt_max             =   4.0822995279711E+01
(PID.TID 0000.0001) %MON dynstat_salt_min             =   1.8032025269688E+01
(PID.TID 0000.0001) %MON dynstat_salt_mean            =   3.4756107660119E+01
(PID.TID 0000.0001) %MON dynstat_salt_sd              =   5.1186958124561E-01
(PID.TID 0000.0001) %MON dynstat_salt_del2            =   8.3919025792588E-04
(PID.TID 0000.0001) %MON forcing_qnet_max             =   7.8157109865371E+02
(PID.TID 0000.0001) %MON forcing_qnet_min             =  -3.0899300248230E+03
(PID.TID 0000.0001) %MON forcing_qnet_mean            =  -5.9485355796462E+00
(PID.TID 0000.0001) %MON forcing_qnet_sd              =   1.3220597839589E+02
(PID.TID 0000.0001) %MON forcing_qnet_del2            =   2.0188742631545E+00
(PID.TID 0000.0001) %MON forcing_qsw_max              =  -0.0000000000000E+00
(PID.TID 0000.0001) %MON forcing_qsw_min              =  -3.4154853589728E+02
(PID.TID 0000.0001) %MON forcing_qsw_mean             =  -1.8648590881988E+02
(PID.TID 0000.0001) %MON forcing_qsw_sd               =   8.0655748839898E+01
(PID.TID 0000.0001) %MON forcing_qsw_del2             =   6.7468620294651E-01
(PID.TID 0000.0001) %MON forcing_empmr_max            =   9.1468978679474E-03
(PID.TID 0000.0001) %MON forcing_empmr_min            =  -3.9320165846825E-04
(PID.TID 0000.0001) %MON forcing_empmr_mean           =   3.1097220790830E-06
(PID.TID 0000.0001) %MON forcing_empmr_sd             =   1.6474651367034E-04
(PID.TID 0000.0001) %MON forcing_empmr_del2           =   5.2072899771361E-06
(PID.TID 0000.0001) %MON forcing_fu_max               =   2.4751003717351E-01
(PID.TID 0000.0001) %MON forcing_fu_min               =  -2.0922350306190E-01
(PID.TID 0000.0001) %MON forcing_fu_mean              =  -4.4609227933959E-03
(PID.TID 0000.0001) %MON forcing_fu_sd                =   6.3970406478471E-02
(PID.TID 0000.0001) %MON forcing_fu_del2              =   2.0564087338622E-04
(PID.TID 0000.0001) %MON forcing_fv_max               =   2.5817746358114E-01
(PID.TID 0000.0001) %MON forcing_fv_min               =  -3.2849573188785E-01
(PID.TID 0000.0001) %MON forcing_fv_mean              =  -1.3692352610712E-02
(PID.TID 0000.0001) %MON forcing_fv_sd                =   7.5242720295677E-02
(PID.TID 0000.0001) %MON forcing_fv_del2              =   2.3430754301775E-04
(PID.TID 0000.0001) %MON advcfl_uvel_max              =   7.6712706698355E-02
(PID.TID 0000.0001) %MON advcfl_vvel_max              =   8.4715077431255E-02
(PID.TID 0000.0001) %MON advcfl_wvel_max              =   5.7941532315152E-02
(PID.TID 0000.0001) %MON advcfl_W_hf_max              =   6.4957855679928E-02
(PID.TID 0000.0001) %MON pe_b_mean                    =  -1.9300197281497E-03
(PID.TID 0000.0001) %MON ke_max                       =   3.6601520276967E-02
(PID.TID 0000.0001) %MON ke_mean                      =   1.6197956136980E-04
(PID.TID 0000.0001) %MON ke_vol                       =   1.3395907552218E+18
(PID.TID 0000.0001) %MON vort_r_min                   =  -1.2207759524161E-06
(PID.TID 0000.0001) %MON vort_r_max                   =   1.3733169678091E-06
(PID.TID 0000.0001) %MON vort_a_mean                  =  -2.0549865324846E-05
(PID.TID 0000.0001) %MON vort_a_sd                    =   7.5259582970957E-05
(PID.TID 0000.0001) %MON vort_p_mean                  =  -2.4787196249296E-05
(PID.TID 0000.0001) %MON vort_p_sd                    =   1.2817294256821E-04
(PID.TID 0000.0001) %MON surfExpan_theta_mean         =   7.0416070374144E-08
(PID.TID 0000.0001) %MON surfExpan_salt_mean          =   1.4810448161579E-08
(PID.TID 0000.0001) // =======================================================
(PID.TID 0000.0001) // End MONITOR dynamic field statistics
(PID.TID 0000.0001) // =======================================================
(PID.TID 0000.0001) // =======================================================
(PID.TID 0000.0001) // Begin MONITOR Therm.SeaIce statistics
(PID.TID 0000.0001) // =======================================================
(PID.TID 0000.0001) %MON thSI_time_sec                =   3.1106592000000E+09
(PID.TID 0000.0001) %MON thSI_Ice_Area_G              =   2.4763719524517E+13
(PID.TID 0000.0001) %MON thSI_Ice_Area_S              =   1.1938341959018E+13
(PID.TID 0000.0001) %MON thSI_Ice_Area_N              =   1.2825377565499E+13
(PID.TID 0000.0001) %MON thSI_IceH_ave_G              =   4.5857489324102E+00
(PID.TID 0000.0001) %MON thSI_IceH_ave_S              =   5.7260539931239E+00
(PID.TID 0000.0001) %MON thSI_IceH_ave_N              =   3.5243102587435E+00
(PID.TID 0000.0001) %MON thSI_IceH_max_S              =   1.0000000000000E+01
(PID.TID 0000.0001) %MON thSI_IceH_max_N              =   1.0000000000000E+01
(PID.TID 0000.0001) %MON thSI_SnwH_ave_G              =   1.0481637465850E+00
(PID.TID 0000.0001) %MON thSI_SnwH_ave_S              =   1.7937021430001E+00
(PID.TID 0000.0001) %MON thSI_SnwH_ave_N              =   3.5418867454309E-01
(PID.TID 0000.0001) %MON thSI_SnwH_max_S              =   4.0939885903343E+00
(PID.TID 0000.0001) %MON thSI_SnwH_max_N              =   4.1023289726386E+00
(PID.TID 0000.0001) %MON thSI_Tsrf_ave_G              =  -1.6948698403329E+01
(PID.TID 0000.0001) %MON thSI_Tsrf_ave_S              =  -1.0911650583507E-01
(PID.TID 0000.0001) %MON thSI_Tsrf_ave_N              =  -3.2623612152455E+01
(PID.TID 0000.0001) %MON thSI_Tsrf_min_S              =  -5.3370576572150E+00
(PID.TID 0000.0001) %MON thSI_Tsrf_min_N              =  -4.6469445795717E+01
(PID.TID 0000.0001) %MON thSI_Tsrf_max_S              =   0.0000000000000E+00
(PID.TID 0000.0001) %MON thSI_Tsrf_max_N              =  -1.8310283794974E+00
(PID.TID 0000.0001) %MON thSI_Tic1_ave_G              =  -8.3963071664471E+00
(PID.TID 0000.0001) %MON thSI_Tic1_ave_S              =  -5.1158340062504E+00
(PID.TID 0000.0001) %MON thSI_Tic1_ave_N              =  -1.3357563302436E+01
(PID.TID 0000.0001) %MON thSI_Tic1_min_S              =  -1.6541939746011E+01
(PID.TID 0000.0001) %MON thSI_Tic1_min_N              =  -2.0804072998682E+01
(PID.TID 0000.0001) %MON thSI_Tic1_max_S              =  -2.2966489128988E-01
(PID.TID 0000.0001) %MON thSI_Tic1_max_N              =  -6.5768702938312E-01
(PID.TID 0000.0001) %MON thSI_Tic2_ave_G              =  -3.7898206475238E+00
(PID.TID 0000.0001) %MON thSI_Tic2_ave_S              =  -3.0964921608905E+00
(PID.TID 0000.0001) %MON thSI_Tic2_ave_N              =  -4.8383828641886E+00
(PID.TID 0000.0001) %MON thSI_Tic2_min_S              =  -8.7237674416984E+00
(PID.TID 0000.0001) %MON thSI_Tic2_min_N              =  -7.4973446069327E+00
(PID.TID 0000.0001) %MON thSI_Tic2_max_S              =  -1.1903014865897E+00
(PID.TID 0000.0001) %MON thSI_Tic2_max_N              =  -1.1960830313249E+00
(PID.TID 0000.0001) %MON thSI_TotEnerg_G              =  -3.8112830614009E+22
(PID.TID 0000.0001) // =======================================================
(PID.TID 0000.0001) // End MONITOR Therm.SeaIce statistics
(PID.TID 0000.0001) // =======================================================
 cg2d: Sum(rhs),rhsMax =   3.91399720621000E+02  2.29353133798250E+02
(PID.TID 0000.0001)                    cg2d_init_res =    4.24480993413539E+00
(PID.TID 0000.0001)                       cg2d_iters =    68
(PID.TID 0000.0001)                         cg2d_res =    5.39090247348569E-07
(PID.TID 0000.0001) // =======================================================
(PID.TID 0000.0001) // Begin MONITOR dynamic field statistics
(PID.TID 0000.0001) // =======================================================
(PID.TID 0000.0001) %MON time_tsnumber                =                 36004
(PID.TID 0000.0001) %MON time_secondsf                =   3.1107456000000E+09
(PID.TID 0000.0001) %MON dynstat_eta_max              =   7.3006737311701E-01
(PID.TID 0000.0001) %MON dynstat_eta_min              =  -1.1981545912127E+01
(PID.TID 0000.0001) %MON dynstat_eta_mean             =  -5.8214564678268E-01
(PID.TID 0000.0001) %MON dynstat_eta_sd               =   1.7027252387751E+00
(PID.TID 0000.0001) %MON dynstat_eta_del2             =   2.1196826389831E-02
(PID.TID 0000.0001) %MON dynstat_uvel_max             =   1.7397922711915E-01
(PID.TID 0000.0001) %MON dynstat_uvel_min             =  -2.7012825552055E-01
(PID.TID 0000.0001) %MON dynstat_uvel_mean            =  -5.2730296896237E-04
(PID.TID 0000.0001) %MON dynstat_uvel_sd              =   1.2985995044547E-02
(PID.TID 0000.0001) %MON dynstat_uvel_del2            =   5.8757833948400E-05
(PID.TID 0000.0001) %MON dynstat_vvel_max             =   1.9465091945878E-01
(PID.TID 0000.0001) %MON dynstat_vvel_min             =  -2.1092134413270E-01
(PID.TID 0000.0001) %MON dynstat_vvel_mean            =  -4.2414751614745E-04
(PID.TID 0000.0001) %MON dynstat_vvel_sd              =   1.3479393260626E-02
(PID.TID 0000.0001) %MON dynstat_vvel_del2            =   5.6233996433000E-05
(PID.TID 0000.0001) %MON dynstat_wvel_max             =   8.3910409654922E-05
(PID.TID 0000.0001) %MON dynstat_wvel_min             =  -1.7794292282195E-04
(PID.TID 0000.0001) %MON dynstat_wvel_mean            =  -8.6206715887120E-10
(PID.TID 0000.0001) %MON dynstat_wvel_sd              =   4.6243834885156E-06
(PID.TID 0000.0001) %MON dynstat_wvel_del2            =   4.0332213936820E-08
(PID.TID 0000.0001) %MON dynstat_theta_max            =   3.0084398517367E+01
(PID.TID 0000.0001) %MON dynstat_theta_min            =  -3.3484357320152E+00
(PID.TID 0000.0001) %MON dynstat_theta_mean           =   3.5030174963343E+00
(PID.TID 0000.0001) %MON dynstat_theta_sd             =   4.7491143511016E+00
(PID.TID 0000.0001) %MON dynstat_theta_del2           =   2.9440077050314E-03
(PID.TID 0000.0001) %MON dynstat_salt_max             =   4.0825218754642E+01
(PID.TID 0000.0001) %MON dynstat_salt_min             =   1.8032613372407E+01
(PID.TID 0000.0001) %MON dynstat_salt_mean            =   3.4756109580461E+01
(PID.TID 0000.0001) %MON dynstat_salt_sd              =   5.1185921136417E-01
(PID.TID 0000.0001) %MON dynstat_salt_del2            =   8.3935404658245E-04
(PID.TID 0000.0001) %MON forcing_qnet_max             =   7.8344427724552E+02
(PID.TID 0000.0001) %MON forcing_qnet_min             =  -1.7555182421169E+03
(PID.TID 0000.0001) %MON forcing_qnet_mean            =  -5.6787932803049E+00
(PID.TID 0000.0001) %MON forcing_qnet_sd              =   1.2476616820916E+02
(PID.TID 0000.0001) %MON forcing_qnet_del2            =   1.4396102865900E+00
(PID.TID 0000.0001) %MON forcing_qsw_max              =  -0.0000000000000E+00
(PID.TID 0000.0001) %MON forcing_qsw_min              =  -3.4134449325008E+02
(PID.TID 0000.0001) %MON forcing_qsw_mean             =  -1.8650863912069E+02
(PID.TID 0000.0001) %MON forcing_qsw_sd               =   8.0514169106022E+01
(PID.TID 0000.0001) %MON forcing_qsw_del2             =   6.7427349609286E-01
(PID.TID 0000.0001) %MON forcing_empmr_max            =   5.1962660632803E-03
(PID.TID 0000.0001) %MON forcing_empmr_min            =  -3.8540752337598E-04
(PID.TID 0000.0001) %MON forcing_empmr_mean           =   1.6616839010154E-06
(PID.TID 0000.0001) %MON forcing_empmr_sd             =   1.0272102136809E-04
(PID.TID 0000.0001) %MON forcing_empmr_del2           =   3.0746361107154E-06
(PID.TID 0000.0001) %MON forcing_fu_max               =   2.4746198790331E-01
(PID.TID 0000.0001) %MON forcing_fu_min               =  -2.1236929972025E-01
(PID.TID 0000.0001) %MON forcing_fu_mean              =  -4.4174438576624E-03
(PID.TID 0000.0001) %MON forcing_fu_sd                =   6.4007100989353E-02
(PID.TID 0000.0001) %MON forcing_fu_del2              =   2.0627372714610E-04
(PID.TID 0000.0001) %MON forcing_fv_max               =   2.6086070515377E-01
(PID.TID 0000.0001) %MON forcing_fv_min               =  -3.2928363582178E-01
(PID.TID 0000.0001) %MON forcing_fv_mean              =  -1.3696278156640E-02
(PID.TID 0000.0001) %MON forcing_fv_sd                =   7.5302823094907E-02
(PID.TID 0000.0001) %MON forcing_fv_del2              =   2.3489534074143E-04
(PID.TID 0000.0001) %MON advcfl_uvel_max              =   7.6613497243827E-02
(PID.TID 0000.0001) %MON advcfl_vvel_max              =   8.4845593508238E-02
(PID.TID 0000.0001) %MON advcfl_wvel_max              =   5.8016107667231E-02
(PID.TID 0000.0001) %MON advcfl_W_hf_max              =   6.4574733432072E-02
(PID.TID 0000.0001) %MON pe_b_mean                    =  -1.9314028368720E-03
(PID.TID 0000.0001) %MON ke_max                       =   3.6489692672235E-02
(PID.TID 0000.0001) %MON ke_mean                      =   1.6197911219741E-04
(PID.TID 0000.0001) %MON ke_vol                       =   1.3395906607590E+18
(PID.TID 0000.0001) %MON vort_r_min                   =  -1.2247993313622E-06
(PID.TID 0000.0001) %MON vort_r_max                   =   1.3763189804090E-06
(PID.TID 0000.0001) %MON vort_a_mean                  =  -2.0549865324846E-05
(PID.TID 0000.0001) %MON vort_a_sd                    =   7.5259582848045E-05
(PID.TID 0000.0001) %MON vort_p_mean                  =  -2.4787197131553E-05
(PID.TID 0000.0001) %MON vort_p_sd                    =   1.2817297555102E-04
(PID.TID 0000.0001) %MON surfExpan_theta_mean         =   7.5113978542746E-08
(PID.TID 0000.0001) %MON surfExpan_salt_mean          =   1.6693583634293E-08
(PID.TID 0000.0001) // =======================================================
(PID.TID 0000.0001) // End MONITOR dynamic field statistics
(PID.TID 0000.0001) // =======================================================
(PID.TID 0000.0001) // =======================================================
(PID.TID 0000.0001) // Begin MONITOR Therm.SeaIce statistics
(PID.TID 0000.0001) // =======================================================
(PID.TID 0000.0001) %MON thSI_time_sec                =   3.1107456000000E+09
(PID.TID 0000.0001) %MON thSI_Ice_Area_G              =   2.4781217199059E+13
(PID.TID 0000.0001) %MON thSI_Ice_Area_S              =   1.1893663130377E+13
(PID.TID 0000.0001) %MON thSI_Ice_Area_N              =   1.2887554068682E+13
(PID.TID 0000.0001) %MON thSI_IceH_ave_G              =   4.5854417016630E+00
(PID.TID 0000.0001) %MON thSI_IceH_ave_S              =   5.7406892656959E+00
(PID.TID 0000.0001) %MON thSI_IceH_ave_N              =   3.5192870779407E+00
(PID.TID 0000.0001) %MON thSI_IceH_max_S              =   1.0000000000000E+01
(PID.TID 0000.0001) %MON thSI_IceH_max_N              =   1.0000000000000E+01
(PID.TID 0000.0001) %MON thSI_SnwH_ave_G              =   1.0430865724459E+00
(PID.TID 0000.0001) %MON thSI_SnwH_ave_S              =   1.7882918453001E+00
(PID.TID 0000.0001) %MON thSI_SnwH_ave_N              =   3.5535169032056E-01
(PID.TID 0000.0001) %MON thSI_SnwH_max_S              =   4.0939945053619E+00
(PID.TID 0000.0001) %MON thSI_SnwH_max_N              =   4.1021821694680E+00
(PID.TID 0000.0001) %MON thSI_Tsrf_ave_G              =  -1.7035508854468E+01
(PID.TID 0000.0001) %MON thSI_Tsrf_ave_S              =  -1.2969658283235E-01
(PID.TID 0000.0001) %MON thSI_Tsrf_ave_N              =  -3.2637541251979E+01
(PID.TID 0000.0001) %MON thSI_Tsrf_min_S              =  -5.3533619611988E+00
(PID.TID 0000.0001) %MON thSI_Tsrf_min_N              =  -4.6583877671418E+01
(PID.TID 0000.0001) %MON thSI_Tsrf_max_S              =   0.0000000000000E+00
(PID.TID 0000.0001) %MON thSI_Tsrf_max_N              =  -5.8003993671647E+00
(PID.TID 0000.0001) %MON thSI_Tic1_ave_G              =  -8.4161535679753E+00
(PID.TID 0000.0001) %MON thSI_Tic1_ave_S              =  -5.0890570018035E+00
(PID.TID 0000.0001) %MON thSI_Tic1_ave_N              =  -1.3424794338045E+01
(PID.TID 0000.0001) %MON thSI_Tic1_min_S              =  -1.6056755004740E+01
(PID.TID 0000.0001) %MON thSI_Tic1_min_N              =  -2.0878819418818E+01
(PID.TID 0000.0001) %MON thSI_Tic1_max_S              =  -2.1348011767152E-01
(PID.TID 0000.0001) %MON thSI_Tic1_max_N              =  -6.7286382857875E-01
(PID.TID 0000.0001) %MON thSI_Tic2_ave_G              =  -3.8013073592857E+00
(PID.TID 0000.0001) %MON thSI_Tic2_ave_S              =  -3.0927039031999E+00
(PID.TID 0000.0001) %MON thSI_Tic2_ave_N              =  -4.8680453061338E+00
(PID.TID 0000.0001) %MON thSI_Tic2_min_S              =  -8.6974973247319E+00
(PID.TID 0000.0001) %MON thSI_Tic2_min_N              =  -7.5341002436414E+00
(PID.TID 0000.0001) %MON thSI_Tic2_max_S              =  -1.1883317490264E+00
(PID.TID 0000.0001) %MON thSI_Tic2_max_N              =  -1.2098003000351E+00
(PID.TID 0000.0001) %MON thSI_TotEnerg_G              =  -3.8126519073525E+22
(PID.TID 0000.0001) // =======================================================
(PID.TID 0000.0001) // End MONITOR Therm.SeaIce statistics
(PID.TID 0000.0001) // =======================================================
 cg2d: Sum(rhs),rhsMax =   3.91464684334993E+02  2.29415843069631E+02
(PID.TID 0000.0001)                    cg2d_init_res =    3.32097632146683E+00
(PID.TID 0000.0001)                       cg2d_iters =    67
(PID.TID 0000.0001)                         cg2d_res =    5.58497136618731E-07
(PID.TID 0000.0001) // =======================================================
(PID.TID 0000.0001) // Begin MONITOR dynamic field statistics
(PID.TID 0000.0001) // =======================================================
(PID.TID 0000.0001) %MON time_tsnumber                =                 36005
(PID.TID 0000.0001) %MON time_secondsf                =   3.1108320000000E+09
(PID.TID 0000.0001) %MON dynstat_eta_max              =   7.2890681292899E-01
(PID.TID 0000.0001) %MON dynstat_eta_min              =  -1.1979604066709E+01
(PID.TID 0000.0001) %MON dynstat_eta_mean             =  -5.8224227010996E-01
(PID.TID 0000.0001) %MON dynstat_eta_sd               =   1.7024609847232E+00
(PID.TID 0000.0001) %MON dynstat_eta_del2             =   2.1226410257466E-02
(PID.TID 0000.0001) %MON dynstat_uvel_max             =   1.7422409787436E-01
(PID.TID 0000.0001) %MON dynstat_uvel_min             =  -2.6976679326141E-01
(PID.TID 0000.0001) %MON dynstat_uvel_mean            =  -5.2669522207994E-04
(PID.TID 0000.0001) %MON dynstat_uvel_sd              =   1.2984314315091E-02
(PID.TID 0000.0001) %MON dynstat_uvel_del2            =   5.8733263832756E-05
(PID.TID 0000.0001) %MON dynstat_vvel_max             =   1.9488639024524E-01
(PID.TID 0000.0001) %MON dynstat_vvel_min             =  -2.1100894209751E-01
(PID.TID 0000.0001) %MON dynstat_vvel_mean            =  -4.2379919086165E-04
(PID.TID 0000.0001) %MON dynstat_vvel_sd              =   1.3480489249256E-02
(PID.TID 0000.0001) %MON dynstat_vvel_del2            =   5.6192949048934E-05
(PID.TID 0000.0001) %MON dynstat_wvel_max             =   8.4614302458593E-05
(PID.TID 0000.0001) %MON dynstat_wvel_min             =  -1.7810860499615E-04
(PID.TID 0000.0001) %MON dynstat_wvel_mean            =  -9.8426246410208E-10
(PID.TID 0000.0001) %MON dynstat_wvel_sd              =   4.6236585157975E-06
(PID.TID 0000.0001) %MON dynstat_wvel_del2            =   4.0333789348411E-08
(PID.TID 0000.0001) %MON dynstat_theta_max            =   3.0063765078410E+01
(PID.TID 0000.0001) %MON dynstat_theta_min            =  -3.3449481143791E+00
(PID.TID 0000.0001) %MON dynstat_theta_mean           =   3.5030821840120E+00
(PID.TID 0000.0001) %MON dynstat_theta_sd             =   4.7491821750892E+00
(PID.TID 0000.0001) %MON dynstat_theta_del2           =   2.9459752323403E-03
(PID.TID 0000.0001) %MON dynstat_salt_max             =   4.0827295711163E+01
(PID.TID 0000.0001) %MON dynstat_salt_min             =   1.8033189969194E+01
(PID.TID 0000.0001) %MON dynstat_salt_mean            =   3.4756111156155E+01
(PID.TID 0000.0001) %MON dynstat_salt_sd              =   5.1184894347068E-01
(PID.TID 0000.0001) %MON dynstat_salt_del2            =   8.3892298293261E-04
(PID.TID 0000.0001) %MON forcing_qnet_max             =   7.8364482968552E+02
(PID.TID 0000.0001) %MON forcing_qnet_min             =  -1.0231698430124E+03
(PID.TID 0000.0001) %MON forcing_qnet_mean            =  -5.6995938836660E+00
(PID.TID 0000.0001) %MON forcing_qnet_sd              =   1.2200946387702E+02
(PID.TID 0000.0001) %MON forcing_qnet_del2            =   1.1892905074423E+00
(PID.TID 0000.0001) %MON forcing_qsw_max              =  -0.0000000000000E+00
(PID.TID 0000.0001) %MON forcing_qsw_min              =  -3.4114045060289E+02
(PID.TID 0000.0001) %MON forcing_qsw_mean             =  -1.8652562702427E+02
(PID.TID 0000.0001) %MON forcing_qsw_sd               =   8.0373065954906E+01
(PID.TID 0000.0001) %MON forcing_qsw_del2             =   6.7314667359036E-01
(PID.TID 0000.0001) %MON forcing_empmr_max            =   3.0282769027325E-03
(PID.TID 0000.0001) %MON forcing_empmr_min            =  -3.7599814481767E-04
(PID.TID 0000.0001) %MON forcing_empmr_mean           =   1.1574669412736E-06
(PID.TID 0000.0001) %MON forcing_empmr_sd             =   7.5102876183886E-05
(PID.TID 0000.0001) %MON forcing_empmr_del2           =   2.0761259738765E-06
(PID.TID 0000.0001) %MON forcing_fu_max               =   2.4741393863310E-01
(PID.TID 0000.0001) %MON forcing_fu_min               =  -2.1551509637860E-01
(PID.TID 0000.0001) %MON forcing_fu_mean              =  -4.3739649219290E-03
(PID.TID 0000.0001) %MON forcing_fu_sd                =   6.4057227278753E-02
(PID.TID 0000.0001) %MON forcing_fu_del2              =   2.0714462929353E-04
(PID.TID 0000.0001) %MON forcing_fv_max               =   2.6354394672640E-01
(PID.TID 0000.0001) %MON forcing_fv_min               =  -3.3007153975572E-01
(PID.TID 0000.0001) %MON forcing_fv_mean              =  -1.3700203702567E-02
(PID.TID 0000.0001) %MON forcing_fv_sd                =   7.5373226864996E-02
(PID.TID 0000.0001) %MON forcing_fv_del2              =   2.3568352349763E-04
(PID.TID 0000.0001) %MON advcfl_uvel_max              =   7.6510979690671E-02
(PID.TID 0000.0001) %MON advcfl_vvel_max              =   8.4948231906690E-02
(PID.TID 0000.0001) %MON advcfl_wvel_max              =   5.8070126308180E-02
(PID.TID 0000.0001) %MON advcfl_W_hf_max              =   6.4157333978968E-02
(PID.TID 0000.0001) %MON pe_b_mean                    =  -1.9317608591373E-03
(PID.TID 0000.0001) %MON ke_max                       =   3.6375236009244E-02
(PID.TID 0000.0001) %MON ke_mean                      =   1.6197234534277E-04
(PID.TID 0000.0001) %MON ke_vol                       =   1.3395906102826E+18
(PID.TID 0000.0001) %MON vort_r_min                   =  -1.2290590376695E-06
(PID.TID 0000.0001) %MON vort_r_max                   =   1.3795013517681E-06
(PID.TID 0000.0001) %MON vort_a_mean                  =  -2.0549865324846E-05
(PID.TID 0000.0001) %MON vort_a_sd                    =   7.5259582744004E-05
(PID.TID 0000.0001) %MON vort_p_mean                  =  -2.4787197416595E-05
(PID.TID 0000.0001) %MON vort_p_sd                    =   1.2817299350069E-04
(PID.TID 0000.0001) %MON surfExpan_theta_mean         =   7.7332195251879E-08
(PID.TID 0000.0001) %MON surfExpan_salt_mean          =   1.7649090156800E-08
(PID.TID 0000.0001) // =======================================================
(PID.TID 0000.0001) // End MONITOR dynamic field statistics
(PID.TID 0000.0001) // =======================================================
(PID.TID 0000.0001) // =======================================================
(PID.TID 0000.0001) // Begin MONITOR Therm.SeaIce statistics
(PID.TID 0000.0001) // =======================================================
(PID.TID 0000.0001) %MON thSI_time_sec                =   3.1108320000000E+09
(PID.TID 0000.0001) %MON thSI_Ice_Area_G              =   2.4859276171229E+13
(PID.TID 0000.0001) %MON thSI_Ice_Area_S              =   1.1854624848922E+13
(PID.TID 0000.0001) %MON thSI_Ice_Area_N              =   1.3004651322307E+13
(PID.TID 0000.0001) %MON thSI_IceH_ave_G              =   4.5732841766995E+00
(PID.TID 0000.0001) %MON thSI_IceH_ave_S              =   5.7528419385457E+00
(PID.TID 0000.0001) %MON thSI_IceH_ave_N              =   3.4980369895385E+00
(PID.TID 0000.0001) %MON thSI_IceH_max_S              =   1.0000000000000E+01
(PID.TID 0000.0001) %MON thSI_IceH_max_N              =   1.0000000000000E+01
(PID.TID 0000.0001) %MON thSI_SnwH_ave_G              =   1.0355494735669E+00
(PID.TID 0000.0001) %MON thSI_SnwH_ave_S              =   1.7820857324734E+00
(PID.TID 0000.0001) %MON thSI_SnwH_ave_N              =   3.5503086017849E-01
(PID.TID 0000.0001) %MON thSI_SnwH_max_S              =   4.0938710026367E+00
(PID.TID 0000.0001) %MON thSI_SnwH_max_N              =   4.1023372307863E+00
(PID.TID 0000.0001) %MON thSI_Tsrf_ave_G              =  -1.7061749178620E+01
(PID.TID 0000.0001) %MON thSI_Tsrf_ave_S              =  -1.1189327896779E-01
(PID.TID 0000.0001) %MON thSI_Tsrf_ave_N              =  -3.2512696532280E+01
(PID.TID 0000.0001) %MON thSI_Tsrf_min_S              =  -5.3696273356682E+00
(PID.TID 0000.0001) %MON thSI_Tsrf_min_N              =  -4.6698372852912E+01
(PID.TID 0000.0001) %MON thSI_Tsrf_max_S              =   0.0000000000000E+00
(PID.TID 0000.0001) %MON thSI_Tsrf_max_N              =  -1.6927925648048E+00
(PID.TID 0000.0001) %MON thSI_Tic1_ave_G              =  -8.4392077805066E+00
(PID.TID 0000.0001) %MON thSI_Tic1_ave_S              =  -5.0679038527193E+00
(PID.TID 0000.0001) %MON thSI_Tic1_ave_N              =  -1.3493322008163E+01
(PID.TID 0000.0001) %MON thSI_Tic1_min_S              =  -1.5909889479423E+01
(PID.TID 0000.0001) %MON thSI_Tic1_min_N              =  -2.0951035713673E+01
(PID.TID 0000.0001) %MON thSI_Tic1_max_S              =  -2.0069592765193E-01
(PID.TID 0000.0001) %MON thSI_Tic1_max_N              =  -6.8868211525855E-01
(PID.TID 0000.0001) %MON thSI_Tic2_ave_G              =  -3.8125609439509E+00
(PID.TID 0000.0001) %MON thSI_Tic2_ave_S              =  -3.0888481624762E+00
(PID.TID 0000.0001) %MON thSI_Tic2_ave_N              =  -4.8975201003890E+00
(PID.TID 0000.0001) %MON thSI_Tic2_min_S              =  -8.6709856290093E+00
(PID.TID 0000.0001) %MON thSI_Tic2_min_N              =  -7.5697097301817E+00
(PID.TID 0000.0001) %MON thSI_Tic2_max_S              =  -1.1884072020758E+00
(PID.TID 0000.0001) %MON thSI_Tic2_max_N              =  -1.2242243277759E+00
(PID.TID 0000.0001) %MON thSI_TotEnerg_G              =  -3.8135387687121E+22
(PID.TID 0000.0001) // =======================================================
(PID.TID 0000.0001) // End MONITOR Therm.SeaIce statistics
(PID.TID 0000.0001) // =======================================================
 cg2d: Sum(rhs),rhsMax =   3.91499407618689E+02  2.29487198217044E+02
(PID.TID 0000.0001)                    cg2d_init_res =    2.92897091813487E+00
(PID.TID 0000.0001)                       cg2d_iters =    67
(PID.TID 0000.0001)                         cg2d_res =    5.52939183479604E-07
(PID.TID 0000.0001) // =======================================================
(PID.TID 0000.0001) // Begin MONITOR dynamic field statistics
(PID.TID 0000.0001) // =======================================================
(PID.TID 0000.0001) %MON time_tsnumber                =                 36006
(PID.TID 0000.0001) %MON time_secondsf                =   3.1109184000000E+09
(PID.TID 0000.0001) %MON dynstat_eta_max              =   7.2774338669258E-01
(PID.TID 0000.0001) %MON dynstat_eta_min              =  -1.1977591659910E+01
(PID.TID 0000.0001) %MON dynstat_eta_mean             =  -5.8229391554397E-01
(PID.TID 0000.0001) %MON dynstat_eta_sd               =   1.7020417777615E+00
(PID.TID 0000.0001) %MON dynstat_eta_del2             =   2.1247541957359E-02
(PID.TID 0000.0001) %MON dynstat_uvel_max             =   1.7440136310914E-01
(PID.TID 0000.0001) %MON dynstat_uvel_min             =  -2.6939362810533E-01
(PID.TID 0000.0001) %MON dynstat_uvel_mean            =  -5.2611418104018E-04
(PID.TID 0000.0001) %MON dynstat_uvel_sd              =   1.2982438731041E-02
(PID.TID 0000.0001) %MON dynstat_uvel_del2            =   5.8708286198098E-05
(PID.TID 0000.0001) %MON dynstat_vvel_max             =   1.9505814597241E-01
(PID.TID 0000.0001) %MON dynstat_vvel_min             =  -2.1108931301267E-01
(PID.TID 0000.0001) %MON dynstat_vvel_mean            =  -4.2330017164161E-04
(PID.TID 0000.0001) %MON dynstat_vvel_sd              =   1.3481279915117E-02
(PID.TID 0000.0001) %MON dynstat_vvel_del2            =   5.6153260274843E-05
(PID.TID 0000.0001) %MON dynstat_wvel_max             =   8.5348942330834E-05
(PID.TID 0000.0001) %MON dynstat_wvel_min             =  -1.7821510534710E-04
(PID.TID 0000.0001) %MON dynstat_wvel_mean            =  -1.0976019212687E-09
(PID.TID 0000.0001) %MON dynstat_wvel_sd              =   4.6230663056738E-06
(PID.TID 0000.0001) %MON dynstat_wvel_del2            =   4.0336638819912E-08
(PID.TID 0000.0001) %MON dynstat_theta_max            =   3.0042876824002E+01
(PID.TID 0000.0001) %MON dynstat_theta_min            =  -3.3414282692797E+00
(PID.TID 0000.0001) %MON dynstat_theta_mean           =   3.5031477057033E+00
(PID.TID 0000.0001) %MON dynstat_theta_sd             =   4.7492600702079E+00
(PID.TID 0000.0001) %MON dynstat_theta_del2           =   2.9486978713049E-03
(PID.TID 0000.0001) %MON dynstat_salt_max             =   4.0829229743325E+01
(PID.TID 0000.0001) %MON dynstat_salt_min             =   1.8033757051012E+01
(PID.TID 0000.0001) %MON dynstat_salt_mean            =   3.4756112400988E+01
(PID.TID 0000.0001) %MON dynstat_salt_sd              =   5.1183999739758E-01
(PID.TID 0000.0001) %MON dynstat_salt_del2            =   8.3892914739809E-04
(PID.TID 0000.0001) %MON forcing_qnet_max             =   7.8711925866961E+02
(PID.TID 0000.0001) %MON forcing_qnet_min             =  -6.0486493769289E+02
(PID.TID 0000.0001) %MON forcing_qnet_mean            =  -5.7670352516007E+00
(PID.TID 0000.0001) %MON forcing_qnet_sd              =   1.2106228163847E+02
(PID.TID 0000.0001) %MON forcing_qnet_del2            =   1.1134906078204E+00
(PID.TID 0000.0001) %MON forcing_qsw_max              =  -0.0000000000000E+00
(PID.TID 0000.0001) %MON forcing_qsw_min              =  -3.4093640795569E+02
(PID.TID 0000.0001) %MON forcing_qsw_mean             =  -1.8653698843333E+02
(PID.TID 0000.0001) %MON forcing_qsw_sd               =   8.0234998735539E+01
(PID.TID 0000.0001) %MON forcing_qsw_del2             =   6.7110784977734E-01
(PID.TID 0000.0001) %MON forcing_empmr_max            =   1.7900213910895E-03
(PID.TID 0000.0001) %MON forcing_empmr_min            =  -3.6484175422527E-04
(PID.TID 0000.0001) %MON forcing_empmr_mean           =   6.1866926168019E-07
(PID.TID 0000.0001) %MON forcing_empmr_sd             =   6.2707843278933E-05
(PID.TID 0000.0001) %MON forcing_empmr_del2           =   1.5687472978895E-06
(PID.TID 0000.0001) %MON forcing_fu_max               =   2.4736588936290E-01
(PID.TID 0000.0001) %MON forcing_fu_min               =  -2.1866089303695E-01
(PID.TID 0000.0001) %MON forcing_fu_mean              =  -4.3304859861956E-03
(PID.TID 0000.0001) %MON forcing_fu_sd                =   6.4120753845867E-02
(PID.TID 0000.0001) %MON forcing_fu_del2              =   2.0825059330114E-04
(PID.TID 0000.0001) %MON forcing_fv_max               =   2.6622718829904E-01
(PID.TID 0000.0001) %MON forcing_fv_min               =  -3.3085944368965E-01
(PID.TID 0000.0001) %MON forcing_fv_mean              =  -1.3704129248494E-02
(PID.TID 0000.0001) %MON forcing_fv_sd                =   7.5453902771370E-02
(PID.TID 0000.0001) %MON forcing_fv_del2              =   2.3667008926707E-04
(PID.TID 0000.0001) %MON advcfl_uvel_max              =   7.6405142973951E-02
(PID.TID 0000.0001) %MON advcfl_vvel_max              =   8.5023097808434E-02
(PID.TID 0000.0001) %MON advcfl_wvel_max              =   5.8104849441471E-02
(PID.TID 0000.0001) %MON advcfl_W_hf_max              =   6.4189491076931E-02
(PID.TID 0000.0001) %MON pe_b_mean                    =  -1.9315100138425E-03
(PID.TID 0000.0001) %MON ke_max                       =   3.6258217139798E-02
(PID.TID 0000.0001) %MON ke_mean                      =   1.6195939414723E-04
(PID.TID 0000.0001) %MON ke_vol                       =   1.3395905751226E+18
(PID.TID 0000.0001) %MON vort_r_min                   =  -1.2335297853378E-06
(PID.TID 0000.0001) %MON vort_r_max                   =   1.3828222797323E-06
(PID.TID 0000.0001) %MON vort_a_mean                  =  -2.0549865324846E-05
(PID.TID 0000.0001) %MON vort_a_sd                    =   7.5259582657991E-05
(PID.TID 0000.0001) %MON vort_p_mean                  =  -2.4787197542056E-05
(PID.TID 0000.0001) %MON vort_p_sd                    =   1.2817300431838E-04
(PID.TID 0000.0001) %MON surfExpan_theta_mean         =   7.8574529478509E-08
(PID.TID 0000.0001) %MON surfExpan_salt_mean          =   1.8270703060942E-08
(PID.TID 0000.0001) // =======================================================
(PID.TID 0000.0001) // End MONITOR dynamic field statistics
(PID.TID 0000.0001) // =======================================================
(PID.TID 0000.0001) // =======================================================
(PID.TID 0000.0001) // Begin MONITOR Therm.SeaIce statistics
(PID.TID 0000.0001) // =======================================================
(PID.TID 0000.0001) %MON thSI_time_sec                =   3.1109184000000E+09
(PID.TID 0000.0001) %MON thSI_Ice_Area_G              =   2.4886508325370E+13
(PID.TID 0000.0001) %MON thSI_Ice_Area_S              =   1.1812503707868E+13
(PID.TID 0000.0001) %MON thSI_Ice_Area_N              =   1.3074004617502E+13
(PID.TID 0000.0001) %MON thSI_IceH_ave_G              =   4.5697963412306E+00
(PID.TID 0000.0001) %MON thSI_IceH_ave_S              =   5.7665676927030E+00
(PID.TID 0000.0001) %MON thSI_IceH_ave_N              =   3.4885005607615E+00
(PID.TID 0000.0001) %MON thSI_IceH_max_S              =   1.0000000000000E+01
(PID.TID 0000.0001) %MON thSI_IceH_max_N              =   1.0000000000000E+01
(PID.TID 0000.0001) %MON thSI_SnwH_ave_G              =   1.0302349545794E+00
(PID.TID 0000.0001) %MON thSI_SnwH_ave_S              =   1.7764038244584E+00
(PID.TID 0000.0001) %MON thSI_SnwH_ave_N              =   3.5606335987595E-01
(PID.TID 0000.0001) %MON thSI_SnwH_max_S              =   4.0937744614570E+00
(PID.TID 0000.0001) %MON thSI_SnwH_max_N              =   4.1025407763647E+00
(PID.TID 0000.0001) %MON thSI_Tsrf_ave_G              =  -1.7163466506090E+01
(PID.TID 0000.0001) %MON thSI_Tsrf_ave_S              =  -1.3314523146224E-01
(PID.TID 0000.0001) %MON thSI_Tsrf_ave_N              =  -3.2550544841172E+01
(PID.TID 0000.0001) %MON thSI_Tsrf_min_S              =  -5.3858531482056E+00
(PID.TID 0000.0001) %MON thSI_Tsrf_min_N              =  -4.6813002184244E+01
(PID.TID 0000.0001) %MON thSI_Tsrf_max_S              =   0.0000000000000E+00
(PID.TID 0000.0001) %MON thSI_Tsrf_max_N              =  -7.3479178896988E+00
(PID.TID 0000.0001) %MON thSI_Tic1_ave_G              =  -8.4607719405597E+00
(PID.TID 0000.0001) %MON thSI_Tic1_ave_S              =  -5.0419380194213E+00
(PID.TID 0000.0001) %MON thSI_Tic1_ave_N              =  -1.3566879107206E+01
(PID.TID 0000.0001) %MON thSI_Tic1_min_S              =  -1.5764668044556E+01
(PID.TID 0000.0001) %MON thSI_Tic1_min_N              =  -2.1020816476159E+01
(PID.TID 0000.0001) %MON thSI_Tic1_max_S              =  -1.9066091984374E-01
(PID.TID 0000.0001) %MON thSI_Tic1_max_N              =  -7.0517891315355E-01
(PID.TID 0000.0001) %MON thSI_Tic2_ave_G              =  -3.8241901021066E+00
(PID.TID 0000.0001) %MON thSI_Tic2_ave_S              =  -3.0850023138387E+00
(PID.TID 0000.0001) %MON thSI_Tic2_ave_N              =  -4.9281840808242E+00
(PID.TID 0000.0001) %MON thSI_Tic2_min_S              =  -8.6430485045721E+00
(PID.TID 0000.0001) %MON thSI_Tic2_min_N              =  -7.6042061906688E+00
(PID.TID 0000.0001) %MON thSI_Tic2_max_S              =  -1.1904793155221E+00
(PID.TID 0000.0001) %MON thSI_Tic2_max_N              =  -1.2394023823757E+00
(PID.TID 0000.0001) %MON thSI_TotEnerg_G              =  -3.8138775025651E+22
(PID.TID 0000.0001) // =======================================================
(PID.TID 0000.0001) // End MONITOR Therm.SeaIce statistics
(PID.TID 0000.0001) // =======================================================
 cg2d: Sum(rhs),rhsMax =   3.91509297222492E+02  2.29566698430078E+02
(PID.TID 0000.0001)                    cg2d_init_res =    2.77965884895296E+00
(PID.TID 0000.0001)                       cg2d_iters =    68
(PID.TID 0000.0001)                         cg2d_res =    5.36088828903311E-07
(PID.TID 0000.0001) // =======================================================
(PID.TID 0000.0001) // Begin MONITOR dynamic field statistics
(PID.TID 0000.0001) // =======================================================
(PID.TID 0000.0001) %MON time_tsnumber                =                 36007
(PID.TID 0000.0001) %MON time_secondsf                =   3.1110048000000E+09
(PID.TID 0000.0001) %MON dynstat_eta_max              =   7.2655174601428E-01
(PID.TID 0000.0001) %MON dynstat_eta_min              =  -1.1975499478975E+01
(PID.TID 0000.0001) %MON dynstat_eta_mean             =  -5.8230862477727E-01
(PID.TID 0000.0001) %MON dynstat_eta_sd               =   1.7015447107648E+00
(PID.TID 0000.0001) %MON dynstat_eta_del2             =   2.1263285270775E-02
(PID.TID 0000.0001) %MON dynstat_uvel_max             =   1.7451052652463E-01
(PID.TID 0000.0001) %MON dynstat_uvel_min             =  -2.6900862111964E-01
(PID.TID 0000.0001) %MON dynstat_uvel_mean            =  -5.2557746617453E-04
(PID.TID 0000.0001) %MON dynstat_uvel_sd              =   1.2980438384365E-02
(PID.TID 0000.0001) %MON dynstat_uvel_del2            =   5.8683108917509E-05
(PID.TID 0000.0001) %MON dynstat_vvel_max             =   1.9516646725869E-01
(PID.TID 0000.0001) %MON dynstat_vvel_min             =  -2.1116269833282E-01
(PID.TID 0000.0001) %MON dynstat_vvel_mean            =  -4.2266492485912E-04
(PID.TID 0000.0001) %MON dynstat_vvel_sd              =   1.3481722312011E-02
(PID.TID 0000.0001) %MON dynstat_vvel_del2            =   5.6114961343228E-05
(PID.TID 0000.0001) %MON dynstat_wvel_max             =   8.6107233909637E-05
(PID.TID 0000.0001) %MON dynstat_wvel_min             =  -1.7826799941972E-04
(PID.TID 0000.0001) %MON dynstat_wvel_mean            =  -1.1668819704194E-09
(PID.TID 0000.0001) %MON dynstat_wvel_sd              =   4.6225102263581E-06
(PID.TID 0000.0001) %MON dynstat_wvel_del2            =   4.0337458717576E-08
(PID.TID 0000.0001) %MON dynstat_theta_max            =   3.0021802048657E+01
(PID.TID 0000.0001) %MON dynstat_theta_min            =  -3.3488689733355E+00
(PID.TID 0000.0001) %MON dynstat_theta_mean           =   3.5032138058379E+00
(PID.TID 0000.0001) %MON dynstat_theta_sd             =   4.7493469843194E+00
(PID.TID 0000.0001) %MON dynstat_theta_del2           =   2.9518636745365E-03
(PID.TID 0000.0001) %MON dynstat_salt_max             =   4.0831024834176E+01
(PID.TID 0000.0001) %MON dynstat_salt_min             =   1.8034317400091E+01
(PID.TID 0000.0001) %MON dynstat_salt_mean            =   3.4756113372676E+01
(PID.TID 0000.0001) %MON dynstat_salt_sd              =   5.1183253054356E-01
(PID.TID 0000.0001) %MON dynstat_salt_del2            =   8.3912265362257E-04
(PID.TID 0000.0001) %MON forcing_qnet_max             =   7.9038456668651E+02
(PID.TID 0000.0001) %MON forcing_qnet_min             =  -3.6658224186914E+02
(PID.TID 0000.0001) %MON forcing_qnet_mean            =  -5.8071040373559E+00
(PID.TID 0000.0001) %MON forcing_qnet_sd              =   1.2059615685668E+02
(PID.TID 0000.0001) %MON forcing_qnet_del2            =   1.0630450047630E+00
(PID.TID 0000.0001) %MON forcing_qsw_max              =  -0.0000000000000E+00
(PID.TID 0000.0001) %MON forcing_qsw_min              =  -3.4073236530849E+02
(PID.TID 0000.0001) %MON forcing_qsw_mean             =  -1.8655107526619E+02
(PID.TID 0000.0001) %MON forcing_qsw_sd               =   8.0098441968896E+01
(PID.TID 0000.0001) %MON forcing_qsw_del2             =   6.6999148226222E-01
(PID.TID 0000.0001) %MON forcing_empmr_max            =   1.0846852335446E-03
(PID.TID 0000.0001) %MON forcing_empmr_min            =  -3.5175627072566E-04
(PID.TID 0000.0001) %MON forcing_empmr_mean           =   1.7620435717364E-07
(PID.TID 0000.0001) %MON forcing_empmr_sd             =   5.5235346001753E-05
(PID.TID 0000.0001) %MON forcing_empmr_del2           =   1.1727819337975E-06
(PID.TID 0000.0001) %MON forcing_fu_max               =   2.4731784009269E-01
(PID.TID 0000.0001) %MON forcing_fu_min               =  -2.2180668969530E-01
(PID.TID 0000.0001) %MON forcing_fu_mean              =  -4.2870070504621E-03
(PID.TID 0000.0001) %MON forcing_fu_sd                =   6.4197640910106E-02
(PID.TID 0000.0001) %MON forcing_fu_del2              =   2.0958789804308E-04
(PID.TID 0000.0001) %MON forcing_fv_max               =   2.6891042987167E-01
(PID.TID 0000.0001) %MON forcing_fv_min               =  -3.3164734762358E-01
(PID.TID 0000.0001) %MON forcing_fv_mean              =  -1.3708054794422E-02
(PID.TID 0000.0001) %MON forcing_fv_sd                =   7.5544817904543E-02
(PID.TID 0000.0001) %MON forcing_fv_del2              =   2.3785256950118E-04
(PID.TID 0000.0001) %MON advcfl_uvel_max              =   7.6295947689734E-02
(PID.TID 0000.0001) %MON advcfl_vvel_max              =   8.5070313531068E-02
(PID.TID 0000.0001) %MON advcfl_wvel_max              =   5.8122094905147E-02
(PID.TID 0000.0001) %MON advcfl_W_hf_max              =   6.4208557283339E-02
(PID.TID 0000.0001) %MON pe_b_mean                    =  -1.9308648057314E-03
(PID.TID 0000.0001) %MON ke_max                       =   3.6138673439951E-02
(PID.TID 0000.0001) %MON ke_mean                      =   1.6194057222906E-04
(PID.TID 0000.0001) %MON ke_vol                       =   1.3395905563296E+18
(PID.TID 0000.0001) %MON vort_r_min                   =  -1.2381845512428E-06
(PID.TID 0000.0001) %MON vort_r_max                   =   1.3862365782034E-06
(PID.TID 0000.0001) %MON vort_a_mean                  =  -2.0549865324846E-05
(PID.TID 0000.0001) %MON vort_a_sd                    =   7.5259582585218E-05
(PID.TID 0000.0001) %MON vort_p_mean                  =  -2.4787197428633E-05
(PID.TID 0000.0001) %MON vort_p_sd                    =   1.2817300951655E-04
(PID.TID 0000.0001) %MON surfExpan_theta_mean         =   7.9593287171036E-08
(PID.TID 0000.0001) %MON surfExpan_salt_mean          =   1.8724823264992E-08
(PID.TID 0000.0001) // =======================================================
(PID.TID 0000.0001) // End MONITOR dynamic field statistics
(PID.TID 0000.0001) // =======================================================
(PID.TID 0000.0001) // =======================================================
(PID.TID 0000.0001) // Begin MONITOR Therm.SeaIce statistics
(PID.TID 0000.0001) // =======================================================
(PID.TID 0000.0001) %MON thSI_time_sec                =   3.1110048000000E+09
(PID.TID 0000.0001) %MON thSI_Ice_Area_G              =   2.4923227519730E+13
(PID.TID 0000.0001) %MON thSI_Ice_Area_S              =   1.1771753835262E+13
(PID.TID 0000.0001) %MON thSI_Ice_Area_N              =   1.3151473684468E+13
(PID.TID 0000.0001) %MON thSI_IceH_ave_G              =   4.5639506409601E+00
(PID.TID 0000.0001) %MON thSI_IceH_ave_S              =   5.7796910955832E+00
(PID.TID 0000.0001) %MON thSI_IceH_ave_N              =   3.4757534014147E+00
(PID.TID 0000.0001) %MON thSI_IceH_max_S              =   1.0000000000000E+01
(PID.TID 0000.0001) %MON thSI_IceH_max_N              =   1.0000000000000E+01
(PID.TID 0000.0001) %MON thSI_SnwH_ave_G              =   1.0246882514870E+00
(PID.TID 0000.0001) %MON thSI_SnwH_ave_S              =   1.7707514266449E+00
(PID.TID 0000.0001) %MON thSI_SnwH_ave_N              =   3.5689449283898E-01
(PID.TID 0000.0001) %MON thSI_SnwH_max_S              =   4.0936809948724E+00
(PID.TID 0000.0001) %MON thSI_SnwH_max_N              =   4.1027637677104E+00
(PID.TID 0000.0001) %MON thSI_Tsrf_ave_G              =  -1.7216886154106E+01
(PID.TID 0000.0001) %MON thSI_Tsrf_ave_S              =  -1.1521197797147E-01
(PID.TID 0000.0001) %MON thSI_Tsrf_ave_N              =  -3.2524425324417E+01
(PID.TID 0000.0001) %MON thSI_Tsrf_min_S              =  -5.4020394711953E+00
(PID.TID 0000.0001) %MON thSI_Tsrf_min_N              =  -4.6927730881621E+01
(PID.TID 0000.0001) %MON thSI_Tsrf_max_S              =   0.0000000000000E+00
(PID.TID 0000.0001) %MON thSI_Tsrf_max_N              =  -1.8883339903316E+00
(PID.TID 0000.0001) %MON thSI_Tic1_ave_G              =  -8.4847451545474E+00
(PID.TID 0000.0001) %MON thSI_Tic1_ave_S              =  -5.0214278644350E+00
(PID.TID 0000.0001) %MON thSI_Tic1_ave_N              =  -1.3639579383095E+01
(PID.TID 0000.0001) %MON thSI_Tic1_min_S              =  -1.5621093584117E+01
(PID.TID 0000.0001) %MON thSI_Tic1_min_N              =  -2.1088252258166E+01
(PID.TID 0000.0001) %MON thSI_Tic1_max_S              =  -1.8291420747796E-01
(PID.TID 0000.0001) %MON thSI_Tic1_max_N              =  -7.2239286793594E-01
(PID.TID 0000.0001) %MON thSI_Tic2_ave_G              =  -3.8354810112365E+00
(PID.TID 0000.0001) %MON thSI_Tic2_ave_S              =  -3.0811513533865E+00
(PID.TID 0000.0001) %MON thSI_Tic2_ave_N              =  -4.9582324123268E+00
(PID.TID 0000.0001) %MON thSI_Tic2_min_S              =  -8.6149136366392E+00
(PID.TID 0000.0001) %MON thSI_Tic2_min_N              =  -7.6376221830648E+00
(PID.TID 0000.0001) %MON thSI_Tic2_max_S              =  -1.1941113592967E+00
(PID.TID 0000.0001) %MON thSI_Tic2_max_N              =  -1.2550510991444E+00
(PID.TID 0000.0001) %MON thSI_TotEnerg_G              =  -3.8137948908016E+22
(PID.TID 0000.0001) // =======================================================
(PID.TID 0000.0001) // End MONITOR Therm.SeaIce statistics
(PID.TID 0000.0001) // =======================================================
 cg2d: Sum(rhs),rhsMax =   3.91503768623070E+02  2.29653736900058E+02
(PID.TID 0000.0001)                    cg2d_init_res =    2.70203148484498E+00
(PID.TID 0000.0001)                       cg2d_iters =    69
(PID.TID 0000.0001)                         cg2d_res =    5.11577335738897E-07
(PID.TID 0000.0001) // =======================================================
(PID.TID 0000.0001) // Begin MONITOR dynamic field statistics
(PID.TID 0000.0001) // =======================================================
(PID.TID 0000.0001) %MON time_tsnumber                =                 36008
(PID.TID 0000.0001) %MON time_secondsf                =   3.1110912000000E+09
(PID.TID 0000.0001) %MON dynstat_eta_max              =   7.2531873118639E-01
(PID.TID 0000.0001) %MON dynstat_eta_min              =  -1.1973319578344E+01
(PID.TID 0000.0001) %MON dynstat_eta_mean             =  -5.8230040185345E-01
(PID.TID 0000.0001) %MON dynstat_eta_sd               =   1.7010267589623E+00
(PID.TID 0000.0001) %MON dynstat_eta_del2             =   2.1276522122115E-02
(PID.TID 0000.0001) %MON dynstat_uvel_max             =   1.7455221937551E-01
(PID.TID 0000.0001) %MON dynstat_uvel_min             =  -2.6861149336031E-01
(PID.TID 0000.0001) %MON dynstat_uvel_mean            =  -5.2508413735098E-04
(PID.TID 0000.0001) %MON dynstat_uvel_sd              =   1.2978388120682E-02
(PID.TID 0000.0001) %MON dynstat_uvel_del2            =   5.8658040502310E-05
(PID.TID 0000.0001) %MON dynstat_vvel_max             =   1.9521111920796E-01
(PID.TID 0000.0001) %MON dynstat_vvel_min             =  -2.1122941163268E-01
(PID.TID 0000.0001) %MON dynstat_vvel_mean            =  -4.2193417761524E-04
(PID.TID 0000.0001) %MON dynstat_vvel_sd              =   1.3481775601670E-02
(PID.TID 0000.0001) %MON dynstat_vvel_del2            =   5.6078030979900E-05
(PID.TID 0000.0001) %MON dynstat_wvel_max             =   8.6876977669111E-05
(PID.TID 0000.0001) %MON dynstat_wvel_min             =  -1.7827057529016E-04
(PID.TID 0000.0001) %MON dynstat_wvel_mean            =  -1.1946867500248E-09
(PID.TID 0000.0001) %MON dynstat_wvel_sd              =   4.6220873878842E-06
(PID.TID 0000.0001) %MON dynstat_wvel_del2            =   4.0338023837694E-08
(PID.TID 0000.0001) %MON dynstat_theta_max            =   3.0000605634138E+01
(PID.TID 0000.0001) %MON dynstat_theta_min            =  -3.3670710277112E+00
(PID.TID 0000.0001) %MON dynstat_theta_mean           =   3.5032806756364E+00
(PID.TID 0000.0001) %MON dynstat_theta_sd             =   4.7494424964163E+00
(PID.TID 0000.0001) %MON dynstat_theta_del2           =   2.9553710158402E-03
(PID.TID 0000.0001) %MON dynstat_salt_max             =   4.0832684299105E+01
(PID.TID 0000.0001) %MON dynstat_salt_min             =   1.8034875180377E+01
(PID.TID 0000.0001) %MON dynstat_salt_mean            =   3.4756114166606E+01
(PID.TID 0000.0001) %MON dynstat_salt_sd              =   5.1182559672501E-01
(PID.TID 0000.0001) %MON dynstat_salt_del2            =   8.3945736322431E-04
(PID.TID 0000.0001) %MON forcing_qnet_max             =   7.9361545319753E+02
(PID.TID 0000.0001) %MON forcing_qnet_min             =  -2.3631242929674E+02
(PID.TID 0000.0001) %MON forcing_qnet_mean            =  -5.8817586704126E+00
(PID.TID 0000.0001) %MON forcing_qnet_sd              =   1.2044935518654E+02
(PID.TID 0000.0001) %MON forcing_qnet_del2            =   1.0527159003843E+00
(PID.TID 0000.0001) %MON forcing_qsw_max              =  -0.0000000000000E+00
(PID.TID 0000.0001) %MON forcing_qsw_min              =  -3.4052832266130E+02
(PID.TID 0000.0001) %MON forcing_qsw_mean             =  -1.8656786752218E+02
(PID.TID 0000.0001) %MON forcing_qsw_sd               =   7.9956857982180E+01
(PID.TID 0000.0001) %MON forcing_qsw_del2             =   6.6740856327453E-01
(PID.TID 0000.0001) %MON forcing_empmr_max            =   7.7364662397364E-04
(PID.TID 0000.0001) %MON forcing_empmr_min            =  -3.3749339523291E-04
(PID.TID 0000.0001) %MON forcing_empmr_mean           =  -9.8503774950141E-08
(PID.TID 0000.0001) %MON forcing_empmr_sd             =   5.2342343064608E-05
(PID.TID 0000.0001) %MON forcing_empmr_del2           =   1.0366783585396E-06
(PID.TID 0000.0001) %MON forcing_fu_max               =   2.4726979082249E-01
(PID.TID 0000.0001) %MON forcing_fu_min               =  -2.2495248635365E-01
(PID.TID 0000.0001) %MON forcing_fu_mean              =  -4.2435281147287E-03
(PID.TID 0000.0001) %MON forcing_fu_sd                =   6.4287840534767E-02
(PID.TID 0000.0001) %MON forcing_fu_del2              =   2.1115214806548E-04
(PID.TID 0000.0001) %MON forcing_fv_max               =   2.7159367144430E-01
(PID.TID 0000.0001) %MON forcing_fv_min               =  -3.3243525155752E-01
(PID.TID 0000.0001) %MON forcing_fv_mean              =  -1.3711980340349E-02
(PID.TID 0000.0001) %MON forcing_fv_sd                =   7.5645935346452E-02
(PID.TID 0000.0001) %MON forcing_fv_del2              =   2.3922805906111E-04
(PID.TID 0000.0001) %MON advcfl_uvel_max              =   7.6183314724195E-02
(PID.TID 0000.0001) %MON advcfl_vvel_max              =   8.5089776686688E-02
(PID.TID 0000.0001) %MON advcfl_wvel_max              =   5.8122934736114E-02
(PID.TID 0000.0001) %MON advcfl_W_hf_max              =   6.4209496264105E-02
(PID.TID 0000.0001) %MON pe_b_mean                    =  -1.9300326567700E-03
(PID.TID 0000.0001) %MON ke_max                       =   3.6016599334840E-02
(PID.TID 0000.0001) %MON ke_mean                      =   1.6191627730202E-04
(PID.TID 0000.0001) %MON ke_vol                       =   1.3395905509771E+18
(PID.TID 0000.0001) %MON vort_r_min                   =  -1.2429946925026E-06
(PID.TID 0000.0001) %MON vort_r_max                   =   1.3896997107874E-06
(PID.TID 0000.0001) %MON vort_a_mean                  =  -2.0549865324846E-05
(PID.TID 0000.0001) %MON vort_a_sd                    =   7.5259582519369E-05
(PID.TID 0000.0001) %MON vort_p_mean                  =  -2.4787197077809E-05
(PID.TID 0000.0001) %MON vort_p_sd                    =   1.2817301200150E-04
(PID.TID 0000.0001) %MON surfExpan_theta_mean         =   8.0187474751627E-08
(PID.TID 0000.0001) %MON surfExpan_salt_mean          =   1.9004918473538E-08
(PID.TID 0000.0001) // =======================================================
(PID.TID 0000.0001) // End MONITOR dynamic field statistics
(PID.TID 0000.0001) // =======================================================
(PID.TID 0000.0001) // =======================================================
(PID.TID 0000.0001) // Begin MONITOR Therm.SeaIce statistics
(PID.TID 0000.0001) // =======================================================
(PID.TID 0000.0001) %MON thSI_time_sec                =   3.1110912000000E+09
(PID.TID 0000.0001) %MON thSI_Ice_Area_G              =   2.4935860689110E+13
(PID.TID 0000.0001) %MON thSI_Ice_Area_S              =   1.1733827298855E+13
(PID.TID 0000.0001) %MON thSI_Ice_Area_N              =   1.3202033390255E+13
(PID.TID 0000.0001) %MON thSI_IceH_ave_G              =   4.5620651410955E+00
(PID.TID 0000.0001) %MON thSI_IceH_ave_S              =   5.7915136848123E+00
(PID.TID 0000.0001) %MON thSI_IceH_ave_N              =   3.4693443110262E+00
(PID.TID 0000.0001) %MON thSI_IceH_max_S              =   1.0000000000000E+01
(PID.TID 0000.0001) %MON thSI_IceH_max_N              =   1.0000000000000E+01
(PID.TID 0000.0001) %MON thSI_SnwH_ave_G              =   1.0204766358466E+00
(PID.TID 0000.0001) %MON thSI_SnwH_ave_S              =   1.7653451700647E+00
(PID.TID 0000.0001) %MON thSI_SnwH_ave_N              =   3.5844538031920E-01
(PID.TID 0000.0001) %MON thSI_SnwH_max_S              =   4.0935945630532E+00
(PID.TID 0000.0001) %MON thSI_SnwH_max_N              =   4.1030063895761E+00
(PID.TID 0000.0001) %MON thSI_Tsrf_ave_G              =  -1.7309541283233E+01
(PID.TID 0000.0001) %MON thSI_Tsrf_ave_S              =  -1.3696061292050E-01
(PID.TID 0000.0001) %MON thSI_Tsrf_ave_N              =  -3.2572348905718E+01
(PID.TID 0000.0001) %MON thSI_Tsrf_min_S              =  -5.4181865571577E+00
(PID.TID 0000.0001) %MON thSI_Tsrf_min_N              =  -4.7042517882980E+01
(PID.TID 0000.0001) %MON thSI_Tsrf_max_S              =   0.0000000000000E+00
(PID.TID 0000.0001) %MON thSI_Tsrf_max_N              =  -8.1883374957074E+00
(PID.TID 0000.0001) %MON thSI_Tic1_ave_G              =  -8.5056499049327E+00
(PID.TID 0000.0001) %MON thSI_Tic1_ave_S              =  -4.9956413723467E+00
(PID.TID 0000.0001) %MON thSI_Tic1_ave_N              =  -1.3713419013367E+01
(PID.TID 0000.0001) %MON thSI_Tic1_min_S              =  -1.5479148947696E+01
(PID.TID 0000.0001) %MON thSI_Tic1_min_N              =  -2.1153429795544E+01
(PID.TID 0000.0001) %MON thSI_Tic1_max_S              =  -1.9879481326283E-01
(PID.TID 0000.0001) %MON thSI_Tic1_max_N              =  -7.4036438429128E-01
(PID.TID 0000.0001) %MON thSI_Tic2_ave_G              =  -3.8467265731302E+00
(PID.TID 0000.0001) %MON thSI_Tic2_ave_S              =  -3.0772609830288E+00
(PID.TID 0000.0001) %MON thSI_Tic2_ave_N              =  -4.9883759716806E+00
(PID.TID 0000.0001) %MON thSI_Tic2_min_S              =  -8.5854002809849E+00
(PID.TID 0000.0001) %MON thSI_Tic2_min_N              =  -7.6699896764508E+00
(PID.TID 0000.0001) %MON thSI_Tic2_max_S              =  -1.2009693750403E+00
(PID.TID 0000.0001) %MON thSI_Tic2_max_N              =  -1.2709268243837E+00
(PID.TID 0000.0001) %MON thSI_TotEnerg_G              =  -3.8133872537144E+22
(PID.TID 0000.0001) // =======================================================
(PID.TID 0000.0001) // End MONITOR Therm.SeaIce statistics
(PID.TID 0000.0001) // =======================================================
 cg2d: Sum(rhs),rhsMax =   3.91486139871320E+02  2.29746963060133E+02
(PID.TID 0000.0001)                    cg2d_init_res =    2.67156784229563E+00
(PID.TID 0000.0001)                       cg2d_iters =    69
(PID.TID 0000.0001)                         cg2d_res =    5.44418240422538E-07
(PID.TID 0000.0001) // =======================================================
(PID.TID 0000.0001) // Begin MONITOR dynamic field statistics
(PID.TID 0000.0001) // =======================================================
(PID.TID 0000.0001) %MON time_tsnumber                =                 36009
(PID.TID 0000.0001) %MON time_secondsf                =   3.1111776000000E+09
(PID.TID 0000.0001) %MON dynstat_eta_max              =   7.2403424935864E-01
(PID.TID 0000.0001) %MON dynstat_eta_min              =  -1.1971042154524E+01
(PID.TID 0000.0001) %MON dynstat_eta_mean             =  -5.8227418185239E-01
(PID.TID 0000.0001) %MON dynstat_eta_sd               =   1.7005245530022E+00
(PID.TID 0000.0001) %MON dynstat_eta_del2             =   2.1288524998585E-02
(PID.TID 0000.0001) %MON dynstat_uvel_max             =   1.7452811878665E-01
(PID.TID 0000.0001) %MON dynstat_uvel_min             =  -2.6820187944108E-01
(PID.TID 0000.0001) %MON dynstat_uvel_mean            =  -5.2461895251606E-04
(PID.TID 0000.0001) %MON dynstat_uvel_sd              =   1.2976354693890E-02
(PID.TID 0000.0001) %MON dynstat_uvel_del2            =   5.8633532082744E-05
(PID.TID 0000.0001) %MON dynstat_vvel_max             =   1.9519195365314E-01
(PID.TID 0000.0001) %MON dynstat_vvel_min             =  -2.1128980936852E-01
(PID.TID 0000.0001) %MON dynstat_vvel_mean            =  -4.2116387204702E-04
(PID.TID 0000.0001) %MON dynstat_vvel_sd              =   1.3481408306787E-02
(PID.TID 0000.0001) %MON dynstat_vvel_del2            =   5.6042541577189E-05
(PID.TID 0000.0001) %MON dynstat_wvel_max             =   8.7646784032062E-05
(PID.TID 0000.0001) %MON dynstat_wvel_min             =  -1.7822554338372E-04
(PID.TID 0000.0001) %MON dynstat_wvel_mean            =  -1.2228266221177E-09
(PID.TID 0000.0001) %MON dynstat_wvel_sd              =   4.6218065611361E-06
(PID.TID 0000.0001) %MON dynstat_wvel_del2            =   4.0338994360841E-08
(PID.TID 0000.0001) %MON dynstat_theta_max            =   2.9979348113421E+01
(PID.TID 0000.0001) %MON dynstat_theta_min            =  -3.3852753974119E+00
(PID.TID 0000.0001) %MON dynstat_theta_mean           =   3.5033482231088E+00
(PID.TID 0000.0001) %MON dynstat_theta_sd             =   4.7495464031436E+00
(PID.TID 0000.0001) %MON dynstat_theta_del2           =   2.9583618865080E-03
(PID.TID 0000.0001) %MON dynstat_salt_max             =   4.0834210162556E+01
(PID.TID 0000.0001) %MON dynstat_salt_min             =   1.8035437163549E+01
(PID.TID 0000.0001) %MON dynstat_salt_mean            =   3.4756114830703E+01
(PID.TID 0000.0001) %MON dynstat_salt_sd              =   5.1181887113965E-01
(PID.TID 0000.0001) %MON dynstat_salt_del2            =   8.3967010093795E-04
(PID.TID 0000.0001) %MON forcing_qnet_max             =   7.9679638952914E+02
(PID.TID 0000.0001) %MON forcing_qnet_min             =  -2.3593040361628E+02
(PID.TID 0000.0001) %MON forcing_qnet_mean            =  -5.9424603634831E+00
(PID.TID 0000.0001) %MON forcing_qnet_sd              =   1.2037409410669E+02
(PID.TID 0000.0001) %MON forcing_qnet_del2            =   1.0482997269942E+00
(PID.TID 0000.0001) %MON forcing_qsw_max              =  -0.0000000000000E+00
(PID.TID 0000.0001) %MON forcing_qsw_min              =  -3.4032428001410E+02
(PID.TID 0000.0001) %MON forcing_qsw_mean             =  -1.8658003475050E+02
(PID.TID 0000.0001) %MON forcing_qsw_sd               =   7.9818066520035E+01
(PID.TID 0000.0001) %MON forcing_qsw_del2             =   6.6522640536388E-01
(PID.TID 0000.0001) %MON forcing_empmr_max            =   5.1402201507388E-04
(PID.TID 0000.0001) %MON forcing_empmr_min            =  -3.0316831189022E-04
(PID.TID 0000.0001) %MON forcing_empmr_mean           =  -3.1409376269531E-07
(PID.TID 0000.0001) %MON forcing_empmr_sd             =   4.9947911782859E-05
(PID.TID 0000.0001) %MON forcing_empmr_del2           =   9.5635737137828E-07
(PID.TID 0000.0001) %MON forcing_fu_max               =   2.4722174155228E-01
(PID.TID 0000.0001) %MON forcing_fu_min               =  -2.2809828301201E-01
(PID.TID 0000.0001) %MON forcing_fu_mean              =  -4.2000491789953E-03
(PID.TID 0000.0001) %MON forcing_fu_sd                =   6.4391296774987E-02
(PID.TID 0000.0001) %MON forcing_fu_del2              =   2.1293834199113E-04
(PID.TID 0000.0001) %MON forcing_fv_max               =   2.7427691301694E-01
(PID.TID 0000.0001) %MON forcing_fv_min               =  -3.3322315549145E-01
(PID.TID 0000.0001) %MON forcing_fv_mean              =  -1.3715905886277E-02
(PID.TID 0000.0001) %MON forcing_fv_sd                =   7.5757214244312E-02
(PID.TID 0000.0001) %MON forcing_fv_del2              =   2.4079325037298E-04
(PID.TID 0000.0001) %MON advcfl_uvel_max              =   7.6067140446864E-02
(PID.TID 0000.0001) %MON advcfl_vvel_max              =   8.5081422691354E-02
(PID.TID 0000.0001) %MON advcfl_wvel_max              =   5.8108252635297E-02
(PID.TID 0000.0001) %MON advcfl_W_hf_max              =   6.4193288440915E-02
(PID.TID 0000.0001) %MON pe_b_mean                    =  -1.9291659710253E-03
(PID.TID 0000.0001) %MON ke_max                       =   3.5891962052562E-02
(PID.TID 0000.0001) %MON ke_mean                      =   1.6188692597221E-04
(PID.TID 0000.0001) %MON ke_vol                       =   1.3395905539693E+18
(PID.TID 0000.0001) %MON vort_r_min                   =  -1.2479308338483E-06
(PID.TID 0000.0001) %MON vort_r_max                   =   1.3931643427031E-06
(PID.TID 0000.0001) %MON vort_a_mean                  =  -2.0549865324846E-05
(PID.TID 0000.0001) %MON vort_a_sd                    =   7.5259582455302E-05
(PID.TID 0000.0001) %MON vort_p_mean                  =  -2.4787196613584E-05
(PID.TID 0000.0001) %MON vort_p_sd                    =   1.2817301297664E-04
(PID.TID 0000.0001) %MON surfExpan_theta_mean         =   8.0356881165319E-08
(PID.TID 0000.0001) %MON surfExpan_salt_mean          =   1.9156129485757E-08
(PID.TID 0000.0001) // =======================================================
(PID.TID 0000.0001) // End MONITOR dynamic field statistics
(PID.TID 0000.0001) // =======================================================
(PID.TID 0000.0001) // =======================================================
(PID.TID 0000.0001) // Begin MONITOR Therm.SeaIce statistics
(PID.TID 0000.0001) // =======================================================
(PID.TID 0000.0001) %MON thSI_time_sec                =   3.1111776000000E+09
(PID.TID 0000.0001) %MON thSI_Ice_Area_G              =   2.4936097025761E+13
(PID.TID 0000.0001) %MON thSI_Ice_Area_S              =   1.1697662257220E+13
(PID.TID 0000.0001) %MON thSI_Ice_Area_N              =   1.3238434768541E+13
(PID.TID 0000.0001) %MON thSI_IceH_ave_G              =   4.5621145950415E+00
(PID.TID 0000.0001) %MON thSI_IceH_ave_S              =   5.8026409531801E+00
(PID.TID 0000.0001) %MON thSI_IceH_ave_N              =   3.4659685164153E+00
(PID.TID 0000.0001) %MON thSI_IceH_max_S              =   1.0000000000000E+01
(PID.TID 0000.0001) %MON thSI_IceH_max_N              =   1.0000000000000E+01
(PID.TID 0000.0001) %MON thSI_SnwH_ave_G              =   1.0169709263057E+00
(PID.TID 0000.0001) %MON thSI_SnwH_ave_S              =   1.7600374256222E+00
(PID.TID 0000.0001) %MON thSI_SnwH_ave_N              =   3.6038719147356E-01
(PID.TID 0000.0001) %MON thSI_SnwH_max_S              =   4.0935139510642E+00
(PID.TID 0000.0001) %MON thSI_SnwH_max_N              =   4.1032675033491E+00
(PID.TID 0000.0001) %MON thSI_Tsrf_ave_G              =  -1.7380510653827E+01
(PID.TID 0000.0001) %MON thSI_Tsrf_ave_S              =  -1.1853595928935E-01
(PID.TID 0000.0001) %MON thSI_Tsrf_ave_N              =  -3.2633427890631E+01
(PID.TID 0000.0001) %MON thSI_Tsrf_min_S              =  -5.4342947033983E+00
(PID.TID 0000.0001) %MON thSI_Tsrf_min_N              =  -4.7157365161857E+01
(PID.TID 0000.0001) %MON thSI_Tsrf_max_S              =   0.0000000000000E+00
(PID.TID 0000.0001) %MON thSI_Tsrf_max_N              =  -9.3208502018755E+00
(PID.TID 0000.0001) %MON thSI_Tic1_ave_G              =  -8.5284872789751E+00
(PID.TID 0000.0001) %MON thSI_Tic1_ave_S              =  -4.9739267874128E+00
(PID.TID 0000.0001) %MON thSI_Tic1_ave_N              =  -1.3786836591891E+01
(PID.TID 0000.0001) %MON thSI_Tic1_min_S              =  -1.5338817169792E+01
(PID.TID 0000.0001) %MON thSI_Tic1_min_N              =  -2.1216432195976E+01
(PID.TID 0000.0001) %MON thSI_Tic1_max_S              =  -1.9135531500183E-01
(PID.TID 0000.0001) %MON thSI_Tic1_max_N              =  -7.5913577645878E-01
(PID.TID 0000.0001) %MON thSI_Tic2_ave_G              =  -3.8577655603184E+00
(PID.TID 0000.0001) %MON thSI_Tic2_ave_S              =  -3.0733285962605E+00
(PID.TID 0000.0001) %MON thSI_Tic2_ave_N              =  -5.0182025765883E+00
(PID.TID 0000.0001) %MON thSI_Tic2_min_S              =  -8.5557358843100E+00
(PID.TID 0000.0001) %MON thSI_Tic2_min_N              =  -7.7013400135742E+00
(PID.TID 0000.0001) %MON thSI_Tic2_max_S              =  -1.1586810844451E+00
(PID.TID 0000.0001) %MON thSI_Tic2_max_N              =  -1.2868269809476E+00
(PID.TID 0000.0001) %MON thSI_TotEnerg_G              =  -3.8127734852109E+22
(PID.TID 0000.0001) // =======================================================
(PID.TID 0000.0001) // End MONITOR Therm.SeaIce statistics
(PID.TID 0000.0001) // =======================================================
 cg2d: Sum(rhs),rhsMax =   3.91457886686040E+02  2.29845851768187E+02
(PID.TID 0000.0001)                    cg2d_init_res =    2.66058318162855E+00
(PID.TID 0000.0001)                       cg2d_iters =    69
(PID.TID 0000.0001)                         cg2d_res =    5.50267762080705E-07
(PID.TID 0000.0001) // =======================================================
(PID.TID 0000.0001) // Begin MONITOR dynamic field statistics
(PID.TID 0000.0001) // =======================================================
(PID.TID 0000.0001) %MON time_tsnumber                =                 36010
(PID.TID 0000.0001) %MON time_secondsf                =   3.1112640000000E+09
(PID.TID 0000.0001) %MON dynstat_eta_max              =   7.2270180666403E-01
(PID.TID 0000.0001) %MON dynstat_eta_min              =  -1.1968648953259E+01
(PID.TID 0000.0001) %MON dynstat_eta_mean             =  -5.8223215967416E-01
(PID.TID 0000.0001) %MON dynstat_eta_sd               =   1.7000282875400E+00
(PID.TID 0000.0001) %MON dynstat_eta_del2             =   2.1298958273414E-02
(PID.TID 0000.0001) %MON dynstat_uvel_max             =   1.7444086311143E-01
(PID.TID 0000.0001) %MON dynstat_uvel_min             =  -2.6777942682888E-01
(PID.TID 0000.0001) %MON dynstat_uvel_mean            =  -5.2415701289128E-04
(PID.TID 0000.0001) %MON dynstat_uvel_sd              =   1.2974398571167E-02
(PID.TID 0000.0001) %MON dynstat_uvel_del2            =   5.8610061936411E-05
(PID.TID 0000.0001) %MON dynstat_vvel_max             =   1.9510920879700E-01
(PID.TID 0000.0001) %MON dynstat_vvel_min             =  -2.1134425245367E-01
(PID.TID 0000.0001) %MON dynstat_vvel_mean            =  -4.2040491683013E-04
(PID.TID 0000.0001) %MON dynstat_vvel_sd              =   1.3480602028705E-02
(PID.TID 0000.0001) %MON dynstat_vvel_del2            =   5.6008541238993E-05
(PID.TID 0000.0001) %MON dynstat_wvel_max             =   8.8405828655294E-05
(PID.TID 0000.0001) %MON dynstat_wvel_min             =  -1.7813644398365E-04
(PID.TID 0000.0001) %MON dynstat_wvel_mean            =  -1.2451958041365E-09
(PID.TID 0000.0001) %MON dynstat_wvel_sd              =   4.6215060670555E-06
(PID.TID 0000.0001) %MON dynstat_wvel_del2            =   4.0336083140411E-08
(PID.TID 0000.0001) %MON dynstat_theta_max            =   2.9958085669613E+01
(PID.TID 0000.0001) %MON dynstat_theta_min            =  -3.4034792315777E+00
(PID.TID 0000.0001) %MON dynstat_theta_mean           =   3.5034163342807E+00
(PID.TID 0000.0001) %MON dynstat_theta_sd             =   4.7496576528985E+00
(PID.TID 0000.0001) %MON dynstat_theta_del2           =   2.9623085121450E-03
(PID.TID 0000.0001) %MON dynstat_salt_max             =   4.0835603214248E+01
(PID.TID 0000.0001) %MON dynstat_salt_min             =   1.8036015600309E+01
(PID.TID 0000.0001) %MON dynstat_salt_mean            =   3.4756115375757E+01
(PID.TID 0000.0001) %MON dynstat_salt_sd              =   5.1181206760147E-01
(PID.TID 0000.0001) %MON dynstat_salt_del2            =   8.3999183516064E-04
(PID.TID 0000.0001) %MON forcing_qnet_max             =   7.9995369355762E+02
(PID.TID 0000.0001) %MON forcing_qnet_min             =  -2.3555036982624E+02
(PID.TID 0000.0001) %MON forcing_qnet_mean            =  -5.9980072122519E+00
(PID.TID 0000.0001) %MON forcing_qnet_sd              =   1.2037486174731E+02
(PID.TID 0000.0001) %MON forcing_qnet_del2            =   1.0515774169975E+00
(PID.TID 0000.0001) %MON forcing_qsw_max              =  -0.0000000000000E+00
(PID.TID 0000.0001) %MON forcing_qsw_min              =  -3.4012023736691E+02
(PID.TID 0000.0001) %MON forcing_qsw_mean             =  -1.8659203231846E+02
(PID.TID 0000.0001) %MON forcing_qsw_sd               =   7.9680836636761E+01
(PID.TID 0000.0001) %MON forcing_qsw_del2             =   6.6429930669879E-01
(PID.TID 0000.0001) %MON forcing_empmr_max            =   3.9430549916432E-04
(PID.TID 0000.0001) %MON forcing_empmr_min            =  -3.0800471653405E-04
(PID.TID 0000.0001) %MON forcing_empmr_mean           =  -5.0339067668266E-07
(PID.TID 0000.0001) %MON forcing_empmr_sd             =   4.9099688882812E-05
(PID.TID 0000.0001) %MON forcing_empmr_del2           =   9.3433498831442E-07
(PID.TID 0000.0001) %MON forcing_fu_max               =   2.4734156444157E-01
(PID.TID 0000.0001) %MON forcing_fu_min               =  -2.3124407967036E-01
(PID.TID 0000.0001) %MON forcing_fu_mean              =  -4.1565702432618E-03
(PID.TID 0000.0001) %MON forcing_fu_sd                =   6.4507945848906E-02
(PID.TID 0000.0001) %MON forcing_fu_del2              =   2.1494094672237E-04
(PID.TID 0000.0001) %MON forcing_fv_max               =   2.7696015458957E-01
(PID.TID 0000.0001) %MON forcing_fv_min               =  -3.3401105942538E-01
(PID.TID 0000.0001) %MON forcing_fv_mean              =  -1.3719831432204E-02
(PID.TID 0000.0001) %MON forcing_fv_sd                =   7.5878609891640E-02
(PID.TID 0000.0001) %MON forcing_fv_del2              =   2.4254447090673E-04
(PID.TID 0000.0001) %MON advcfl_uvel_max              =   7.5947324872674E-02
(PID.TID 0000.0001) %MON advcfl_vvel_max              =   8.5045355374288E-02
(PID.TID 0000.0001) %MON advcfl_wvel_max              =   5.8079202868631E-02
(PID.TID 0000.0001) %MON advcfl_W_hf_max              =   6.4161211752725E-02
(PID.TID 0000.0001) %MON pe_b_mean                    =  -1.9282423423910E-03
(PID.TID 0000.0001) %MON ke_max                       =   3.5764730831735E-02
(PID.TID 0000.0001) %MON ke_mean                      =   1.6185301693979E-04
(PID.TID 0000.0001) %MON ke_vol                       =   1.3395905635104E+18
(PID.TID 0000.0001) %MON vort_r_min                   =  -1.2529636027581E-06
(PID.TID 0000.0001) %MON vort_r_max                   =   1.3965864716742E-06
(PID.TID 0000.0001) %MON vort_a_mean                  =  -2.0549865324846E-05
(PID.TID 0000.0001) %MON vort_a_sd                    =   7.5259582389684E-05
(PID.TID 0000.0001) %MON vort_p_mean                  =  -2.4787196075333E-05
(PID.TID 0000.0001) %MON vort_p_sd                    =   1.2817301306510E-04
(PID.TID 0000.0001) %MON surfExpan_theta_mean         =   8.0271970263851E-08
(PID.TID 0000.0001) %MON surfExpan_salt_mean          =   1.9360707199906E-08
(PID.TID 0000.0001) // =======================================================
(PID.TID 0000.0001) // End MONITOR dynamic field statistics
(PID.TID 0000.0001) // =======================================================
(PID.TID 0000.0001) // =======================================================
(PID.TID 0000.0001) // Begin MONITOR Therm.SeaIce statistics
(PID.TID 0000.0001) // =======================================================
(PID.TID 0000.0001) %MON thSI_time_sec                =   3.1112640000000E+09
(PID.TID 0000.0001) %MON thSI_Ice_Area_G              =   2.4933334474556E+13
(PID.TID 0000.0001) %MON thSI_Ice_Area_S              =   1.1661567817754E+13
(PID.TID 0000.0001) %MON thSI_Ice_Area_N              =   1.3271766656801E+13
(PID.TID 0000.0001) %MON thSI_IceH_ave_G              =   4.5624565985423E+00
(PID.TID 0000.0001) %MON thSI_IceH_ave_S              =   5.8137967110126E+00
(PID.TID 0000.0001) %MON thSI_IceH_ave_N              =   3.4629354901621E+00
(PID.TID 0000.0001) %MON thSI_IceH_max_S              =   1.0000000000000E+01
(PID.TID 0000.0001) %MON thSI_IceH_max_N              =   1.0000000000000E+01
(PID.TID 0000.0001) %MON thSI_SnwH_ave_G              =   1.0136527236202E+00
(PID.TID 0000.0001) %MON thSI_SnwH_ave_S              =   1.7548152975636E+00
(PID.TID 0000.0001) %MON thSI_SnwH_ave_N              =   3.6241179665642E-01
(PID.TID 0000.0001) %MON thSI_SnwH_max_S              =   4.0934390103815E+00
(PID.TID 0000.0001) %MON thSI_SnwH_max_N              =   4.1035579774681E+00
(PID.TID 0000.0001) %MON thSI_Tsrf_ave_G              =  -1.7468587361139E+01
(PID.TID 0000.0001) %MON thSI_Tsrf_ave_S              =  -1.4074777959769E-01
(PID.TID 0000.0001) %MON thSI_Tsrf_ave_N              =  -3.2694124521390E+01
(PID.TID 0000.0001) %MON thSI_Tsrf_min_S              =  -5.4503642188648E+00
(PID.TID 0000.0001) %MON thSI_Tsrf_min_N              =  -4.7272274114218E+01
(PID.TID 0000.0001) %MON thSI_Tsrf_max_S              =   0.0000000000000E+00
(PID.TID 0000.0001) %MON thSI_Tsrf_max_N              =  -1.7599484834694E+00
(PID.TID 0000.0001) %MON thSI_Tic1_ave_G              =  -8.5482646131085E+00
(PID.TID 0000.0001) %MON thSI_Tic1_ave_S              =  -4.9478315413622E+00
(PID.TID 0000.0001) %MON thSI_Tic1_ave_N              =  -1.3859534714256E+01
(PID.TID 0000.0001) %MON thSI_Tic1_min_S              =  -1.5200081374345E+01
(PID.TID 0000.0001) %MON thSI_Tic1_min_N              =  -2.1277339115160E+01
(PID.TID 0000.0001) %MON thSI_Tic1_max_S              =  -1.8443013286395E-01
(PID.TID 0000.0001) %MON thSI_Tic1_max_N              =  -7.7875142816111E-01
(PID.TID 0000.0001) %MON thSI_Tic2_ave_G              =  -3.8686243647894E+00
(PID.TID 0000.0001) %MON thSI_Tic2_ave_S              =  -3.0693656039096E+00
(PID.TID 0000.0001) %MON thSI_Tic2_ave_N              =  -5.0476711836440E+00
(PID.TID 0000.0001) %MON thSI_Tic2_min_S              =  -8.5247449637041E+00
(PID.TID 0000.0001) %MON thSI_Tic2_min_N              =  -7.7317038800202E+00
(PID.TID 0000.0001) %MON thSI_Tic2_max_S              =  -1.1198491503657E+00
(PID.TID 0000.0001) %MON thSI_Tic2_max_N              =  -1.3025899887582E+00
(PID.TID 0000.0001) %MON thSI_TotEnerg_G              =  -3.8119454367907E+22
(PID.TID 0000.0001) // =======================================================
(PID.TID 0000.0001) // End MONITOR Therm.SeaIce statistics
(PID.TID 0000.0001) // =======================================================
 Computing Diagnostic #     23  ETAN         Counter:       1   Parms: SM      M1      
 Computing Diagnostic #     79  oceFWflx     Counter:       1   Parms: SM      U1      
 Computing Diagnostic #     26  THETA        Counter:       1   Parms: SMR     MR      
 Computing Diagnostic #     27  SALT         Counter:       1   Parms: SMR     MR      
 Compute Stats, Diag. #     23  ETAN      vol(   0 ): 3.639E+15  Parms: SM      M1      
 Compute Stats, Diag. #     24  ETANSQ    vol(   0 ): 3.639E+15  Parms: SM P    M1      
 Compute Stats, Diag. #     25  DETADT2   vol(   0 ): 3.639E+15  Parms: SM      M1      
 Compute Stats, Diag. #     26  THETA     vol(   0 ): 1.340E+19  Parms: SMR     MR      
 Compute Stats, Diag. #     27  SALT      vol(   0 ): 1.340E+19  Parms: SMR     MR      
 Compute Stats, Diag. #     74  CONVADJ   vol(   0 ): 1.315E+19  Parms: SMR     LR      
 Compute Stats, Diag. #     75  oceTAUX   vol(   0 ): 3.111E+15  Parms: UU      U1      
 Compute Stats, Diag. #     76  oceTAUY   vol(   0 ): 3.130E+15  Parms: VV      U1      
 Compute Stats, Diag. #     84  TRELAX    vol(   0 ): 3.275E+15  Parms: SM      U1      
 Compute Stats, Diag. #     85  SRELAX    vol(   0 ): 3.275E+15  Parms: SM      U1      
 Compute Stats, Diag. #     86  surForcT  vol(   0 ): 3.275E+15  Parms: SM      U1      
 Compute Stats, Diag. #     87  surForcS  vol(   0 ): 3.275E+15  Parms: SM      U1      
 Compute Stats, Diag. #     88  TFLUX     vol(   0 ): 3.275E+15  Parms: SM      U1      
 Compute Stats, Diag. #     89  SFLUX     vol(   0 ): 3.275E+15  Parms: SM      U1      
 Compute Stats, Diag. #     81  oceQnet   vol(   0 ): 3.275E+15  Parms: SM      U1      
 Compute Stats, Diag. #     80  oceSflux  vol(   0 ): 3.275E+15  Parms: SM      U1      
 Compute Stats, Diag. #     79  oceFWflx  vol(   0 ): 3.275E+15  Parms: SM      U1      
 Compute Stats, Diag. #    194  SI_Fract  vol(   0 ): 3.639E+15  Parms: SM P    M1      
 Compute Stats, Diag. #    194  SI_Fract  vol(   1 ): 1.289E+15  Parms: SM P    M1      
 Compute Stats, Diag. #    194  SI_Fract  vol(   3 ): 7.935E+14  Parms: SM P    M1      
 Compute Stats, Diag. #    195  SI_Thick  vol(   0 ): 2.483E+14  Parms: SM PC   M1      
    use Counter Mate  #    194  SI_Fract  vol(   0 ): 3.639E+15 integral 2.483E+14
 Compute Stats, Diag. #    195  SI_Thick  vol(   1 ): 1.189E+14  Parms: SM PC   M1      
    use Counter Mate  #    194  SI_Fract  vol(   1 ): 1.289E+15 integral 1.189E+14
 Compute Stats, Diag. #    195  SI_Thick  vol(   3 ): 1.294E+14  Parms: SM PC   M1      
    use Counter Mate  #    194  SI_Fract  vol(   3 ): 7.935E+14 integral 1.294E+14
 Compute Stats, Diag. #    196  SI_SnowH  vol(   0 ): 2.483E+14  Parms: SM PC   M1      
    use Counter Mate  #    194  SI_Fract  vol(   0 ): 3.639E+15 integral 2.483E+14
 Compute Stats, Diag. #    196  SI_SnowH  vol(   1 ): 1.189E+14  Parms: SM PC   M1      
    use Counter Mate  #    194  SI_Fract  vol(   1 ): 1.289E+15 integral 1.189E+14
 Compute Stats, Diag. #    196  SI_SnowH  vol(   3 ): 1.294E+14  Parms: SM PC   M1      
    use Counter Mate  #    194  SI_Fract  vol(   3 ): 7.935E+14 integral 1.294E+14
 Compute Stats, Diag. #    197  SI_Tsrf   vol(   0 ): 2.483E+14  Parms: SM  C   M1      
    use Counter Mate  #    194  SI_Fract  vol(   0 ): 3.639E+15 integral 2.483E+14
 Compute Stats, Diag. #    197  SI_Tsrf   vol(   1 ): 1.189E+14  Parms: SM  C   M1      
    use Counter Mate  #    194  SI_Fract  vol(   1 ): 1.289E+15 integral 1.189E+14
 Compute Stats, Diag. #    197  SI_Tsrf   vol(   3 ): 1.294E+14  Parms: SM  C   M1      
    use Counter Mate  #    194  SI_Fract  vol(   3 ): 7.935E+14 integral 1.294E+14
 Compute Stats, Diag. #    198  SI_Tice1  vol(   0 ): 2.483E+14  Parms: SM  C   M1      
    use Counter Mate  #    194  SI_Fract  vol(   0 ): 3.639E+15 integral 2.483E+14
 Compute Stats, Diag. #    198  SI_Tice1  vol(   1 ): 1.189E+14  Parms: SM  C   M1      
    use Counter Mate  #    194  SI_Fract  vol(   1 ): 1.289E+15 integral 1.189E+14
 Compute Stats, Diag. #    198  SI_Tice1  vol(   3 ): 1.294E+14  Parms: SM  C   M1      
    use Counter Mate  #    194  SI_Fract  vol(   3 ): 7.935E+14 integral 1.294E+14
 Compute Stats, Diag. #    199  SI_Tice2  vol(   0 ): 2.483E+14  Parms: SM  C   M1      
    use Counter Mate  #    194  SI_Fract  vol(   0 ): 3.639E+15 integral 2.483E+14
 Compute Stats, Diag. #    199  SI_Tice2  vol(   1 ): 1.189E+14  Parms: SM  C   M1      
    use Counter Mate  #    194  SI_Fract  vol(   1 ): 1.289E+15 integral 1.189E+14
 Compute Stats, Diag. #    199  SI_Tice2  vol(   3 ): 1.294E+14  Parms: SM  C   M1      
    use Counter Mate  #    194  SI_Fract  vol(   3 ): 7.935E+14 integral 1.294E+14
 Compute Stats, Diag. #    200  SI_Qice1  vol(   0 ): 1.136E+15  Parms: SM  C   M1      
    use Counter Mate  #    195  SI_Thick  vol(   0 ): 2.483E+14 integral 1.136E+15
 Compute Stats, Diag. #    200  SI_Qice1  vol(   1 ): 6.824E+14  Parms: SM  C   M1      
    use Counter Mate  #    195  SI_Thick  vol(   1 ): 1.189E+14 integral 6.824E+14
 Compute Stats, Diag. #    200  SI_Qice1  vol(   3 ): 4.532E+14  Parms: SM  C   M1      
    use Counter Mate  #    195  SI_Thick  vol(   3 ): 1.294E+14 integral 4.532E+14
 Compute Stats, Diag. #    201  SI_Qice2  vol(   0 ): 1.136E+15  Parms: SM  C   M1      
    use Counter Mate  #    195  SI_Thick  vol(   0 ): 2.483E+14 integral 1.136E+15
 Compute Stats, Diag. #    201  SI_Qice2  vol(   1 ): 6.824E+14  Parms: SM  C   M1      
    use Counter Mate  #    195  SI_Thick  vol(   1 ): 1.189E+14 integral 6.824E+14
 Compute Stats, Diag. #    201  SI_Qice2  vol(   3 ): 4.532E+14  Parms: SM  C   M1      
    use Counter Mate  #    195  SI_Thick  vol(   3 ): 1.294E+14 integral 4.532E+14
 Compute Stats, Diag. #    205  SIsnwPrc  vol(   0 ): 2.483E+14  Parms: SM  C   M1      
    use Counter Mate  #    203  SI_FrcFx  vol(   0 ): 3.639E+15 integral 2.483E+14
 Compute Stats, Diag. #    205  SIsnwPrc  vol(   1 ): 1.189E+14  Parms: SM  C   M1      
    use Counter Mate  #    203  SI_FrcFx  vol(   1 ): 1.289E+15 integral 1.189E+14
 Compute Stats, Diag. #    205  SIsnwPrc  vol(   3 ): 1.294E+14  Parms: SM  C   M1      
    use Counter Mate  #    203  SI_FrcFx  vol(   3 ): 7.935E+14 integral 1.294E+14
 Compute Stats, Diag. #    204  SIalbedo  vol(   0 ): 2.483E+14  Parms: SM PC   M1      
    use Counter Mate  #    203  SI_FrcFx  vol(   0 ): 3.639E+15 integral 2.483E+14
 Compute Stats, Diag. #    204  SIalbedo  vol(   1 ): 1.189E+14  Parms: SM PC   M1      
    use Counter Mate  #    203  SI_FrcFx  vol(   1 ): 1.289E+15 integral 1.189E+14
 Compute Stats, Diag. #    204  SIalbedo  vol(   3 ): 1.294E+14  Parms: SM PC   M1      
    use Counter Mate  #    203  SI_FrcFx  vol(   3 ): 7.935E+14 integral 1.294E+14
 Compute Stats, Diag. #    202  SIsnwAge  vol(   0 ): 3.639E+15  Parms: SM P    M1      
 Compute Stats, Diag. #    202  SIsnwAge  vol(   1 ): 1.289E+15  Parms: SM P    M1      
 Compute Stats, Diag. #    202  SIsnwAge  vol(   3 ): 7.935E+14  Parms: SM P    M1      
 Compute Stats, Diag. #    208  SIflx2oc  vol(   0 ): 3.639E+15  Parms: SM      M1      
 Compute Stats, Diag. #    208  SIflx2oc  vol(   1 ): 1.289E+15  Parms: SM      M1      
 Compute Stats, Diag. #    208  SIflx2oc  vol(   3 ): 7.935E+14  Parms: SM      M1      
 Compute Stats, Diag. #    209  SIfrw2oc  vol(   0 ): 3.639E+15  Parms: SM      M1      
 Compute Stats, Diag. #    209  SIfrw2oc  vol(   1 ): 1.289E+15  Parms: SM      M1      
 Compute Stats, Diag. #    209  SIfrw2oc  vol(   3 ): 7.935E+14  Parms: SM      M1      
 Compute Stats, Diag. #    210  SIsaltFx  vol(   0 ): 3.639E+15  Parms: SM      M1      
 Compute Stats, Diag. #    210  SIsaltFx  vol(   1 ): 1.289E+15  Parms: SM      M1      
 Compute Stats, Diag. #    210  SIsaltFx  vol(   3 ): 7.935E+14  Parms: SM      M1      
 Compute Stats, Diag. #    206  SIflxAtm  vol(   0 ): 3.639E+15  Parms: SM      M1      
 Compute Stats, Diag. #    206  SIflxAtm  vol(   1 ): 1.289E+15  Parms: SM      M1      
 Compute Stats, Diag. #    206  SIflxAtm  vol(   3 ): 7.935E+14  Parms: SM      M1      
 Compute Stats, Diag. #    207  SIfrwAtm  vol(   0 ): 3.639E+15  Parms: SM      M1      
 Compute Stats, Diag. #    207  SIfrwAtm  vol(   1 ): 1.289E+15  Parms: SM      M1      
 Compute Stats, Diag. #    207  SIfrwAtm  vol(   3 ): 7.935E+14  Parms: SM      M1      
 cg2d: Sum(rhs),rhsMax =   3.91430150858270E+02  2.29949386798939E+02
(PID.TID 0000.0001)                    cg2d_init_res =    2.65469956429210E+00
(PID.TID 0000.0001)                       cg2d_iters =    69
(PID.TID 0000.0001)                         cg2d_res =    5.65998377899878E-07
(PID.TID 0000.0001) // =======================================================
(PID.TID 0000.0001) // Begin MONITOR dynamic field statistics
(PID.TID 0000.0001) // =======================================================
(PID.TID 0000.0001) %MON time_tsnumber                =                 36011
(PID.TID 0000.0001) %MON time_secondsf                =   3.1113504000000E+09
(PID.TID 0000.0001) %MON dynstat_eta_max              =   7.2134361015207E-01
(PID.TID 0000.0001) %MON dynstat_eta_min              =  -1.1966126084823E+01
(PID.TID 0000.0001) %MON dynstat_eta_mean             =  -5.8219090698402E-01
(PID.TID 0000.0001) %MON dynstat_eta_sd               =   1.6995361430003E+00
(PID.TID 0000.0001) %MON dynstat_eta_del2             =   2.1308339919130E-02
(PID.TID 0000.0001) %MON dynstat_uvel_max             =   1.7429397309506E-01
(PID.TID 0000.0001) %MON dynstat_uvel_min             =  -2.6734385730240E-01
(PID.TID 0000.0001) %MON dynstat_uvel_mean            =  -5.2366642835354E-04
(PID.TID 0000.0001) %MON dynstat_uvel_sd              =   1.2972570391501E-02
(PID.TID 0000.0001) %MON dynstat_uvel_del2            =   5.8588045259104E-05
(PID.TID 0000.0001) %MON dynstat_vvel_max             =   1.9496409467570E-01
(PID.TID 0000.0001) %MON dynstat_vvel_min             =  -2.1139307616160E-01
(PID.TID 0000.0001) %MON dynstat_vvel_mean            =  -4.1969329645852E-04
(PID.TID 0000.0001) %MON dynstat_vvel_sd              =   1.3479353123246E-02
(PID.TID 0000.0001) %MON dynstat_vvel_del2            =   5.5976065281887E-05
(PID.TID 0000.0001) %MON dynstat_wvel_max             =   8.9147430895795E-05
(PID.TID 0000.0001) %MON dynstat_wvel_min             =  -1.7800718769998E-04
(PID.TID 0000.0001) %MON dynstat_wvel_mean            =  -1.2146281984222E-09
(PID.TID 0000.0001) %MON dynstat_wvel_sd              =   4.6213071088479E-06
(PID.TID 0000.0001) %MON dynstat_wvel_del2            =   4.0332712330234E-08
(PID.TID 0000.0001) %MON dynstat_theta_max            =   2.9936870413488E+01
(PID.TID 0000.0001) %MON dynstat_theta_min            =  -3.4216752708134E+00
(PID.TID 0000.0001) %MON dynstat_theta_mean           =   3.5034854158603E+00
(PID.TID 0000.0001) %MON dynstat_theta_sd             =   4.7497764225123E+00
(PID.TID 0000.0001) %MON dynstat_theta_del2           =   2.9662215685234E-03
(PID.TID 0000.0001) %MON dynstat_salt_max             =   4.0836863540121E+01
(PID.TID 0000.0001) %MON dynstat_salt_min             =   1.8036636154289E+01
(PID.TID 0000.0001) %MON dynstat_salt_mean            =   3.4756115946852E+01
(PID.TID 0000.0001) %MON dynstat_salt_sd              =   5.1180506899605E-01
(PID.TID 0000.0001) %MON dynstat_salt_del2            =   8.4043375234564E-04
(PID.TID 0000.0001) %MON forcing_qnet_max             =   8.0308307135363E+02
(PID.TID 0000.0001) %MON forcing_qnet_min             =  -2.3517228105122E+02
(PID.TID 0000.0001) %MON forcing_qnet_mean            =  -6.1221141630004E+00
(PID.TID 0000.0001) %MON forcing_qnet_sd              =   1.2034715145913E+02
(PID.TID 0000.0001) %MON forcing_qnet_del2            =   1.0552800356491E+00
(PID.TID 0000.0001) %MON forcing_qsw_max              =  -0.0000000000000E+00
(PID.TID 0000.0001) %MON forcing_qsw_min              =  -3.3991619471971E+02
(PID.TID 0000.0001) %MON forcing_qsw_mean             =  -1.8660428158666E+02
(PID.TID 0000.0001) %MON forcing_qsw_sd               =   7.9542889466391E+01
(PID.TID 0000.0001) %MON forcing_qsw_del2             =   6.6139123592579E-01
(PID.TID 0000.0001) %MON forcing_empmr_max            =   7.5874665778011E-04
(PID.TID 0000.0001) %MON forcing_empmr_min            =  -3.1398312633061E-04
(PID.TID 0000.0001) %MON forcing_empmr_mean           =  -4.9417285066546E-07
(PID.TID 0000.0001) %MON forcing_empmr_sd             =   4.9699306820229E-05
(PID.TID 0000.0001) %MON forcing_empmr_del2           =   1.0426714424877E-06
(PID.TID 0000.0001) %MON forcing_fu_max               =   2.4760593894036E-01
(PID.TID 0000.0001) %MON forcing_fu_min               =  -2.3438987632871E-01
(PID.TID 0000.0001) %MON forcing_fu_mean              =  -4.1130913075284E-03
(PID.TID 0000.0001) %MON forcing_fu_sd                =   6.4637716330841E-02
(PID.TID 0000.0001) %MON forcing_fu_del2              =   2.1715397508819E-04
(PID.TID 0000.0001) %MON forcing_fv_max               =   2.7964339616220E-01
(PID.TID 0000.0001) %MON forcing_fv_min               =  -3.3479896335931E-01
(PID.TID 0000.0001) %MON forcing_fv_mean              =  -1.3723756978131E-02
(PID.TID 0000.0001) %MON forcing_fv_sd                =   7.6010073816084E-02
(PID.TID 0000.0001) %MON forcing_fv_del2              =   2.4447772305236E-04
(PID.TID 0000.0001) %MON advcfl_uvel_max              =   7.5823789092782E-02
(PID.TID 0000.0001) %MON advcfl_vvel_max              =   8.4982102173211E-02
(PID.TID 0000.0001) %MON advcfl_wvel_max              =   5.8037060442559E-02
(PID.TID 0000.0001) %MON advcfl_W_hf_max              =   6.4114675933775E-02
(PID.TID 0000.0001) %MON pe_b_mean                    =  -1.9272640480159E-03
(PID.TID 0000.0001) %MON ke_max                       =   3.5634894025277E-02
(PID.TID 0000.0001) %MON ke_mean                      =   1.6181510726792E-04
(PID.TID 0000.0001) %MON ke_vol                       =   1.3395905788017E+18
(PID.TID 0000.0001) %MON vort_r_min                   =  -1.2580641306409E-06
(PID.TID 0000.0001) %MON vort_r_max                   =   1.3999207920377E-06
(PID.TID 0000.0001) %MON vort_a_mean                  =  -2.0549865324846E-05
(PID.TID 0000.0001) %MON vort_a_sd                    =   7.5259582321038E-05
(PID.TID 0000.0001) %MON vort_p_mean                  =  -2.4787195461354E-05
(PID.TID 0000.0001) %MON vort_p_sd                    =   1.2817301277590E-04
(PID.TID 0000.0001) %MON surfExpan_theta_mean         =   7.9380565196205E-08
(PID.TID 0000.0001) %MON surfExpan_salt_mean          =   1.9276035065014E-08
(PID.TID 0000.0001) // =======================================================
(PID.TID 0000.0001) // End MONITOR dynamic field statistics
(PID.TID 0000.0001) // =======================================================
(PID.TID 0000.0001) // =======================================================
(PID.TID 0000.0001) // Begin MONITOR Therm.SeaIce statistics
(PID.TID 0000.0001) // =======================================================
(PID.TID 0000.0001) %MON thSI_time_sec                =   3.1113504000000E+09
(PID.TID 0000.0001) %MON thSI_Ice_Area_G              =   2.4960666663309E+13
(PID.TID 0000.0001) %MON thSI_Ice_Area_S              =   1.1630147127811E+13
(PID.TID 0000.0001) %MON thSI_Ice_Area_N              =   1.3330519535498E+13
(PID.TID 0000.0001) %MON thSI_IceH_ave_G              =   4.5572972214718E+00
(PID.TID 0000.0001) %MON thSI_IceH_ave_S              =   5.8227225091621E+00
(PID.TID 0000.0001) %MON thSI_IceH_ave_N              =   3.4532830653917E+00
(PID.TID 0000.0001) %MON thSI_IceH_max_S              =   1.0000000000000E+01
(PID.TID 0000.0001) %MON thSI_IceH_max_N              =   1.0000000000000E+01
(PID.TID 0000.0001) %MON thSI_SnwH_ave_G              =   1.0092426099041E+00
(PID.TID 0000.0001) %MON thSI_SnwH_ave_S              =   1.7491204718838E+00
(PID.TID 0000.0001) %MON thSI_SnwH_ave_N              =   3.6373975695672E-01
(PID.TID 0000.0001) %MON thSI_SnwH_max_S              =   4.0933689960321E+00
(PID.TID 0000.0001) %MON thSI_SnwH_max_N              =   4.1039029140640E+00
(PID.TID 0000.0001) %MON thSI_Tsrf_ave_G              =  -1.7519341586994E+01
(PID.TID 0000.0001) %MON thSI_Tsrf_ave_S              =  -1.2181569594706E-01
(PID.TID 0000.0001) %MON thSI_Tsrf_ave_N              =  -3.2697728688410E+01
(PID.TID 0000.0001) %MON thSI_Tsrf_min_S              =  -5.4663954164839E+00
(PID.TID 0000.0001) %MON thSI_Tsrf_min_N              =  -4.7387246031355E+01
(PID.TID 0000.0001) %MON thSI_Tsrf_max_S              =   0.0000000000000E+00
(PID.TID 0000.0001) %MON thSI_Tsrf_max_N              =  -4.6893100580421E+00
(PID.TID 0000.0001) %MON thSI_Tic1_ave_G              =  -8.5706459339233E+00
(PID.TID 0000.0001) %MON thSI_Tic1_ave_S              =  -4.9273122956145E+00
(PID.TID 0000.0001) %MON thSI_Tic1_ave_N              =  -1.3930228817348E+01
(PID.TID 0000.0001) %MON thSI_Tic1_min_S              =  -1.5062924637922E+01
(PID.TID 0000.0001) %MON thSI_Tic1_min_N              =  -2.1336226922048E+01
(PID.TID 0000.0001) %MON thSI_Tic1_max_S              =  -1.7796760934035E-01
(PID.TID 0000.0001) %MON thSI_Tic1_max_N              =  -7.9925795599279E-01
(PID.TID 0000.0001) %MON thSI_Tic2_ave_G              =  -3.8792216800456E+00
(PID.TID 0000.0001) %MON thSI_Tic2_ave_S              =  -3.0653745464442E+00
(PID.TID 0000.0001) %MON thSI_Tic2_ave_N              =  -5.0764442240119E+00
(PID.TID 0000.0001) %MON thSI_Tic2_min_S              =  -8.4936461777966E+00
(PID.TID 0000.0001) %MON thSI_Tic2_min_N              =  -7.7611112791860E+00
(PID.TID 0000.0001) %MON thSI_Tic2_max_S              =  -1.0860952583565E+00
(PID.TID 0000.0001) %MON thSI_Tic2_max_N              =  -1.3180933112568E+00
(PID.TID 0000.0001) %MON thSI_TotEnerg_G              =  -3.8111690801599E+22
(PID.TID 0000.0001) // =======================================================
(PID.TID 0000.0001) // End MONITOR Therm.SeaIce statistics
(PID.TID 0000.0001) // =======================================================
 Computing Diagnostic #     23  ETAN         Counter:       1   Parms: SM      M1      
 Compute Stats, Diag. #     23  ETAN      vol(   0 ): 3.639E+14  Parms: SM      M1      
 Compute Stats, Diag. #     26  THETA     vol(   0 ): 1.340E+18  Parms: SMR     MR      
 Compute Stats, Diag. #     27  SALT      vol(   0 ): 1.340E+18  Parms: SMR     MR      
 cg2d: Sum(rhs),rhsMax =   3.91394363526222E+02  2.30056289531097E+02
(PID.TID 0000.0001)                    cg2d_init_res =    2.65157687489623E+00
(PID.TID 0000.0001)                       cg2d_iters =    69
(PID.TID 0000.0001)                         cg2d_res =    5.67356832308578E-07
(PID.TID 0000.0001) // =======================================================
(PID.TID 0000.0001) // Begin MONITOR dynamic field statistics
(PID.TID 0000.0001) // =======================================================
(PID.TID 0000.0001) %MON time_tsnumber                =                 36012
(PID.TID 0000.0001) %MON time_secondsf                =   3.1114368000000E+09
(PID.TID 0000.0001) %MON dynstat_eta_max              =   7.1998491745812E-01
(PID.TID 0000.0001) %MON dynstat_eta_min              =  -1.1963458820621E+01
(PID.TID 0000.0001) %MON dynstat_eta_mean             =  -5.8213767894510E-01
(PID.TID 0000.0001) %MON dynstat_eta_sd               =   1.6990481496258E+00
(PID.TID 0000.0001) %MON dynstat_eta_del2             =   2.1317227171078E-02
(PID.TID 0000.0001) %MON dynstat_uvel_max             =   1.7409176188108E-01
(PID.TID 0000.0001) %MON dynstat_uvel_min             =  -2.6689498520935E-01
(PID.TID 0000.0001) %MON dynstat_uvel_mean            =  -5.2311896001014E-04
(PID.TID 0000.0001) %MON dynstat_uvel_sd              =   1.2970908625051E-02
(PID.TID 0000.0001) %MON dynstat_uvel_del2            =   5.8567847521478E-05
(PID.TID 0000.0001) %MON dynstat_vvel_max             =   1.9475928032105E-01
(PID.TID 0000.0001) %MON dynstat_vvel_min             =  -2.1143657391300E-01
(PID.TID 0000.0001) %MON dynstat_vvel_mean            =  -4.1904277143128E-04
(PID.TID 0000.0001) %MON dynstat_vvel_sd              =   1.3477673202936E-02
(PID.TID 0000.0001) %MON dynstat_vvel_del2            =   5.5945146016758E-05
(PID.TID 0000.0001) %MON dynstat_wvel_max             =   8.9861083579740E-05
(PID.TID 0000.0001) %MON dynstat_wvel_min             =  -1.7784243895153E-04
(PID.TID 0000.0001) %MON dynstat_wvel_mean            =  -1.2395274180234E-09
(PID.TID 0000.0001) %MON dynstat_wvel_sd              =   4.6212218443041E-06
(PID.TID 0000.0001) %MON dynstat_wvel_del2            =   4.0328280881357E-08
(PID.TID 0000.0001) %MON dynstat_theta_max            =   2.9915750600271E+01
(PID.TID 0000.0001) %MON dynstat_theta_min            =  -3.4398629181247E+00
(PID.TID 0000.0001) %MON dynstat_theta_mean           =   3.5035551049237E+00
(PID.TID 0000.0001) %MON dynstat_theta_sd             =   4.7499009700215E+00
(PID.TID 0000.0001) %MON dynstat_theta_del2           =   2.9694329649404E-03
(PID.TID 0000.0001) %MON dynstat_salt_max             =   4.0837991161728E+01
(PID.TID 0000.0001) %MON dynstat_salt_min             =   1.8037366081844E+01
(PID.TID 0000.0001) %MON dynstat_salt_mean            =   3.4756116432199E+01
(PID.TID 0000.0001) %MON dynstat_salt_sd              =   5.1179759251744E-01
(PID.TID 0000.0001) %MON dynstat_salt_del2            =   8.4093079586567E-04
(PID.TID 0000.0001) %MON forcing_qnet_max             =   8.0618610184580E+02
(PID.TID 0000.0001) %MON forcing_qnet_min             =  -2.3479608753032E+02
(PID.TID 0000.0001) %MON forcing_qnet_mean            =  -6.1971365841535E+00
(PID.TID 0000.0001) %MON forcing_qnet_sd              =   1.2039635648387E+02
(PID.TID 0000.0001) %MON forcing_qnet_del2            =   1.0682566711480E+00
(PID.TID 0000.0001) %MON forcing_qsw_max              =  -0.0000000000000E+00
(PID.TID 0000.0001) %MON forcing_qsw_min              =  -3.3971215207251E+02
(PID.TID 0000.0001) %MON forcing_qsw_mean             =  -1.8660841105981E+02
(PID.TID 0000.0001) %MON forcing_qsw_sd               =   7.9414220044571E+01
(PID.TID 0000.0001) %MON forcing_qsw_del2             =   6.5859164944186E-01
(PID.TID 0000.0001) %MON forcing_empmr_max            =   7.4979533925785E-04
(PID.TID 0000.0001) %MON forcing_empmr_min            =  -3.1808628194163E-04
(PID.TID 0000.0001) %MON forcing_empmr_mean           =  -6.3762754954440E-07
(PID.TID 0000.0001) %MON forcing_empmr_sd             =   4.9425833552214E-05
(PID.TID 0000.0001) %MON forcing_empmr_del2           =   1.0347184003415E-06
(PID.TID 0000.0001) %MON forcing_fu_max               =   2.4787031343914E-01
(PID.TID 0000.0001) %MON forcing_fu_min               =  -2.3765894517478E-01
(PID.TID 0000.0001) %MON forcing_fu_mean              =  -4.0696123717950E-03
(PID.TID 0000.0001) %MON forcing_fu_sd                =   6.4780529365136E-02
(PID.TID 0000.0001) %MON forcing_fu_del2              =   2.1957106468296E-04
(PID.TID 0000.0001) %MON forcing_fv_max               =   2.8232663773484E-01
(PID.TID 0000.0001) %MON forcing_fv_min               =  -3.3558686729325E-01
(PID.TID 0000.0001) %MON forcing_fv_mean              =  -1.3727682524059E-02
(PID.TID 0000.0001) %MON forcing_fv_sd                =   7.6151553873676E-02
(PID.TID 0000.0001) %MON forcing_fv_del2              =   2.4658872547121E-04
(PID.TID 0000.0001) %MON advcfl_uvel_max              =   7.5696480452679E-02
(PID.TID 0000.0001) %MON advcfl_vvel_max              =   8.4892826481489E-02
(PID.TID 0000.0001) %MON advcfl_wvel_max              =   5.7983346133631E-02
(PID.TID 0000.0001) %MON advcfl_W_hf_max              =   6.4055361383928E-02
(PID.TID 0000.0001) %MON pe_b_mean                    =  -1.9262743252327E-03
(PID.TID 0000.0001) %MON ke_max                       =   3.5502464042277E-02
(PID.TID 0000.0001) %MON ke_mean                      =   1.6177379298924E-04
(PID.TID 0000.0001) %MON ke_vol                       =   1.3395905938130E+18
(PID.TID 0000.0001) %MON vort_r_min                   =  -1.2632044223486E-06
(PID.TID 0000.0001) %MON vort_r_max                   =   1.4031229235982E-06
(PID.TID 0000.0001) %MON vort_a_mean                  =  -2.0549865324846E-05
(PID.TID 0000.0001) %MON vort_a_sd                    =   7.5259582249562E-05
(PID.TID 0000.0001) %MON vort_p_mean                  =  -2.4787194883184E-05
(PID.TID 0000.0001) %MON vort_p_sd                    =   1.2817301417921E-04
(PID.TID 0000.0001) %MON surfExpan_theta_mean         =   7.8714156026242E-08
(PID.TID 0000.0001) %MON surfExpan_salt_mean          =   1.9411253968855E-08
(PID.TID 0000.0001) // =======================================================
(PID.TID 0000.0001) // End MONITOR dynamic field statistics
(PID.TID 0000.0001) // =======================================================
(PID.TID 0000.0001) // =======================================================
(PID.TID 0000.0001) // Begin MONITOR Therm.SeaIce statistics
(PID.TID 0000.0001) // =======================================================
(PID.TID 0000.0001) %MON thSI_time_sec                =   3.1114368000000E+09
(PID.TID 0000.0001) %MON thSI_Ice_Area_G              =   2.4959633153845E+13
(PID.TID 0000.0001) %MON thSI_Ice_Area_S              =   1.1597619463592E+13
(PID.TID 0000.0001) %MON thSI_Ice_Area_N              =   1.3362013690254E+13
(PID.TID 0000.0001) %MON thSI_IceH_ave_G              =   4.5571289725199E+00
(PID.TID 0000.0001) %MON thSI_IceH_ave_S              =   5.8321987778154E+00
(PID.TID 0000.0001) %MON thSI_IceH_ave_N              =   3.4504264399429E+00
(PID.TID 0000.0001) %MON thSI_IceH_max_S              =   1.0000000000000E+01
(PID.TID 0000.0001) %MON thSI_IceH_max_N              =   1.0000000000000E+01
(PID.TID 0000.0001) %MON thSI_SnwH_ave_G              =   1.0060595118988E+00
(PID.TID 0000.0001) %MON thSI_SnwH_ave_S              =   1.7436920831277E+00
(PID.TID 0000.0001) %MON thSI_SnwH_ave_N              =   3.6582802708139E-01
(PID.TID 0000.0001) %MON thSI_SnwH_max_S              =   4.0933033599977E+00
(PID.TID 0000.0001) %MON thSI_SnwH_max_N              =   4.1042562139888E+00
(PID.TID 0000.0001) %MON thSI_Tsrf_ave_G              =  -1.7605552938533E+01
(PID.TID 0000.0001) %MON thSI_Tsrf_ave_S              =  -1.4447212194013E-01
(PID.TID 0000.0001) %MON thSI_Tsrf_ave_N              =  -3.2760976022822E+01
(PID.TID 0000.0001) %MON thSI_Tsrf_min_S              =  -5.4823886114740E+00
(PID.TID 0000.0001) %MON thSI_Tsrf_min_N              =  -4.7502281930565E+01
(PID.TID 0000.0001) %MON thSI_Tsrf_max_S              =   0.0000000000000E+00
(PID.TID 0000.0001) %MON thSI_Tsrf_max_N              =  -6.2637870834872E+00
(PID.TID 0000.0001) %MON thSI_Tic1_ave_G              =  -8.5900242075045E+00
(PID.TID 0000.0001) %MON thSI_Tic1_ave_S              =  -4.9023026967584E+00
(PID.TID 0000.0001) %MON thSI_Tic1_ave_N              =  -1.4000240195079E+01
(PID.TID 0000.0001) %MON thSI_Tic1_min_S              =  -1.4927330021996E+01
(PID.TID 0000.0001) %MON thSI_Tic1_min_N              =  -2.1393168853907E+01
(PID.TID 0000.0001) %MON thSI_Tic1_max_S              =  -1.7192321319785E-01
(PID.TID 0000.0001) %MON thSI_Tic1_max_N              =  -8.2070437008736E-01
(PID.TID 0000.0001) %MON thSI_Tic2_ave_G              =  -3.8897182750538E+00
(PID.TID 0000.0001) %MON thSI_Tic2_ave_S              =  -3.0614198759485E+00
(PID.TID 0000.0001) %MON thSI_Tic2_ave_N              =  -5.1049058178939E+00
(PID.TID 0000.0001) %MON thSI_Tic2_min_S              =  -8.4612722882858E+00
(PID.TID 0000.0001) %MON thSI_Tic2_min_N              =  -7.7895915123693E+00
(PID.TID 0000.0001) %MON thSI_Tic2_max_S              =  -1.0567670800697E+00
(PID.TID 0000.0001) %MON thSI_Tic2_max_N              =  -1.3332500863418E+00
(PID.TID 0000.0001) %MON thSI_TotEnerg_G              =  -3.8102319294565E+22
(PID.TID 0000.0001) // =======================================================
(PID.TID 0000.0001) // End MONITOR Therm.SeaIce statistics
(PID.TID 0000.0001) // =======================================================
 cg2d: Sum(rhs),rhsMax =   3.91348280743500E+02  2.30165112012775E+02
(PID.TID 0000.0001)                    cg2d_init_res =    2.62880540543944E+00
(PID.TID 0000.0001)                       cg2d_iters =    69
(PID.TID 0000.0001)                         cg2d_res =    5.60159325000787E-07
(PID.TID 0000.0001) // =======================================================
(PID.TID 0000.0001) // Begin MONITOR dynamic field statistics
(PID.TID 0000.0001) // =======================================================
(PID.TID 0000.0001) %MON time_tsnumber                =                 36013
(PID.TID 0000.0001) %MON time_secondsf                =   3.1115232000000E+09
(PID.TID 0000.0001) %MON dynstat_eta_max              =   7.1867492710061E-01
(PID.TID 0000.0001) %MON dynstat_eta_min              =  -1.1960638945423E+01
(PID.TID 0000.0001) %MON dynstat_eta_mean             =  -5.8206913803937E-01
(PID.TID 0000.0001) %MON dynstat_eta_sd               =   1.6985631424223E+00
(PID.TID 0000.0001) %MON dynstat_eta_del2             =   2.1326332475376E-02
(PID.TID 0000.0001) %MON dynstat_uvel_max             =   1.7383923997945E-01
(PID.TID 0000.0001) %MON dynstat_uvel_min             =  -2.6643270121657E-01
(PID.TID 0000.0001) %MON dynstat_uvel_mean            =  -5.2249828403734E-04
(PID.TID 0000.0001) %MON dynstat_uvel_sd              =   1.2969437724762E-02
(PID.TID 0000.0001) %MON dynstat_uvel_del2            =   5.8549735706081E-05
(PID.TID 0000.0001) %MON dynstat_vvel_max             =   1.9449490032690E-01
(PID.TID 0000.0001) %MON dynstat_vvel_min             =  -2.1147499747559E-01
(PID.TID 0000.0001) %MON dynstat_vvel_mean            =  -4.1845205516326E-04
(PID.TID 0000.0001) %MON dynstat_vvel_sd              =   1.3475589763592E-02
(PID.TID 0000.0001) %MON dynstat_vvel_del2            =   5.5915816178033E-05
(PID.TID 0000.0001) %MON dynstat_wvel_max             =   9.0537526277640E-05
(PID.TID 0000.0001) %MON dynstat_wvel_min             =  -1.7764753324981E-04
(PID.TID 0000.0001) %MON dynstat_wvel_mean            =  -1.2710409310934E-09
(PID.TID 0000.0001) %MON dynstat_wvel_sd              =   4.6212245335611E-06
(PID.TID 0000.0001) %MON dynstat_wvel_del2            =   4.0322289410234E-08
(PID.TID 0000.0001) %MON dynstat_theta_max            =   2.9894770906997E+01
(PID.TID 0000.0001) %MON dynstat_theta_min            =  -3.4580265526266E+00
(PID.TID 0000.0001) %MON dynstat_theta_mean           =   3.5036251061250E+00
(PID.TID 0000.0001) %MON dynstat_theta_sd             =   4.7500311300664E+00
(PID.TID 0000.0001) %MON dynstat_theta_del2           =   2.9740359943711E-03
(PID.TID 0000.0001) %MON dynstat_salt_max             =   4.0838986490969E+01
(PID.TID 0000.0001) %MON dynstat_salt_min             =   1.8038470005667E+01
(PID.TID 0000.0001) %MON dynstat_salt_mean            =   3.4756116802659E+01
(PID.TID 0000.0001) %MON dynstat_salt_sd              =   5.1178903999054E-01
(PID.TID 0000.0001) %MON dynstat_salt_del2            =   8.4207156649405E-04
(PID.TID 0000.0001) %MON forcing_qnet_max             =   8.0926481943961E+02
(PID.TID 0000.0001) %MON forcing_qnet_min             =  -2.3442174029807E+02
(PID.TID 0000.0001) %MON forcing_qnet_mean            =  -6.2280625490105E+00
(PID.TID 0000.0001) %MON forcing_qnet_sd              =   1.2045340658252E+02
(PID.TID 0000.0001) %MON forcing_qnet_del2            =   1.0657631772278E+00
(PID.TID 0000.0001) %MON forcing_qsw_max              =  -0.0000000000000E+00
(PID.TID 0000.0001) %MON forcing_qsw_min              =  -3.3950810942532E+02
(PID.TID 0000.0001) %MON forcing_qsw_mean             =  -1.8661640031248E+02
(PID.TID 0000.0001) %MON forcing_qsw_sd               =   7.9280798173671E+01
(PID.TID 0000.0001) %MON forcing_qsw_del2             =   6.5615450436449E-01
(PID.TID 0000.0001) %MON forcing_empmr_max            =   4.0677668889919E-04
(PID.TID 0000.0001) %MON forcing_empmr_min            =  -3.2063164610717E-04
(PID.TID 0000.0001) %MON forcing_empmr_mean           =  -8.2106293319219E-07
(PID.TID 0000.0001) %MON forcing_empmr_sd             =   4.8530127302672E-05
(PID.TID 0000.0001) %MON forcing_empmr_del2           =   9.3974825927882E-07
(PID.TID 0000.0001) %MON forcing_fu_max               =   2.4813468793793E-01
(PID.TID 0000.0001) %MON forcing_fu_min               =  -2.4114197747619E-01
(PID.TID 0000.0001) %MON forcing_fu_mean              =  -4.0261334360615E-03
(PID.TID 0000.0001) %MON forcing_fu_sd                =   6.4936298899217E-02
(PID.TID 0000.0001) %MON forcing_fu_del2              =   2.2218555584494E-04
(PID.TID 0000.0001) %MON forcing_fv_max               =   2.8500987930747E-01
(PID.TID 0000.0001) %MON forcing_fv_min               =  -3.3637477122718E-01
(PID.TID 0000.0001) %MON forcing_fv_mean              =  -1.3731608069986E-02
(PID.TID 0000.0001) %MON forcing_fv_sd                =   7.6302994349070E-02
(PID.TID 0000.0001) %MON forcing_fv_del2              =   2.4887295503804E-04
(PID.TID 0000.0001) %MON advcfl_uvel_max              =   7.5565367943406E-02
(PID.TID 0000.0001) %MON advcfl_vvel_max              =   8.4777586966682E-02
(PID.TID 0000.0001) %MON advcfl_wvel_max              =   5.7919799519936E-02
(PID.TID 0000.0001) %MON advcfl_W_hf_max              =   6.3985189134404E-02
(PID.TID 0000.0001) %MON pe_b_mean                    =  -1.9252927369980E-03
(PID.TID 0000.0001) %MON ke_max                       =   3.5367472025258E-02
(PID.TID 0000.0001) %MON ke_mean                      =   1.6172970201004E-04
(PID.TID 0000.0001) %MON ke_vol                       =   1.3395906131820E+18
(PID.TID 0000.0001) %MON vort_r_min                   =  -1.2683575705842E-06
(PID.TID 0000.0001) %MON vort_r_max                   =   1.4061523610238E-06
(PID.TID 0000.0001) %MON vort_a_mean                  =  -2.0549865324846E-05
(PID.TID 0000.0001) %MON vort_a_sd                    =   7.5259582175931E-05
(PID.TID 0000.0001) %MON vort_p_mean                  =  -2.4787194241417E-05
(PID.TID 0000.0001) %MON vort_p_sd                    =   1.2817301510240E-04
(PID.TID 0000.0001) %MON surfExpan_theta_mean         =   7.7982344030099E-08
(PID.TID 0000.0001) %MON surfExpan_salt_mean          =   1.9600821613348E-08
(PID.TID 0000.0001) // =======================================================
(PID.TID 0000.0001) // End MONITOR dynamic field statistics
(PID.TID 0000.0001) // =======================================================
(PID.TID 0000.0001) // =======================================================
(PID.TID 0000.0001) // Begin MONITOR Therm.SeaIce statistics
(PID.TID 0000.0001) // =======================================================
(PID.TID 0000.0001) %MON thSI_time_sec                =   3.1115232000000E+09
(PID.TID 0000.0001) %MON thSI_Ice_Area_G              =   2.4943681974164E+13
(PID.TID 0000.0001) %MON thSI_Ice_Area_S              =   1.1559719046373E+13
(PID.TID 0000.0001) %MON thSI_Ice_Area_N              =   1.3383962927792E+13
(PID.TID 0000.0001) %MON thSI_IceH_ave_G              =   4.5594637887420E+00
(PID.TID 0000.0001) %MON thSI_IceH_ave_S              =   5.8444166744963E+00
(PID.TID 0000.0001) %MON thSI_IceH_ave_N              =   3.4496509158819E+00
(PID.TID 0000.0001) %MON thSI_IceH_max_S              =   1.0000000000000E+01
(PID.TID 0000.0001) %MON thSI_IceH_max_N              =   1.0000000000000E+01
(PID.TID 0000.0001) %MON thSI_SnwH_ave_G              =   1.0034548143158E+00
(PID.TID 0000.0001) %MON thSI_SnwH_ave_S              =   1.7389840735657E+00
(PID.TID 0000.0001) %MON thSI_SnwH_ave_N              =   3.6817872806335E-01
(PID.TID 0000.0001) %MON thSI_SnwH_max_S              =   4.0932415300035E+00
(PID.TID 0000.0001) %MON thSI_SnwH_max_N              =   4.1046204810814E+00
(PID.TID 0000.0001) %MON thSI_Tsrf_ave_G              =  -1.7680968353976E+01
(PID.TID 0000.0001) %MON thSI_Tsrf_ave_S              =  -1.2888278058598E-01
(PID.TID 0000.0001) %MON thSI_Tsrf_ave_N              =  -3.2840691897813E+01
(PID.TID 0000.0001) %MON thSI_Tsrf_min_S              =  -5.4983441210189E+00
(PID.TID 0000.0001) %MON thSI_Tsrf_min_N              =  -4.7617382868677E+01
(PID.TID 0000.0001) %MON thSI_Tsrf_max_S              =   0.0000000000000E+00
(PID.TID 0000.0001) %MON thSI_Tsrf_max_N              =  -6.9934500799035E+00
(PID.TID 0000.0001) %MON thSI_Tic1_ave_G              =  -8.6112226913488E+00
(PID.TID 0000.0001) %MON thSI_Tic1_ave_S              =  -4.8810312458326E+00
(PID.TID 0000.0001) %MON thSI_Tic1_ave_N              =  -1.4069551545220E+01
(PID.TID 0000.0001) %MON thSI_Tic1_min_S              =  -1.4793280946170E+01
(PID.TID 0000.0001) %MON thSI_Tic1_min_N              =  -2.1448235162181E+01
(PID.TID 0000.0001) %MON thSI_Tic1_max_S              =  -1.6625832471439E-01
(PID.TID 0000.0001) %MON thSI_Tic1_max_N              =  -8.4314222705812E-01
(PID.TID 0000.0001) %MON thSI_Tic2_ave_G              =  -3.9000692525928E+00
(PID.TID 0000.0001) %MON thSI_Tic2_ave_S              =  -3.0574585080619E+00
(PID.TID 0000.0001) %MON thSI_Tic2_ave_N              =  -5.1330479365646E+00
(PID.TID 0000.0001) %MON thSI_Tic2_min_S              =  -8.4288319449578E+00
(PID.TID 0000.0001) %MON thSI_Tic2_min_N              =  -7.8171731636736E+00
(PID.TID 0000.0001) %MON thSI_Tic2_max_S              =  -1.0102451528355E+00
(PID.TID 0000.0001) %MON thSI_Tic2_max_N              =  -1.3480054741955E+00
(PID.TID 0000.0001) %MON thSI_TotEnerg_G              =  -3.8091303328393E+22
(PID.TID 0000.0001) // =======================================================
(PID.TID 0000.0001) // End MONITOR Therm.SeaIce statistics
(PID.TID 0000.0001) // =======================================================
 cg2d: Sum(rhs),rhsMax =   3.91298853601252E+02  2.30274254068618E+02
(PID.TID 0000.0001)                    cg2d_init_res =    2.60691017136006E+00
(PID.TID 0000.0001)                       cg2d_iters =    69
(PID.TID 0000.0001)                         cg2d_res =    5.55449881168837E-07
(PID.TID 0000.0001) // =======================================================
(PID.TID 0000.0001) // Begin MONITOR dynamic field statistics
(PID.TID 0000.0001) // =======================================================
(PID.TID 0000.0001) %MON time_tsnumber                =                 36014
(PID.TID 0000.0001) %MON time_secondsf                =   3.1116096000000E+09
(PID.TID 0000.0001) %MON dynstat_eta_max              =   7.1737406658910E-01
(PID.TID 0000.0001) %MON dynstat_eta_min              =  -1.1957664827300E+01
(PID.TID 0000.0001) %MON dynstat_eta_mean             =  -5.8199562292381E-01
(PID.TID 0000.0001) %MON dynstat_eta_sd               =   1.6980787411116E+00
(PID.TID 0000.0001) %MON dynstat_eta_del2             =   2.1333899740921E-02
(PID.TID 0000.0001) %MON dynstat_uvel_max             =   1.7354201187243E-01
(PID.TID 0000.0001) %MON dynstat_uvel_min             =  -2.6595693345230E-01
(PID.TID 0000.0001) %MON dynstat_uvel_mean            =  -5.2179966155015E-04
(PID.TID 0000.0001) %MON dynstat_uvel_sd              =   1.2968171049948E-02
(PID.TID 0000.0001) %MON dynstat_uvel_del2            =   5.8534012499149E-05
(PID.TID 0000.0001) %MON dynstat_vvel_max             =   1.9417552573826E-01
(PID.TID 0000.0001) %MON dynstat_vvel_min             =  -2.1150857461706E-01
(PID.TID 0000.0001) %MON dynstat_vvel_mean            =  -4.1790641177427E-04
(PID.TID 0000.0001) %MON dynstat_vvel_sd              =   1.3473142215923E-02
(PID.TID 0000.0001) %MON dynstat_vvel_del2            =   5.5888122688380E-05
(PID.TID 0000.0001) %MON dynstat_wvel_max             =   9.1166675438452E-05
(PID.TID 0000.0001) %MON dynstat_wvel_min             =  -1.7742754454093E-04
(PID.TID 0000.0001) %MON dynstat_wvel_mean            =  -1.2779393595526E-09
(PID.TID 0000.0001) %MON dynstat_wvel_sd              =   4.6211943184065E-06
(PID.TID 0000.0001) %MON dynstat_wvel_del2            =   4.0313154771110E-08
(PID.TID 0000.0001) %MON dynstat_theta_max            =   2.9876343281487E+01
(PID.TID 0000.0001) %MON dynstat_theta_min            =  -3.4761606544430E+00
(PID.TID 0000.0001) %MON dynstat_theta_mean           =   3.5036957841209E+00
(PID.TID 0000.0001) %MON dynstat_theta_sd             =   4.7501710038010E+00
(PID.TID 0000.0001) %MON dynstat_theta_del2           =   2.9773687058513E-03
(PID.TID 0000.0001) %MON dynstat_salt_max             =   4.0839850493819E+01
(PID.TID 0000.0001) %MON dynstat_salt_min             =   1.8043033337739E+01
(PID.TID 0000.0001) %MON dynstat_salt_mean            =   3.4756117154598E+01
(PID.TID 0000.0001) %MON dynstat_salt_sd              =   5.1178212236331E-01
(PID.TID 0000.0001) %MON dynstat_salt_del2            =   8.4238605565147E-04
(PID.TID 0000.0001) %MON forcing_qnet_max             =   8.1232886498818E+02
(PID.TID 0000.0001) %MON forcing_qnet_min             =  -2.3404919253651E+02
(PID.TID 0000.0001) %MON forcing_qnet_mean            =  -6.3145784638051E+00
(PID.TID 0000.0001) %MON forcing_qnet_sd              =   1.2058917960438E+02
(PID.TID 0000.0001) %MON forcing_qnet_del2            =   1.0786348712968E+00
(PID.TID 0000.0001) %MON forcing_qsw_max              =  -0.0000000000000E+00
(PID.TID 0000.0001) %MON forcing_qsw_min              =  -3.3930406677812E+02
(PID.TID 0000.0001) %MON forcing_qsw_mean             =  -1.8662910694237E+02
(PID.TID 0000.0001) %MON forcing_qsw_sd               =   7.9150342108041E+01
(PID.TID 0000.0001) %MON forcing_qsw_del2             =   6.5503564490850E-01
(PID.TID 0000.0001) %MON forcing_empmr_max            =   3.0854992008648E-04
(PID.TID 0000.0001) %MON forcing_empmr_min            =  -3.2186406141683E-04
(PID.TID 0000.0001) %MON forcing_empmr_mean           =  -8.8064982184774E-07
(PID.TID 0000.0001) %MON forcing_empmr_sd             =   4.8232302154993E-05
(PID.TID 0000.0001) %MON forcing_empmr_del2           =   9.1366990456419E-07
(PID.TID 0000.0001) %MON forcing_fu_max               =   2.4839906243671E-01
(PID.TID 0000.0001) %MON forcing_fu_min               =  -2.4462500977759E-01
(PID.TID 0000.0001) %MON forcing_fu_mean              =  -3.9826545003281E-03
(PID.TID 0000.0001) %MON forcing_fu_sd                =   6.5104931934298E-02
(PID.TID 0000.0001) %MON forcing_fu_del2              =   2.2499056699550E-04
(PID.TID 0000.0001) %MON forcing_fv_max               =   2.8769312088010E-01
(PID.TID 0000.0001) %MON forcing_fv_min               =  -3.3716267516111E-01
(PID.TID 0000.0001) %MON forcing_fv_mean              =  -1.3735533615913E-02
(PID.TID 0000.0001) %MON forcing_fv_sd                =   7.6464336061349E-02
(PID.TID 0000.0001) %MON forcing_fv_del2              =   2.5132568855654E-04
(PID.TID 0000.0001) %MON advcfl_uvel_max              =   7.5430431180769E-02
(PID.TID 0000.0001) %MON advcfl_vvel_max              =   8.4638376082911E-02
(PID.TID 0000.0001) %MON advcfl_wvel_max              =   5.7848074899381E-02
(PID.TID 0000.0001) %MON advcfl_W_hf_max              =   6.3905985873335E-02
(PID.TID 0000.0001) %MON pe_b_mean                    =  -1.9243178654274E-03
(PID.TID 0000.0001) %MON ke_max                       =   3.5229955589623E-02
(PID.TID 0000.0001) %MON ke_mean                      =   1.6168347956035E-04
(PID.TID 0000.0001) %MON ke_vol                       =   1.3395906381231E+18
(PID.TID 0000.0001) %MON vort_r_min                   =  -1.2734979596035E-06
(PID.TID 0000.0001) %MON vort_r_max                   =   1.4089723554284E-06
(PID.TID 0000.0001) %MON vort_a_mean                  =  -2.0549865324846E-05
(PID.TID 0000.0001) %MON vort_a_sd                    =   7.5259582101505E-05
(PID.TID 0000.0001) %MON vort_p_mean                  =  -2.4787193509048E-05
(PID.TID 0000.0001) %MON vort_p_sd                    =   1.2817301427182E-04
(PID.TID 0000.0001) %MON surfExpan_theta_mean         =   7.7079818895513E-08
(PID.TID 0000.0001) %MON surfExpan_salt_mean          =   1.9614681891076E-08
(PID.TID 0000.0001) // =======================================================
(PID.TID 0000.0001) // End MONITOR dynamic field statistics
(PID.TID 0000.0001) // =======================================================
(PID.TID 0000.0001) // =======================================================
(PID.TID 0000.0001) // Begin MONITOR Therm.SeaIce statistics
(PID.TID 0000.0001) // =======================================================
(PID.TID 0000.0001) %MON thSI_time_sec                =   3.1116096000000E+09
(PID.TID 0000.0001) %MON thSI_Ice_Area_G              =   2.4930013382373E+13
(PID.TID 0000.0001) %MON thSI_Ice_Area_S              =   1.1527344318503E+13
(PID.TID 0000.0001) %MON thSI_Ice_Area_N              =   1.3402669063870E+13
(PID.TID 0000.0001) %MON thSI_IceH_ave_G              =   4.5613180653577E+00
(PID.TID 0000.0001) %MON thSI_IceH_ave_S              =   5.8540059755671E+00
(PID.TID 0000.0001) %MON thSI_IceH_ave_N              =   3.4495052938614E+00
(PID.TID 0000.0001) %MON thSI_IceH_max_S              =   1.0000000000000E+01
(PID.TID 0000.0001) %MON thSI_IceH_max_N              =   1.0000000000000E+01
(PID.TID 0000.0001) %MON thSI_SnwH_ave_G              =   1.0007954045188E+00
(PID.TID 0000.0001) %MON thSI_SnwH_ave_S              =   1.7335009815323E+00
(PID.TID 0000.0001) %MON thSI_SnwH_ave_N              =   3.7061126507090E-01
(PID.TID 0000.0001) %MON thSI_SnwH_max_S              =   4.0931829494980E+00
(PID.TID 0000.0001) %MON thSI_SnwH_max_N              =   4.1049930860985E+00
(PID.TID 0000.0001) %MON thSI_Tsrf_ave_G              =  -1.7775516000780E+01
(PID.TID 0000.0001) %MON thSI_Tsrf_ave_S              =  -1.4831260848882E-01
(PID.TID 0000.0001) %MON thSI_Tsrf_ave_N              =  -3.2936290463456E+01
(PID.TID 0000.0001) %MON thSI_Tsrf_min_S              =  -5.5142622642460E+00
(PID.TID 0000.0001) %MON thSI_Tsrf_min_N              =  -4.7732550087572E+01
(PID.TID 0000.0001) %MON thSI_Tsrf_max_S              =   0.0000000000000E+00
(PID.TID 0000.0001) %MON thSI_Tsrf_max_N              =  -7.3680002164795E+00
(PID.TID 0000.0001) %MON thSI_Tic1_ave_G              =  -8.6303545688120E+00
(PID.TID 0000.0001) %MON thSI_Tic1_ave_S              =  -4.8569527436453E+00
(PID.TID 0000.0001) %MON thSI_Tic1_ave_N              =  -1.4138017736090E+01
(PID.TID 0000.0001) %MON thSI_Tic1_min_S              =  -1.4660760778607E+01
(PID.TID 0000.0001) %MON thSI_Tic1_min_N              =  -2.1501493250135E+01
(PID.TID 0000.0001) %MON thSI_Tic1_max_S              =  -1.6093929460901E-01
(PID.TID 0000.0001) %MON thSI_Tic1_max_N              =  -8.6662576935006E-01
(PID.TID 0000.0001) %MON thSI_Tic2_ave_G              =  -3.9102525212702E+00
(PID.TID 0000.0001) %MON thSI_Tic2_ave_S              =  -3.0534402067594E+00
(PID.TID 0000.0001) %MON thSI_Tic2_ave_N              =  -5.1608571068800E+00
(PID.TID 0000.0001) %MON thSI_Tic2_min_S              =  -8.3951639892979E+00
(PID.TID 0000.0001) %MON thSI_Tic2_min_N              =  -7.8438840895258E+00
(PID.TID 0000.0001) %MON thSI_Tic2_max_S              =  -9.6811706984241E-01
(PID.TID 0000.0001) %MON thSI_Tic2_max_N              =  -1.3623327669032E+00
(PID.TID 0000.0001) %MON thSI_TotEnerg_G              =  -3.8079763240338E+22
(PID.TID 0000.0001) // =======================================================
(PID.TID 0000.0001) // End MONITOR Therm.SeaIce statistics
(PID.TID 0000.0001) // =======================================================
 cg2d: Sum(rhs),rhsMax =   3.91244729458466E+02  2.30381959125033E+02
(PID.TID 0000.0001)                    cg2d_init_res =    2.58048674627573E+00
(PID.TID 0000.0001)                       cg2d_iters =    69
(PID.TID 0000.0001)                         cg2d_res =    5.49118874123129E-07
(PID.TID 0000.0001) // =======================================================
(PID.TID 0000.0001) // Begin MONITOR dynamic field statistics
(PID.TID 0000.0001) // =======================================================
(PID.TID 0000.0001) %MON time_tsnumber                =                 36015
(PID.TID 0000.0001) %MON time_secondsf                =   3.1116960000000E+09
(PID.TID 0000.0001) %MON dynstat_eta_max              =   7.1611388842789E-01
(PID.TID 0000.0001) %MON dynstat_eta_min              =  -1.1954543683474E+01
(PID.TID 0000.0001) %MON dynstat_eta_mean             =  -5.8191512175723E-01
(PID.TID 0000.0001) %MON dynstat_eta_sd               =   1.6975911317112E+00
(PID.TID 0000.0001) %MON dynstat_eta_del2             =   2.1341086569825E-02
(PID.TID 0000.0001) %MON dynstat_uvel_max             =   1.7320618878921E-01
(PID.TID 0000.0001) %MON dynstat_uvel_min             =  -2.6546761818072E-01
(PID.TID 0000.0001) %MON dynstat_uvel_mean            =  -5.2103512992686E-04
(PID.TID 0000.0001) %MON dynstat_uvel_sd              =   1.2967109948063E-02
(PID.TID 0000.0001) %MON dynstat_uvel_del2            =   5.8521021768573E-05
(PID.TID 0000.0001) %MON dynstat_vvel_max             =   1.9380511498495E-01
(PID.TID 0000.0001) %MON dynstat_vvel_min             =  -2.1153750379226E-01
(PID.TID 0000.0001) %MON dynstat_vvel_mean            =  -4.1737971311213E-04
(PID.TID 0000.0001) %MON dynstat_vvel_sd              =   1.3470381798103E-02
(PID.TID 0000.0001) %MON dynstat_vvel_del2            =   5.5862052890844E-05
(PID.TID 0000.0001) %MON dynstat_wvel_max             =   9.1739669251881E-05
(PID.TID 0000.0001) %MON dynstat_wvel_min             =  -1.7718879980210E-04
(PID.TID 0000.0001) %MON dynstat_wvel_mean            =  -1.2817932423782E-09
(PID.TID 0000.0001) %MON dynstat_wvel_sd              =   4.6212282543157E-06
(PID.TID 0000.0001) %MON dynstat_wvel_del2            =   4.0302273291719E-08
(PID.TID 0000.0001) %MON dynstat_theta_max            =   2.9861539224238E+01
(PID.TID 0000.0001) %MON dynstat_theta_min            =  -3.4942552966538E+00
(PID.TID 0000.0001) %MON dynstat_theta_mean           =   3.5037669637992E+00
(PID.TID 0000.0001) %MON dynstat_theta_sd             =   4.7503177721078E+00
(PID.TID 0000.0001) %MON dynstat_theta_del2           =   2.9804132318125E-03
(PID.TID 0000.0001) %MON dynstat_salt_max             =   4.0840584655423E+01
(PID.TID 0000.0001) %MON dynstat_salt_min             =   1.8093809723115E+01
(PID.TID 0000.0001) %MON dynstat_salt_mean            =   3.4756117465206E+01
(PID.TID 0000.0001) %MON dynstat_salt_sd              =   5.1177485228369E-01
(PID.TID 0000.0001) %MON dynstat_salt_del2            =   8.4266011393589E-04
(PID.TID 0000.0001) %MON forcing_qnet_max             =   8.1538008368983E+02
(PID.TID 0000.0001) %MON forcing_qnet_min             =  -2.3367839909710E+02
(PID.TID 0000.0001) %MON forcing_qnet_mean            =  -6.3824683634678E+00
(PID.TID 0000.0001) %MON forcing_qnet_sd              =   1.2067440498197E+02
(PID.TID 0000.0001) %MON forcing_qnet_del2            =   1.0862070474926E+00
(PID.TID 0000.0001) %MON forcing_qsw_max              =  -0.0000000000000E+00
(PID.TID 0000.0001) %MON forcing_qsw_min              =  -3.3910002413092E+02
(PID.TID 0000.0001) %MON forcing_qsw_mean             =  -1.8663746921467E+02
(PID.TID 0000.0001) %MON forcing_qsw_sd               =   7.9015101708171E+01
(PID.TID 0000.0001) %MON forcing_qsw_del2             =   6.5229829940897E-01
(PID.TID 0000.0001) %MON forcing_empmr_max            =   2.6780416732051E-04
(PID.TID 0000.0001) %MON forcing_empmr_min            =  -3.2195583800067E-04
(PID.TID 0000.0001) %MON forcing_empmr_mean           =  -9.6433689129306E-07
(PID.TID 0000.0001) %MON forcing_empmr_sd             =   4.8116623436947E-05
(PID.TID 0000.0001) %MON forcing_empmr_del2           =   9.0292527184252E-07
(PID.TID 0000.0001) %MON forcing_fu_max               =   2.4866343693550E-01
(PID.TID 0000.0001) %MON forcing_fu_min               =  -2.4810804207900E-01
(PID.TID 0000.0001) %MON forcing_fu_mean              =  -3.9391755645947E-03
(PID.TID 0000.0001) %MON forcing_fu_sd                =   6.5286328792105E-02
(PID.TID 0000.0001) %MON forcing_fu_del2              =   2.2797906587778E-04
(PID.TID 0000.0001) %MON forcing_fv_max               =   2.9037636245273E-01
(PID.TID 0000.0001) %MON forcing_fv_min               =  -3.3795057909504E-01
(PID.TID 0000.0001) %MON forcing_fv_mean              =  -1.3739459161841E-02
(PID.TID 0000.0001) %MON forcing_fv_sd                =   7.6635516474945E-02
(PID.TID 0000.0001) %MON forcing_fv_del2              =   2.5394204351914E-04
(PID.TID 0000.0001) %MON advcfl_uvel_max              =   7.5291652088080E-02
(PID.TID 0000.0001) %MON advcfl_vvel_max              =   8.4476919253969E-02
(PID.TID 0000.0001) %MON advcfl_wvel_max              =   5.7770235105288E-02
(PID.TID 0000.0001) %MON advcfl_W_hf_max              =   6.3820029943965E-02
(PID.TID 0000.0001) %MON pe_b_mean                    =  -1.9233537690169E-03
(PID.TID 0000.0001) %MON ke_max                       =   3.5089949808663E-02
(PID.TID 0000.0001) %MON ke_mean                      =   1.6163577938540E-04
(PID.TID 0000.0001) %MON ke_vol                       =   1.3395906648743E+18
(PID.TID 0000.0001) %MON vort_r_min                   =  -1.2786015054104E-06
(PID.TID 0000.0001) %MON vort_r_max                   =   1.4115440661905E-06
(PID.TID 0000.0001) %MON vort_a_mean                  =  -2.0549865324846E-05
(PID.TID 0000.0001) %MON vort_a_sd                    =   7.5259582029271E-05
(PID.TID 0000.0001) %MON vort_p_mean                  =  -2.4787192758146E-05
(PID.TID 0000.0001) %MON vort_p_sd                    =   1.2817301331894E-04
(PID.TID 0000.0001) %MON surfExpan_theta_mean         =   7.6049992196079E-08
(PID.TID 0000.0001) %MON surfExpan_salt_mean          =   1.9630823442856E-08
(PID.TID 0000.0001) // =======================================================
(PID.TID 0000.0001) // End MONITOR dynamic field statistics
(PID.TID 0000.0001) // =======================================================
(PID.TID 0000.0001) // =======================================================
(PID.TID 0000.0001) // Begin MONITOR Therm.SeaIce statistics
(PID.TID 0000.0001) // =======================================================
(PID.TID 0000.0001) %MON thSI_time_sec                =   3.1116960000000E+09
(PID.TID 0000.0001) %MON thSI_Ice_Area_G              =   2.4912537540423E+13
(PID.TID 0000.0001) %MON thSI_Ice_Area_S              =   1.1493629526120E+13
(PID.TID 0000.0001) %MON thSI_Ice_Area_N              =   1.3418908014302E+13
(PID.TID 0000.0001) %MON thSI_IceH_ave_G              =   4.5637624130641E+00
(PID.TID 0000.0001) %MON thSI_IceH_ave_S              =   5.8643363094968E+00
(PID.TID 0000.0001) %MON thSI_IceH_ave_N              =   3.4497884204703E+00
(PID.TID 0000.0001) %MON thSI_IceH_max_S              =   1.0000000000000E+01
(PID.TID 0000.0001) %MON thSI_IceH_max_N              =   1.0000000000000E+01
(PID.TID 0000.0001) %MON thSI_SnwH_ave_G              =   9.9835185607130E-01
(PID.TID 0000.0001) %MON thSI_SnwH_ave_S              =   1.7283329153467E+00
(PID.TID 0000.0001) %MON thSI_SnwH_ave_N              =   3.7310486522421E-01
(PID.TID 0000.0001) %MON thSI_SnwH_max_S              =   4.0931270742122E+00
(PID.TID 0000.0001) %MON thSI_SnwH_max_N              =   4.1053702345527E+00
(PID.TID 0000.0001) %MON thSI_Tsrf_ave_G              =  -1.7849129916680E+01
(PID.TID 0000.0001) %MON thSI_Tsrf_ave_S              =  -1.3169074349812E-01
(PID.TID 0000.0001) %MON thSI_Tsrf_ave_N              =  -3.3024558631974E+01
(PID.TID 0000.0001) %MON thSI_Tsrf_min_S              =  -5.5301433622749E+00
(PID.TID 0000.0001) %MON thSI_Tsrf_min_N              =  -4.7847784666728E+01
(PID.TID 0000.0001) %MON thSI_Tsrf_max_S              =   0.0000000000000E+00
(PID.TID 0000.0001) %MON thSI_Tsrf_max_N              =  -7.6302321053172E+00
(PID.TID 0000.0001) %MON thSI_Tic1_ave_G              =  -8.6512414652551E+00
(PID.TID 0000.0001) %MON thSI_Tic1_ave_S              =  -4.8366293748339E+00
(PID.TID 0000.0001) %MON thSI_Tic1_ave_N              =  -1.4205381276357E+01
(PID.TID 0000.0001) %MON thSI_Tic1_min_S              =  -1.4529752898170E+01
(PID.TID 0000.0001) %MON thSI_Tic1_min_N              =  -2.1566733407177E+01
(PID.TID 0000.0001) %MON thSI_Tic1_max_S              =  -1.5593667490538E-01
(PID.TID 0000.0001) %MON thSI_Tic1_max_N              =  -8.9121204477310E-01
(PID.TID 0000.0001) %MON thSI_Tic2_ave_G              =  -3.9203009705686E+00
(PID.TID 0000.0001) %MON thSI_Tic2_ave_S              =  -3.0494517294379E+00
(PID.TID 0000.0001) %MON thSI_Tic2_ave_N              =  -5.1882722150832E+00
(PID.TID 0000.0001) %MON thSI_Tic2_min_S              =  -8.3614740129122E+00
(PID.TID 0000.0001) %MON thSI_Tic2_min_N              =  -7.8697514121839E+00
(PID.TID 0000.0001) %MON thSI_Tic2_max_S              =  -9.9312911587937E-01
(PID.TID 0000.0001) %MON thSI_Tic2_max_N              =  -1.3762295861468E+00
(PID.TID 0000.0001) %MON thSI_TotEnerg_G              =  -3.8067624840908E+22
(PID.TID 0000.0001) // =======================================================
(PID.TID 0000.0001) // End MONITOR Therm.SeaIce statistics
(PID.TID 0000.0001) // =======================================================
S/R BULKF_FIELDS_LOAD: Reading new data:    1    2     36015  3.111696000000E+09
(PID.TID 0000.0001)  MDS_READ_FIELD: opening global file: ncep_tair_cs.bin
(PID.TID 0000.0001)  MDS_READ_FIELD: opening global file: ncep_tair_cs.bin
(PID.TID 0000.0001)  MDS_READ_FIELD: opening global file: ncep_qair_cs.bin
(PID.TID 0000.0001)  MDS_READ_FIELD: opening global file: ncep_qair_cs.bin
(PID.TID 0000.0001)  MDS_READ_FIELD: opening global file: ncep_downsolar_cs.bin
(PID.TID 0000.0001)  MDS_READ_FIELD: opening global file: ncep_downsolar_cs.bin
(PID.TID 0000.0001)  MDS_READ_FIELD: opening global file: ncep_downlw_cs.bin
(PID.TID 0000.0001)  MDS_READ_FIELD: opening global file: ncep_downlw_cs.bin
(PID.TID 0000.0001)  MDS_READ_FIELD: opening global file: ncep_windspeed_cs.bin
(PID.TID 0000.0001)  MDS_READ_FIELD: opening global file: ncep_windspeed_cs.bin
(PID.TID 0000.0001)  MDS_READ_FIELD: opening global file: ncep_pr_scal_cs.bin
(PID.TID 0000.0001)  MDS_READ_FIELD: opening global file: ncep_pr_scal_cs.bin
S/R EXTERNAL_FIELDS_LOAD: Reading new data:    1    2     36015  3.111696000000E+09
(PID.TID 0000.0001)  MDS_READ_FIELD: opening global file: trenberth_taux.bin
(PID.TID 0000.0001)  MDS_READ_FIELD: opening global file: trenberth_taux.bin
(PID.TID 0000.0001)  MDS_READ_FIELD: opening global file: trenberth_tauy.bin
(PID.TID 0000.0001)  MDS_READ_FIELD: opening global file: trenberth_tauy.bin
(PID.TID 0000.0001)  MDS_READ_FIELD: opening global file: lev_surfT_cs_12m.bin
(PID.TID 0000.0001)  MDS_READ_FIELD: opening global file: lev_surfT_cs_12m.bin
(PID.TID 0000.0001)  MDS_READ_FIELD: opening global file: lev_surfS_cs_12m.bin
(PID.TID 0000.0001)  MDS_READ_FIELD: opening global file: lev_surfS_cs_12m.bin
 cg2d: Sum(rhs),rhsMax =   3.91185325996692E+02  2.30486310409112E+02
(PID.TID 0000.0001)                    cg2d_init_res =    2.53105133743304E+00
(PID.TID 0000.0001)                       cg2d_iters =    69
(PID.TID 0000.0001)                         cg2d_res =    5.33592759075956E-07
(PID.TID 0000.0001) // =======================================================
(PID.TID 0000.0001) // Begin MONITOR dynamic field statistics
(PID.TID 0000.0001) // =======================================================
(PID.TID 0000.0001) %MON time_tsnumber                =                 36016
(PID.TID 0000.0001) %MON time_secondsf                =   3.1117824000000E+09
(PID.TID 0000.0001) %MON dynstat_eta_max              =   7.1488498299476E-01
(PID.TID 0000.0001) %MON dynstat_eta_min              =  -1.1951284945205E+01
(PID.TID 0000.0001) %MON dynstat_eta_mean             =  -5.8182676843235E-01
(PID.TID 0000.0001) %MON dynstat_eta_sd               =   1.6970909606190E+00
(PID.TID 0000.0001) %MON dynstat_eta_del2             =   2.1348455677511E-02
(PID.TID 0000.0001) %MON dynstat_uvel_max             =   1.7283827255171E-01
(PID.TID 0000.0001) %MON dynstat_uvel_min             =  -2.6496468487214E-01
(PID.TID 0000.0001) %MON dynstat_uvel_mean            =  -5.2022312476813E-04
(PID.TID 0000.0001) %MON dynstat_uvel_sd              =   1.2966244720910E-02
(PID.TID 0000.0001) %MON dynstat_uvel_del2            =   5.8510967564953E-05
(PID.TID 0000.0001) %MON dynstat_vvel_max             =   1.9338801491522E-01
(PID.TID 0000.0001) %MON dynstat_vvel_min             =  -2.1156197882242E-01
(PID.TID 0000.0001) %MON dynstat_vvel_mean            =  -4.1684625488476E-04
(PID.TID 0000.0001) %MON dynstat_vvel_sd              =   1.3467369425564E-02
(PID.TID 0000.0001) %MON dynstat_vvel_del2            =   5.5837601101632E-05
(PID.TID 0000.0001) %MON dynstat_wvel_max             =   9.2252842315457E-05
(PID.TID 0000.0001) %MON dynstat_wvel_min             =  -1.7694033076195E-04
(PID.TID 0000.0001) %MON dynstat_wvel_mean            =  -1.2898062539275E-09
(PID.TID 0000.0001) %MON dynstat_wvel_sd              =   4.6212226293989E-06
(PID.TID 0000.0001) %MON dynstat_wvel_del2            =   4.0288248466499E-08
(PID.TID 0000.0001) %MON dynstat_theta_max            =   2.9846689842694E+01
(PID.TID 0000.0001) %MON dynstat_theta_min            =  -3.5122955476190E+00
(PID.TID 0000.0001) %MON dynstat_theta_mean           =   3.5038383551257E+00
(PID.TID 0000.0001) %MON dynstat_theta_sd             =   4.7504717729839E+00
(PID.TID 0000.0001) %MON dynstat_theta_del2           =   2.9850292200184E-03
(PID.TID 0000.0001) %MON dynstat_salt_max             =   4.0841190697168E+01
(PID.TID 0000.0001) %MON dynstat_salt_min             =   1.8095233471110E+01
(PID.TID 0000.0001) %MON dynstat_salt_mean            =   3.4756117723137E+01
(PID.TID 0000.0001) %MON dynstat_salt_sd              =   5.1176820749556E-01
(PID.TID 0000.0001) %MON dynstat_salt_del2            =   8.4334743837496E-04
(PID.TID 0000.0001) %MON forcing_qnet_max             =   8.1841713990377E+02
(PID.TID 0000.0001) %MON forcing_qnet_min             =  -2.3330931537991E+02
(PID.TID 0000.0001) %MON forcing_qnet_mean            =  -6.4213345363429E+00
(PID.TID 0000.0001) %MON forcing_qnet_sd              =   1.2080732031986E+02
(PID.TID 0000.0001) %MON forcing_qnet_del2            =   1.0946546910177E+00
(PID.TID 0000.0001) %MON forcing_qsw_max              =  -0.0000000000000E+00
(PID.TID 0000.0001) %MON forcing_qsw_min              =  -3.3889598148373E+02
(PID.TID 0000.0001) %MON forcing_qsw_mean             =  -1.8664899329531E+02
(PID.TID 0000.0001) %MON forcing_qsw_sd               =   7.8879491330213E+01
(PID.TID 0000.0001) %MON forcing_qsw_del2             =   6.4977660420779E-01
(PID.TID 0000.0001) %MON forcing_empmr_max            =   2.3999387230276E-04
(PID.TID 0000.0001) %MON forcing_empmr_min            =  -3.2098824636312E-04
(PID.TID 0000.0001) %MON forcing_empmr_mean           =  -1.0583992043643E-06
(PID.TID 0000.0001) %MON forcing_empmr_sd             =   4.7942961153033E-05
(PID.TID 0000.0001) %MON forcing_empmr_del2           =   8.8381054011945E-07
(PID.TID 0000.0001) %MON forcing_fu_max               =   2.4892781143428E-01
(PID.TID 0000.0001) %MON forcing_fu_min               =  -2.5159107438040E-01
(PID.TID 0000.0001) %MON forcing_fu_mean              =  -3.8956966288612E-03
(PID.TID 0000.0001) %MON forcing_fu_sd                =   6.5480383395885E-02
(PID.TID 0000.0001) %MON forcing_fu_del2              =   2.3114393556995E-04
(PID.TID 0000.0001) %MON forcing_fv_max               =   2.9305960402537E-01
(PID.TID 0000.0001) %MON forcing_fv_min               =  -3.3950131228473E-01
(PID.TID 0000.0001) %MON forcing_fv_mean              =  -1.3743384707768E-02
(PID.TID 0000.0001) %MON forcing_fv_sd                =   7.6816469815204E-02
(PID.TID 0000.0001) %MON forcing_fv_del2              =   2.5671701728584E-04
(PID.TID 0000.0001) %MON advcfl_uvel_max              =   7.5149010661783E-02
(PID.TID 0000.0001) %MON advcfl_vvel_max              =   8.4295111209769E-02
(PID.TID 0000.0001) %MON advcfl_wvel_max              =   5.7689224822011E-02
(PID.TID 0000.0001) %MON advcfl_W_hf_max              =   6.3730573652917E-02
(PID.TID 0000.0001) %MON pe_b_mean                    =  -1.9223736688017E-03
(PID.TID 0000.0001) %MON ke_max                       =   3.4947482410815E-02
(PID.TID 0000.0001) %MON ke_mean                      =   1.6158724773682E-04
(PID.TID 0000.0001) %MON ke_vol                       =   1.3395906941676E+18
(PID.TID 0000.0001) %MON vort_r_min                   =  -1.2836458756132E-06
(PID.TID 0000.0001) %MON vort_r_max                   =   1.4138278528544E-06
(PID.TID 0000.0001) %MON vort_a_mean                  =  -2.0549865324846E-05
(PID.TID 0000.0001) %MON vort_a_sd                    =   7.5259581961757E-05
(PID.TID 0000.0001) %MON vort_p_mean                  =  -2.4787191973045E-05
(PID.TID 0000.0001) %MON vort_p_sd                    =   1.2817301136683E-04
(PID.TID 0000.0001) %MON surfExpan_theta_mean         =   7.5167045854505E-08
(PID.TID 0000.0001) %MON surfExpan_salt_mean          =   1.9657032865232E-08
(PID.TID 0000.0001) // =======================================================
(PID.TID 0000.0001) // End MONITOR dynamic field statistics
(PID.TID 0000.0001) // =======================================================
(PID.TID 0000.0001) // =======================================================
(PID.TID 0000.0001) // Begin MONITOR Therm.SeaIce statistics
(PID.TID 0000.0001) // =======================================================
(PID.TID 0000.0001) %MON thSI_time_sec                =   3.1117824000000E+09
(PID.TID 0000.0001) %MON thSI_Ice_Area_G              =   2.4891960339524E+13
(PID.TID 0000.0001) %MON thSI_Ice_Area_S              =   1.1459126737552E+13
(PID.TID 0000.0001) %MON thSI_Ice_Area_N              =   1.3432833601971E+13
(PID.TID 0000.0001) %MON thSI_IceH_ave_G              =   4.5665948294328E+00
(PID.TID 0000.0001) %MON thSI_IceH_ave_S              =   5.8749829344990E+00
(PID.TID 0000.0001) %MON thSI_IceH_ave_N              =   3.4504501973978E+00
(PID.TID 0000.0001) %MON thSI_IceH_max_S              =   1.0000000000000E+01
(PID.TID 0000.0001) %MON thSI_IceH_max_N              =   1.0000000000000E+01
(PID.TID 0000.0001) %MON thSI_SnwH_ave_G              =   9.9623716274844E-01
(PID.TID 0000.0001) %MON thSI_SnwH_ave_S              =   1.7237247639631E+00
(PID.TID 0000.0001) %MON thSI_SnwH_ave_N              =   3.7564043168390E-01
(PID.TID 0000.0001) %MON thSI_SnwH_max_S              =   4.0930733786376E+00
(PID.TID 0000.0001) %MON thSI_SnwH_max_N              =   4.1057478290238E+00
(PID.TID 0000.0001) %MON thSI_Tsrf_ave_G              =  -1.7939195427990E+01
(PID.TID 0000.0001) %MON thSI_Tsrf_ave_S              =  -1.5216632701182E-01
(PID.TID 0000.0001) %MON thSI_Tsrf_ave_N              =  -3.3112749034932E+01
(PID.TID 0000.0001) %MON thSI_Tsrf_min_S              =  -5.5459877382837E+00
(PID.TID 0000.0001) %MON thSI_Tsrf_min_N              =  -4.7963087635094E+01
(PID.TID 0000.0001) %MON thSI_Tsrf_max_S              =   0.0000000000000E+00
(PID.TID 0000.0001) %MON thSI_Tsrf_max_N              =  -7.8486971913318E+00
(PID.TID 0000.0001) %MON thSI_Tic1_ave_G              =  -8.6698155116390E+00
(PID.TID 0000.0001) %MON thSI_Tic1_ave_S              =  -4.8131578138878E+00
(PID.TID 0000.0001) %MON thSI_Tic1_ave_N              =  -1.4271592666219E+01
(PID.TID 0000.0001) %MON thSI_Tic1_min_S              =  -1.4400240726241E+01
(PID.TID 0000.0001) %MON thSI_Tic1_min_N              =  -2.1666976584978E+01
(PID.TID 0000.0001) %MON thSI_Tic1_max_S              =  -1.5122458804757E-01
(PID.TID 0000.0001) %MON thSI_Tic1_max_N              =  -9.1696099908928E-01
(PID.TID 0000.0001) %MON thSI_Tic2_ave_G              =  -3.9301348142310E+00
(PID.TID 0000.0001) %MON thSI_Tic2_ave_S              =  -3.0453522899102E+00
(PID.TID 0000.0001) %MON thSI_Tic2_ave_N              =  -5.2152772665678E+00
(PID.TID 0000.0001) %MON thSI_Tic2_min_S              =  -8.3266000794908E+00
(PID.TID 0000.0001) %MON thSI_Tic2_min_N              =  -7.8948015172622E+00
(PID.TID 0000.0001) %MON thSI_Tic2_max_S              =  -9.6594499550928E-01
(PID.TID 0000.0001) %MON thSI_Tic2_max_N              =  -1.3897142727310E+00
(PID.TID 0000.0001) %MON thSI_TotEnerg_G              =  -3.8054401941710E+22
(PID.TID 0000.0001) // =======================================================
(PID.TID 0000.0001) // End MONITOR Therm.SeaIce statistics
(PID.TID 0000.0001) // =======================================================
 cg2d: Sum(rhs),rhsMax =   3.91137986212888E+02  2.30586335088459E+02
(PID.TID 0000.0001)                    cg2d_init_res =    2.50737453752571E+00
(PID.TID 0000.0001)                       cg2d_iters =    69
(PID.TID 0000.0001)                         cg2d_res =    5.29878022138561E-07
(PID.TID 0000.0001) // =======================================================
(PID.TID 0000.0001) // Begin MONITOR dynamic field statistics
(PID.TID 0000.0001) // =======================================================
(PID.TID 0000.0001) %MON time_tsnumber                =                 36017
(PID.TID 0000.0001) %MON time_secondsf                =   3.1118688000000E+09
(PID.TID 0000.0001) %MON dynstat_eta_max              =   7.1382313292827E-01
(PID.TID 0000.0001) %MON dynstat_eta_min              =  -1.1948141799486E+01
(PID.TID 0000.0001) %MON dynstat_eta_mean             =  -5.8175635793482E-01
(PID.TID 0000.0001) %MON dynstat_eta_sd               =   1.6966340017210E+00
(PID.TID 0000.0001) %MON dynstat_eta_del2             =   2.1356280157183E-02
(PID.TID 0000.0001) %MON dynstat_uvel_max             =   1.7257288994703E-01
(PID.TID 0000.0001) %MON dynstat_uvel_min             =  -2.6445237182875E-01
(PID.TID 0000.0001) %MON dynstat_uvel_mean            =  -5.1939423111846E-04
(PID.TID 0000.0001) %MON dynstat_uvel_sd              =   1.2965661880857E-02
(PID.TID 0000.0001) %MON dynstat_uvel_del2            =   5.8502622335121E-05
(PID.TID 0000.0001) %MON dynstat_vvel_max             =   1.9292795055631E-01
(PID.TID 0000.0001) %MON dynstat_vvel_min             =  -2.1157503819145E-01
(PID.TID 0000.0001) %MON dynstat_vvel_mean            =  -4.1630896156388E-04
(PID.TID 0000.0001) %MON dynstat_vvel_sd              =   1.3463815777017E-02
(PID.TID 0000.0001) %MON dynstat_vvel_del2            =   5.5814557660633E-05
(PID.TID 0000.0001) %MON dynstat_wvel_max             =   9.2718497826848E-05
(PID.TID 0000.0001) %MON dynstat_wvel_min             =  -1.7668729590302E-04
(PID.TID 0000.0001) %MON dynstat_wvel_mean            =  -1.2450922336620E-09
(PID.TID 0000.0001) %MON dynstat_wvel_sd              =   4.6211465608393E-06
(PID.TID 0000.0001) %MON dynstat_wvel_del2            =   4.0272142175052E-08
(PID.TID 0000.0001) %MON dynstat_theta_max            =   2.9831937878303E+01
(PID.TID 0000.0001) %MON dynstat_theta_min            =  -3.5303372884598E+00
(PID.TID 0000.0001) %MON dynstat_theta_mean           =   3.5039114366013E+00
(PID.TID 0000.0001) %MON dynstat_theta_sd             =   4.7506381250515E+00
(PID.TID 0000.0001) %MON dynstat_theta_del2           =   2.9893825365562E-03
(PID.TID 0000.0001) %MON dynstat_salt_max             =   4.0841677349579E+01
(PID.TID 0000.0001) %MON dynstat_salt_min             =   1.8096651669656E+01
(PID.TID 0000.0001) %MON dynstat_salt_mean            =   3.4756118155337E+01
(PID.TID 0000.0001) %MON dynstat_salt_sd              =   5.1176105627020E-01
(PID.TID 0000.0001) %MON dynstat_salt_del2            =   8.4399154994265E-04
(PID.TID 0000.0001) %MON forcing_qnet_max             =   8.1145496619929E+02
(PID.TID 0000.0001) %MON forcing_qnet_min             =  -2.3176764085007E+02
(PID.TID 0000.0001) %MON forcing_qnet_mean            =  -6.6472969211290E+00
(PID.TID 0000.0001) %MON forcing_qnet_sd              =   1.1870823731159E+02
(PID.TID 0000.0001) %MON forcing_qnet_del2            =   1.0846592320291E+00
(PID.TID 0000.0001) %MON forcing_qsw_max              =  -0.0000000000000E+00
(PID.TID 0000.0001) %MON forcing_qsw_min              =  -3.3787837809554E+02
(PID.TID 0000.0001) %MON forcing_qsw_mean             =  -1.8661941074957E+02
(PID.TID 0000.0001) %MON forcing_qsw_sd               =   7.8409216894250E+01
(PID.TID 0000.0001) %MON forcing_qsw_del2             =   6.4439992217009E-01
(PID.TID 0000.0001) %MON forcing_empmr_max            =   4.6164105776294E-04
(PID.TID 0000.0001) %MON forcing_empmr_min            =  -3.1726008424470E-04
(PID.TID 0000.0001) %MON forcing_empmr_mean           =  -8.4345908496529E-07
(PID.TID 0000.0001) %MON forcing_empmr_sd             =   4.8098049809882E-05
(PID.TID 0000.0001) %MON forcing_empmr_del2           =   8.8858766218931E-07
(PID.TID 0000.0001) %MON forcing_fu_max               =   2.4586080052368E-01
(PID.TID 0000.0001) %MON forcing_fu_min               =  -2.4690104382675E-01
(PID.TID 0000.0001) %MON forcing_fu_mean              =  -3.9278253198990E-03
(PID.TID 0000.0001) %MON forcing_fu_sd                =   6.5282090105345E-02
(PID.TID 0000.0001) %MON forcing_fu_del2              =   2.2765741152947E-04
(PID.TID 0000.0001) %MON forcing_fv_max               =   2.9225622243089E-01
(PID.TID 0000.0001) %MON forcing_fv_min               =  -3.3606226010595E-01
(PID.TID 0000.0001) %MON forcing_fv_mean              =  -1.3741594714266E-02
(PID.TID 0000.0001) %MON forcing_fv_sd                =   7.6550053729987E-02
(PID.TID 0000.0001) %MON forcing_fv_del2              =   2.5418174123344E-04
(PID.TID 0000.0001) %MON advcfl_uvel_max              =   7.5003708964773E-02
(PID.TID 0000.0001) %MON advcfl_vvel_max              =   8.4094575637206E-02
(PID.TID 0000.0001) %MON advcfl_wvel_max              =   5.7606725909514E-02
(PID.TID 0000.0001) %MON advcfl_W_hf_max              =   6.3639473937606E-02
(PID.TID 0000.0001) %MON pe_b_mean                    =  -1.9215925032865E-03
(PID.TID 0000.0001) %MON ke_max                       =   3.4804936315104E-02
(PID.TID 0000.0001) %MON ke_mean                      =   1.6153531828135E-04
(PID.TID 0000.0001) %MON ke_vol                       =   1.3395907263182E+18
(PID.TID 0000.0001) %MON vort_r_min                   =  -1.2884370648247E-06
(PID.TID 0000.0001) %MON vort_r_max                   =   1.4155833308234E-06
(PID.TID 0000.0001) %MON vort_a_mean                  =  -2.0549865324846E-05
(PID.TID 0000.0001) %MON vort_a_sd                    =   7.5259581905747E-05
(PID.TID 0000.0001) %MON vort_p_mean                  =  -2.4787191144727E-05
(PID.TID 0000.0001) %MON vort_p_sd                    =   1.2817300813596E-04
(PID.TID 0000.0001) %MON surfExpan_theta_mean         =   7.3816491965627E-08
(PID.TID 0000.0001) %MON surfExpan_salt_mean          =   1.9539701124791E-08
(PID.TID 0000.0001) // =======================================================
(PID.TID 0000.0001) // End MONITOR dynamic field statistics
(PID.TID 0000.0001) // =======================================================
(PID.TID 0000.0001) // =======================================================
(PID.TID 0000.0001) // Begin MONITOR Therm.SeaIce statistics
(PID.TID 0000.0001) // =======================================================
(PID.TID 0000.0001) %MON thSI_time_sec                =   3.1118688000000E+09
(PID.TID 0000.0001) %MON thSI_Ice_Area_G              =   2.4892962548994E+13
(PID.TID 0000.0001) %MON thSI_Ice_Area_S              =   1.1419588744100E+13
(PID.TID 0000.0001) %MON thSI_Ice_Area_N              =   1.3473373804894E+13
(PID.TID 0000.0001) %MON thSI_IceH_ave_G              =   4.5656876976229E+00
(PID.TID 0000.0001) %MON thSI_IceH_ave_S              =   5.8883865710959E+00
(PID.TID 0000.0001) %MON thSI_IceH_ave_N              =   3.4446116118499E+00
(PID.TID 0000.0001) %MON thSI_IceH_max_S              =   1.0000000000000E+01
(PID.TID 0000.0001) %MON thSI_IceH_max_N              =   1.0000000000000E+01
(PID.TID 0000.0001) %MON thSI_SnwH_ave_G              =   9.9364451543612E-01
(PID.TID 0000.0001) %MON thSI_SnwH_ave_S              =   1.7207573955240E+00
(PID.TID 0000.0001) %MON thSI_SnwH_ave_N              =   3.7736753972233E-01
(PID.TID 0000.0001) %MON thSI_SnwH_max_S              =   4.0930368544686E+00
(PID.TID 0000.0001) %MON thSI_SnwH_max_N              =   4.1061092649161E+00
(PID.TID 0000.0001) %MON thSI_Tsrf_ave_G              =  -1.7962047578106E+01
(PID.TID 0000.0001) %MON thSI_Tsrf_ave_S              =  -1.4823040366677E-01
(PID.TID 0000.0001) %MON thSI_Tsrf_ave_N              =  -3.3060453444407E+01
(PID.TID 0000.0001) %MON thSI_Tsrf_min_S              =  -5.7900292618695E+00
(PID.TID 0000.0001) %MON thSI_Tsrf_min_N              =  -4.7949850490812E+01
(PID.TID 0000.0001) %MON thSI_Tsrf_max_S              =   0.0000000000000E+00
(PID.TID 0000.0001) %MON thSI_Tsrf_max_N              =  -1.7864705006520E+00
(PID.TID 0000.0001) %MON thSI_Tic1_ave_G              =  -8.6887062788768E+00
(PID.TID 0000.0001) %MON thSI_Tic1_ave_S              =  -4.7925833783412E+00
(PID.TID 0000.0001) %MON thSI_Tic1_ave_N              =  -1.4333691446256E+01
(PID.TID 0000.0001) %MON thSI_Tic1_min_S              =  -1.4272207731900E+01
(PID.TID 0000.0001) %MON thSI_Tic1_min_N              =  -2.1764880265156E+01
(PID.TID 0000.0001) %MON thSI_Tic1_max_S              =  -1.4680877995941E-01
(PID.TID 0000.0001) %MON thSI_Tic1_max_N              =  -9.4387998300425E-01
(PID.TID 0000.0001) %MON thSI_Tic2_ave_G              =  -3.9397143674006E+00
(PID.TID 0000.0001) %MON thSI_Tic2_ave_S              =  -3.0413608292523E+00
(PID.TID 0000.0001) %MON thSI_Tic2_ave_N              =  -5.2413140672490E+00
(PID.TID 0000.0001) %MON thSI_Tic2_min_S              =  -8.2917468067431E+00
(PID.TID 0000.0001) %MON thSI_Tic2_min_N              =  -7.9190492057570E+00
(PID.TID 0000.0001) %MON thSI_Tic2_max_S              =  -9.9363404317210E-01
(PID.TID 0000.0001) %MON thSI_Tic2_max_N              =  -1.4028195218075E+00
(PID.TID 0000.0001) %MON thSI_TotEnerg_G              =  -3.8043484385276E+22
(PID.TID 0000.0001) // =======================================================
(PID.TID 0000.0001) // End MONITOR Therm.SeaIce statistics
(PID.TID 0000.0001) // =======================================================
 cg2d: Sum(rhs),rhsMax =   3.91105770461027E+02  2.30680090912679E+02
(PID.TID 0000.0001)                    cg2d_init_res =    2.50818125400228E+00
(PID.TID 0000.0001)                       cg2d_iters =    69
(PID.TID 0000.0001)                         cg2d_res =    5.19308520689081E-07
(PID.TID 0000.0001) // =======================================================
(PID.TID 0000.0001) // Begin MONITOR dynamic field statistics
(PID.TID 0000.0001) // =======================================================
(PID.TID 0000.0001) %MON time_tsnumber                =                 36018
(PID.TID 0000.0001) %MON time_secondsf                =   3.1119552000000E+09
(PID.TID 0000.0001) %MON dynstat_eta_max              =   7.1281776687796E-01
(PID.TID 0000.0001) %MON dynstat_eta_min              =  -1.1945177843112E+01
(PID.TID 0000.0001) %MON dynstat_eta_mean             =  -5.8170844206080E-01
(PID.TID 0000.0001) %MON dynstat_eta_sd               =   1.6962216825110E+00
(PID.TID 0000.0001) %MON dynstat_eta_del2             =   2.1363887962690E-02
(PID.TID 0000.0001) %MON dynstat_uvel_max             =   1.7265507262978E-01
(PID.TID 0000.0001) %MON dynstat_uvel_min             =  -2.6392889537648E-01
(PID.TID 0000.0001) %MON dynstat_uvel_mean            =  -5.1855701120018E-04
(PID.TID 0000.0001) %MON dynstat_uvel_sd              =   1.2965291328522E-02
(PID.TID 0000.0001) %MON dynstat_uvel_del2            =   5.8496442072577E-05
(PID.TID 0000.0001) %MON dynstat_vvel_max             =   1.9242876818253E-01
(PID.TID 0000.0001) %MON dynstat_vvel_min             =  -2.1157974079155E-01
(PID.TID 0000.0001) %MON dynstat_vvel_mean            =  -4.1574615123888E-04
(PID.TID 0000.0001) %MON dynstat_vvel_sd              =   1.3459880644489E-02
(PID.TID 0000.0001) %MON dynstat_vvel_del2            =   5.5792553791920E-05
(PID.TID 0000.0001) %MON dynstat_wvel_max             =   9.3126512324643E-05
(PID.TID 0000.0001) %MON dynstat_wvel_min             =  -1.7643750065875E-04
(PID.TID 0000.0001) %MON dynstat_wvel_mean            =  -1.1941350752638E-09
(PID.TID 0000.0001) %MON dynstat_wvel_sd              =   4.6209715638186E-06
(PID.TID 0000.0001) %MON dynstat_wvel_del2            =   4.0251749048513E-08
(PID.TID 0000.0001) %MON dynstat_theta_max            =   2.9817319827279E+01
(PID.TID 0000.0001) %MON dynstat_theta_min            =  -3.5483720361727E+00
(PID.TID 0000.0001) %MON dynstat_theta_mean           =   3.5039864237419E+00
(PID.TID 0000.0001) %MON dynstat_theta_sd             =   4.7508148798321E+00
(PID.TID 0000.0001) %MON dynstat_theta_del2           =   2.9945883616740E-03
(PID.TID 0000.0001) %MON dynstat_salt_max             =   4.0842053964416E+01
(PID.TID 0000.0001) %MON dynstat_salt_min             =   1.8098068269031E+01
(PID.TID 0000.0001) %MON dynstat_salt_mean            =   3.4756118806044E+01
(PID.TID 0000.0001) %MON dynstat_salt_sd              =   5.1175276042748E-01
(PID.TID 0000.0001) %MON dynstat_salt_del2            =   8.4495057185691E-04
(PID.TID 0000.0001) %MON forcing_qnet_max             =   8.0461915539013E+02
(PID.TID 0000.0001) %MON forcing_qnet_min             =  -2.3023399189794E+02
(PID.TID 0000.0001) %MON forcing_qnet_mean            =  -6.9115833131099E+00
(PID.TID 0000.0001) %MON forcing_qnet_sd              =   1.1675908179536E+02
(PID.TID 0000.0001) %MON forcing_qnet_del2            =   1.0814654449103E+00
(PID.TID 0000.0001) %MON forcing_qsw_max              =  -0.0000000000000E+00
(PID.TID 0000.0001) %MON forcing_qsw_min              =  -3.3686077470735E+02
(PID.TID 0000.0001) %MON forcing_qsw_mean             =  -1.8658914316080E+02
(PID.TID 0000.0001) %MON forcing_qsw_sd               =   7.7951550538352E+01
(PID.TID 0000.0001) %MON forcing_qsw_del2             =   6.4000802207731E-01
(PID.TID 0000.0001) %MON forcing_empmr_max            =   8.9698637400052E-04
(PID.TID 0000.0001) %MON forcing_empmr_min            =  -3.1598978583485E-04
(PID.TID 0000.0001) %MON forcing_empmr_mean           =  -5.7399224080859E-07
(PID.TID 0000.0001) %MON forcing_empmr_sd             =   4.9590246519613E-05
(PID.TID 0000.0001) %MON forcing_empmr_del2           =   9.0967812167618E-07
(PID.TID 0000.0001) %MON forcing_fu_max               =   2.4279378961307E-01
(PID.TID 0000.0001) %MON forcing_fu_min               =  -2.4221101327311E-01
(PID.TID 0000.0001) %MON forcing_fu_mean              =  -3.9599540109368E-03
(PID.TID 0000.0001) %MON forcing_fu_sd                =   6.5097565012911E-02
(PID.TID 0000.0001) %MON forcing_fu_del2              =   2.2436904772888E-04
(PID.TID 0000.0001) %MON forcing_fv_max               =   2.9145284083641E-01
(PID.TID 0000.0001) %MON forcing_fv_min               =  -3.3262320792717E-01
(PID.TID 0000.0001) %MON forcing_fv_mean              =  -1.3739804720763E-02
(PID.TID 0000.0001) %MON forcing_fv_sd                =   7.6299912613877E-02
(PID.TID 0000.0001) %MON forcing_fv_del2              =   2.5181803534899E-04
(PID.TID 0000.0001) %MON advcfl_uvel_max              =   7.4855241113250E-02
(PID.TID 0000.0001) %MON advcfl_vvel_max              =   8.3876989073062E-02
(PID.TID 0000.0001) %MON advcfl_wvel_max              =   5.7525283233645E-02
(PID.TID 0000.0001) %MON advcfl_W_hf_max              =   6.3549543279695E-02
(PID.TID 0000.0001) %MON pe_b_mean                    =  -1.9209630358122E-03
(PID.TID 0000.0001) %MON ke_max                       =   3.4661381334677E-02
(PID.TID 0000.0001) %MON ke_mean                      =   1.6148115254159E-04
(PID.TID 0000.0001) %MON ke_vol                       =   1.3395907519396E+18
(PID.TID 0000.0001) %MON vort_r_min                   =  -1.2930275761666E-06
(PID.TID 0000.0001) %MON vort_r_max                   =   1.4168635918906E-06
(PID.TID 0000.0001) %MON vort_a_mean                  =  -2.0549865324846E-05
(PID.TID 0000.0001) %MON vort_a_sd                    =   7.5259581868793E-05
(PID.TID 0000.0001) %MON vort_p_mean                  =  -2.4787190402417E-05
(PID.TID 0000.0001) %MON vort_p_sd                    =   1.2817300718275E-04
(PID.TID 0000.0001) %MON surfExpan_theta_mean         =   7.2617338779692E-08
(PID.TID 0000.0001) %MON surfExpan_salt_mean          =   1.9366614986374E-08
(PID.TID 0000.0001) // =======================================================
(PID.TID 0000.0001) // End MONITOR dynamic field statistics
(PID.TID 0000.0001) // =======================================================
(PID.TID 0000.0001) // =======================================================
(PID.TID 0000.0001) // Begin MONITOR Therm.SeaIce statistics
(PID.TID 0000.0001) // =======================================================
(PID.TID 0000.0001) %MON thSI_time_sec                =   3.1119552000000E+09
(PID.TID 0000.0001) %MON thSI_Ice_Area_G              =   2.4908108331065E+13
(PID.TID 0000.0001) %MON thSI_Ice_Area_S              =   1.1384712929933E+13
(PID.TID 0000.0001) %MON thSI_Ice_Area_N              =   1.3523395401133E+13
(PID.TID 0000.0001) %MON thSI_IceH_ave_G              =   4.5624885731288E+00
(PID.TID 0000.0001) %MON thSI_IceH_ave_S              =   5.8996181454153E+00
(PID.TID 0000.0001) %MON thSI_IceH_ave_N              =   3.4368218393638E+00
(PID.TID 0000.0001) %MON thSI_IceH_max_S              =   1.0000000000000E+01
(PID.TID 0000.0001) %MON thSI_IceH_max_N              =   1.0000000000000E+01
(PID.TID 0000.0001) %MON thSI_SnwH_ave_G              =   9.9085023656037E-01
(PID.TID 0000.0001) %MON thSI_SnwH_ave_S              =   1.7178647004252E+00
(PID.TID 0000.0001) %MON thSI_SnwH_ave_N              =   3.7881082474842E-01
(PID.TID 0000.0001) %MON thSI_SnwH_max_S              =   4.0930065679599E+00
(PID.TID 0000.0001) %MON thSI_SnwH_max_N              =   4.1064659930632E+00
(PID.TID 0000.0001) %MON thSI_Tsrf_ave_G              =  -1.8005336664145E+01
(PID.TID 0000.0001) %MON thSI_Tsrf_ave_S              =  -1.8609268423589E-01
(PID.TID 0000.0001) %MON thSI_Tsrf_ave_N              =  -3.3006523224342E+01
(PID.TID 0000.0001) %MON thSI_Tsrf_min_S              =  -6.0831078425470E+00
(PID.TID 0000.0001) %MON thSI_Tsrf_min_N              =  -4.7936328237908E+01
(PID.TID 0000.0001) %MON thSI_Tsrf_max_S              =   0.0000000000000E+00
(PID.TID 0000.0001) %MON thSI_Tsrf_max_N              =  -1.7144136228911E+00
(PID.TID 0000.0001) %MON thSI_Tic1_ave_G              =  -8.7052282542869E+00
(PID.TID 0000.0001) %MON thSI_Tic1_ave_S              =  -4.7694074946710E+00
(PID.TID 0000.0001) %MON thSI_Tic1_ave_N              =  -1.4392952509098E+01
(PID.TID 0000.0001) %MON thSI_Tic1_min_S              =  -1.3834478134388E+01
(PID.TID 0000.0001) %MON thSI_Tic1_min_N              =  -2.1860508166470E+01
(PID.TID 0000.0001) %MON thSI_Tic1_max_S              =  -1.4266225260019E-01
(PID.TID 0000.0001) %MON thSI_Tic1_max_N              =  -9.7202612289903E-01
(PID.TID 0000.0001) %MON thSI_Tic2_ave_G              =  -3.9490113708488E+00
(PID.TID 0000.0001) %MON thSI_Tic2_ave_S              =  -3.0371692152798E+00
(PID.TID 0000.0001) %MON thSI_Tic2_ave_N              =  -5.2667306120307E+00
(PID.TID 0000.0001) %MON thSI_Tic2_min_S              =  -8.2569429612063E+00
(PID.TID 0000.0001) %MON thSI_Tic2_min_N              =  -7.9425100512852E+00
(PID.TID 0000.0001) %MON thSI_Tic2_max_S              =  -9.6970965350278E-01
(PID.TID 0000.0001) %MON thSI_Tic2_max_N              =  -1.4155920897550E+00
(PID.TID 0000.0001) %MON thSI_TotEnerg_G              =  -3.8035818292565E+22
(PID.TID 0000.0001) // =======================================================
(PID.TID 0000.0001) // End MONITOR Therm.SeaIce statistics
(PID.TID 0000.0001) // =======================================================
 cg2d: Sum(rhs),rhsMax =   3.91077107903963E+02  2.30765315897111E+02
(PID.TID 0000.0001)                    cg2d_init_res =    2.46217227374710E+00
(PID.TID 0000.0001)                       cg2d_iters =    69
(PID.TID 0000.0001)                         cg2d_res =    5.06753530321271E-07
(PID.TID 0000.0001) // =======================================================
(PID.TID 0000.0001) // Begin MONITOR dynamic field statistics
(PID.TID 0000.0001) // =======================================================
(PID.TID 0000.0001) %MON time_tsnumber                =                 36019
(PID.TID 0000.0001) %MON time_secondsf                =   3.1120416000000E+09
(PID.TID 0000.0001) %MON dynstat_eta_max              =   7.1185331581824E-01
(PID.TID 0000.0001) %MON dynstat_eta_min              =  -1.1942409433037E+01
(PID.TID 0000.0001) %MON dynstat_eta_mean             =  -5.8166581100630E-01
(PID.TID 0000.0001) %MON dynstat_eta_sd               =   1.6958529753039E+00
(PID.TID 0000.0001) %MON dynstat_eta_del2             =   2.1371359308766E-02
(PID.TID 0000.0001) %MON dynstat_uvel_max             =   1.7268010416532E-01
(PID.TID 0000.0001) %MON dynstat_uvel_min             =  -2.6339401281585E-01
(PID.TID 0000.0001) %MON dynstat_uvel_mean            =  -5.1773439237735E-04
(PID.TID 0000.0001) %MON dynstat_uvel_sd              =   1.2965103106025E-02
(PID.TID 0000.0001) %MON dynstat_uvel_del2            =   5.8492388474269E-05
(PID.TID 0000.0001) %MON dynstat_vvel_max             =   1.9189363779589E-01
(PID.TID 0000.0001) %MON dynstat_vvel_min             =  -2.1157642372166E-01
(PID.TID 0000.0001) %MON dynstat_vvel_mean            =  -4.1513499688264E-04
(PID.TID 0000.0001) %MON dynstat_vvel_sd              =   1.3455644267493E-02
(PID.TID 0000.0001) %MON dynstat_vvel_del2            =   5.5771463010304E-05
(PID.TID 0000.0001) %MON dynstat_wvel_max             =   9.3468523008109E-05
(PID.TID 0000.0001) %MON dynstat_wvel_min             =  -1.7619680358364E-04
(PID.TID 0000.0001) %MON dynstat_wvel_mean            =  -1.1484635122596E-09
(PID.TID 0000.0001) %MON dynstat_wvel_sd              =   4.6206284382337E-06
(PID.TID 0000.0001) %MON dynstat_wvel_del2            =   4.0229050050688E-08
(PID.TID 0000.0001) %MON dynstat_theta_max            =   2.9802859914753E+01
(PID.TID 0000.0001) %MON dynstat_theta_min            =  -3.5664081809861E+00
(PID.TID 0000.0001) %MON dynstat_theta_mean           =   3.5040625561921E+00
(PID.TID 0000.0001) %MON dynstat_theta_sd             =   4.7510026621214E+00
(PID.TID 0000.0001) %MON dynstat_theta_del2           =   2.9991465298292E-03
(PID.TID 0000.0001) %MON dynstat_salt_max             =   4.0842327089568E+01
(PID.TID 0000.0001) %MON dynstat_salt_min             =   1.8099487960744E+01
(PID.TID 0000.0001) %MON dynstat_salt_mean            =   3.4756119533308E+01
(PID.TID 0000.0001) %MON dynstat_salt_sd              =   5.1174480171510E-01
(PID.TID 0000.0001) %MON dynstat_salt_del2            =   8.4563934514238E-04
(PID.TID 0000.0001) %MON forcing_qnet_max             =   7.9790302220892E+02
(PID.TID 0000.0001) %MON forcing_qnet_min             =  -2.2869720076642E+02
(PID.TID 0000.0001) %MON forcing_qnet_mean            =  -7.0558431370092E+00
(PID.TID 0000.0001) %MON forcing_qnet_sd              =   1.1495943205923E+02
(PID.TID 0000.0001) %MON forcing_qnet_del2            =   1.0735075332621E+00
(PID.TID 0000.0001) %MON forcing_qsw_max              =  -0.0000000000000E+00
(PID.TID 0000.0001) %MON forcing_qsw_min              =  -3.3584317131916E+02
(PID.TID 0000.0001) %MON forcing_qsw_mean             =  -1.8655459001267E+02
(PID.TID 0000.0001) %MON forcing_qsw_sd               =   7.7502755588245E+01
(PID.TID 0000.0001) %MON forcing_qsw_del2             =   6.3448631500835E-01
(PID.TID 0000.0001) %MON forcing_empmr_max            =   6.2709574108334E-04
(PID.TID 0000.0001) %MON forcing_empmr_min            =  -3.1664154145353E-04
(PID.TID 0000.0001) %MON forcing_empmr_mean           =  -5.1068450704118E-07
(PID.TID 0000.0001) %MON forcing_empmr_sd             =   4.8487409825846E-05
(PID.TID 0000.0001) %MON forcing_empmr_del2           =   9.1977851970667E-07
(PID.TID 0000.0001) %MON forcing_fu_max               =   2.3972677870247E-01
(PID.TID 0000.0001) %MON forcing_fu_min               =  -2.3770170012775E-01
(PID.TID 0000.0001) %MON forcing_fu_mean              =  -3.9920827019745E-03
(PID.TID 0000.0001) %MON forcing_fu_sd                =   6.4926925508109E-02
(PID.TID 0000.0001) %MON forcing_fu_del2              =   2.2128767840564E-04
(PID.TID 0000.0001) %MON forcing_fv_max               =   2.9064945924193E-01
(PID.TID 0000.0001) %MON forcing_fv_min               =  -3.2918415574839E-01
(PID.TID 0000.0001) %MON forcing_fv_mean              =  -1.3738014727260E-02
(PID.TID 0000.0001) %MON forcing_fv_sd                =   7.6066207026079E-02
(PID.TID 0000.0001) %MON forcing_fv_del2              =   2.4963077337507E-04
(PID.TID 0000.0001) %MON advcfl_uvel_max              =   7.4703538273034E-02
(PID.TID 0000.0001) %MON advcfl_vvel_max              =   8.3643733276558E-02
(PID.TID 0000.0001) %MON advcfl_wvel_max              =   5.7446806904250E-02
(PID.TID 0000.0001) %MON advcfl_W_hf_max              =   6.3462889639784E-02
(PID.TID 0000.0001) %MON pe_b_mean                    =  -1.9204688973128E-03
(PID.TID 0000.0001) %MON ke_max                       =   3.4516766780143E-02
(PID.TID 0000.0001) %MON ke_mean                      =   1.6142540155185E-04
(PID.TID 0000.0001) %MON ke_vol                       =   1.3395907693756E+18
(PID.TID 0000.0001) %MON vort_r_min                   =  -1.2974039953678E-06
(PID.TID 0000.0001) %MON vort_r_max                   =   1.4176570084503E-06
(PID.TID 0000.0001) %MON vort_a_mean                  =  -2.0549865324846E-05
(PID.TID 0000.0001) %MON vort_a_sd                    =   7.5259581853209E-05
(PID.TID 0000.0001) %MON vort_p_mean                  =  -2.4787189762786E-05
(PID.TID 0000.0001) %MON vort_p_sd                    =   1.2817300925699E-04
(PID.TID 0000.0001) %MON surfExpan_theta_mean         =   7.1896866100272E-08
(PID.TID 0000.0001) %MON surfExpan_salt_mean          =   1.9170278951133E-08
(PID.TID 0000.0001) // =======================================================
(PID.TID 0000.0001) // End MONITOR dynamic field statistics
(PID.TID 0000.0001) // =======================================================
(PID.TID 0000.0001) // =======================================================
(PID.TID 0000.0001) // Begin MONITOR Therm.SeaIce statistics
(PID.TID 0000.0001) // =======================================================
(PID.TID 0000.0001) %MON thSI_time_sec                =   3.1120416000000E+09
(PID.TID 0000.0001) %MON thSI_Ice_Area_G              =   2.4914923321006E+13
(PID.TID 0000.0001) %MON thSI_Ice_Area_S              =   1.1349038608411E+13
(PID.TID 0000.0001) %MON thSI_Ice_Area_N              =   1.3565884712595E+13
(PID.TID 0000.0001) %MON thSI_IceH_ave_G              =   4.5608353486011E+00
(PID.TID 0000.0001) %MON thSI_IceH_ave_S              =   5.9115011663494E+00
(PID.TID 0000.0001) %MON thSI_IceH_ave_N              =   3.4308863008656E+00
(PID.TID 0000.0001) %MON thSI_IceH_max_S              =   1.0000000000000E+01
(PID.TID 0000.0001) %MON thSI_IceH_max_N              =   1.0000000000000E+01
(PID.TID 0000.0001) %MON thSI_SnwH_ave_G              =   9.8869794982225E-01
(PID.TID 0000.0001) %MON thSI_SnwH_ave_S              =   1.7157297130607E+00
(PID.TID 0000.0001) %MON thSI_SnwH_ave_N              =   3.8047285242968E-01
(PID.TID 0000.0001) %MON thSI_SnwH_max_S              =   4.0929778730207E+00
(PID.TID 0000.0001) %MON thSI_SnwH_max_N              =   4.1068138614276E+00
(PID.TID 0000.0001) %MON thSI_Tsrf_ave_G              =  -1.8046881747015E+01
(PID.TID 0000.0001) %MON thSI_Tsrf_ave_S              =  -2.2414822038861E-01
(PID.TID 0000.0001) %MON thSI_Tsrf_ave_N              =  -3.2957143420795E+01
(PID.TID 0000.0001) %MON thSI_Tsrf_min_S              =  -6.3852919785643E+00
(PID.TID 0000.0001) %MON thSI_Tsrf_min_N              =  -4.7922581551637E+01
(PID.TID 0000.0001) %MON thSI_Tsrf_max_S              =   0.0000000000000E+00
(PID.TID 0000.0001) %MON thSI_Tsrf_max_N              =  -4.9380528066915E+00
(PID.TID 0000.0001) %MON thSI_Tic1_ave_G              =  -8.7202524941869E+00
(PID.TID 0000.0001) %MON thSI_Tic1_ave_S              =  -4.7455515298932E+00
(PID.TID 0000.0001) %MON thSI_Tic1_ave_N              =  -1.4449622438084E+01
(PID.TID 0000.0001) %MON thSI_Tic1_min_S              =  -1.3714814231117E+01
(PID.TID 0000.0001) %MON thSI_Tic1_min_N              =  -2.1953922245938E+01
(PID.TID 0000.0001) %MON thSI_Tic1_max_S              =  -1.3876388458292E-01
(PID.TID 0000.0001) %MON thSI_Tic1_max_N              =  -1.0014584436128E+00
(PID.TID 0000.0001) %MON thSI_Tic2_ave_G              =  -3.9580336697513E+00
(PID.TID 0000.0001) %MON thSI_Tic2_ave_S              =  -3.0329857425840E+00
(PID.TID 0000.0001) %MON thSI_Tic2_ave_N              =  -5.2914526711273E+00
(PID.TID 0000.0001) %MON thSI_Tic2_min_S              =  -8.2205506245462E+00
(PID.TID 0000.0001) %MON thSI_Tic2_min_N              =  -7.9652001655345E+00
(PID.TID 0000.0001) %MON thSI_Tic2_max_S              =  -9.4596142951413E-01
(PID.TID 0000.0001) %MON thSI_Tic2_max_N              =  -1.4280807166292E+00
(PID.TID 0000.0001) %MON thSI_TotEnerg_G              =  -3.8028732179581E+22
(PID.TID 0000.0001) // =======================================================
(PID.TID 0000.0001) // End MONITOR Therm.SeaIce statistics
(PID.TID 0000.0001) // =======================================================
 Computing Diagnostic #     23  ETAN         Counter:       1   Parms: SM      M1      
 Computing Diagnostic #     79  oceFWflx     Counter:       1   Parms: SM      U1      
 Computing Diagnostic #     26  THETA        Counter:       1   Parms: SMR     MR      
 Computing Diagnostic #     27  SALT         Counter:       1   Parms: SMR     MR      
 Compute Stats, Diag. #     75  oceTAUX   vol(   0 ): 3.111E+15  Parms: UU      U1      
 Compute Stats, Diag. #     76  oceTAUY   vol(   0 ): 3.130E+15  Parms: VV      U1      
 Compute Stats, Diag. #     84  TRELAX    vol(   0 ): 3.275E+15  Parms: SM      U1      
 Compute Stats, Diag. #     85  SRELAX    vol(   0 ): 3.275E+15  Parms: SM      U1      
 Compute Stats, Diag. #     86  surForcT  vol(   0 ): 3.275E+15  Parms: SM      U1      
 Compute Stats, Diag. #     87  surForcS  vol(   0 ): 3.275E+15  Parms: SM      U1      
 Compute Stats, Diag. #     88  TFLUX     vol(   0 ): 3.275E+15  Parms: SM      U1      
 Compute Stats, Diag. #     89  SFLUX     vol(   0 ): 3.275E+15  Parms: SM      U1      
 Compute Stats, Diag. #     81  oceQnet   vol(   0 ): 3.275E+15  Parms: SM      U1      
 Compute Stats, Diag. #     80  oceSflux  vol(   0 ): 3.275E+15  Parms: SM      U1      
 Compute Stats, Diag. #     79  oceFWflx  vol(   0 ): 3.275E+15  Parms: SM      U1      
 cg2d: Sum(rhs),rhsMax =   3.91039576084423E+02  2.30839704506512E+02
(PID.TID 0000.0001)                    cg2d_init_res =    2.46741042534187E+00
(PID.TID 0000.0001)                       cg2d_iters =    69
(PID.TID 0000.0001)                         cg2d_res =    4.94491251465777E-07
(PID.TID 0000.0001) // =======================================================
(PID.TID 0000.0001) // Begin MONITOR dynamic field statistics
(PID.TID 0000.0001) // =======================================================
(PID.TID 0000.0001) %MON time_tsnumber                =                 36020
(PID.TID 0000.0001) %MON time_secondsf                =   3.1121280000000E+09
(PID.TID 0000.0001) %MON dynstat_eta_max              =   7.1090700367568E-01
(PID.TID 0000.0001) %MON dynstat_eta_min              =  -1.1939830743843E+01
(PID.TID 0000.0001) %MON dynstat_eta_mean             =  -5.8160998831607E-01
(PID.TID 0000.0001) %MON dynstat_eta_sd               =   1.6955166263833E+00
(PID.TID 0000.0001) %MON dynstat_eta_del2             =   2.1379736737586E-02
(PID.TID 0000.0001) %MON dynstat_uvel_max             =   1.7264910699027E-01
(PID.TID 0000.0001) %MON dynstat_uvel_min             =  -2.6284756269413E-01
(PID.TID 0000.0001) %MON dynstat_uvel_mean            =  -5.1694399675881E-04
(PID.TID 0000.0001) %MON dynstat_uvel_sd              =   1.2965068644129E-02
(PID.TID 0000.0001) %MON dynstat_uvel_del2            =   5.8490360634848E-05
(PID.TID 0000.0001) %MON dynstat_vvel_max             =   1.9132544837206E-01
(PID.TID 0000.0001) %MON dynstat_vvel_min             =  -2.1156540312400E-01
(PID.TID 0000.0001) %MON dynstat_vvel_mean            =  -4.1447409391891E-04
(PID.TID 0000.0001) %MON dynstat_vvel_sd              =   1.3451184924992E-02
(PID.TID 0000.0001) %MON dynstat_vvel_del2            =   5.5751223626188E-05
(PID.TID 0000.0001) %MON dynstat_wvel_max             =   9.3740842478883E-05
(PID.TID 0000.0001) %MON dynstat_wvel_min             =  -1.7597301329755E-04
(PID.TID 0000.0001) %MON dynstat_wvel_mean            =  -1.1482389538878E-09
(PID.TID 0000.0001) %MON dynstat_wvel_sd              =   4.6200543503954E-06
(PID.TID 0000.0001) %MON dynstat_wvel_del2            =   4.0202667626152E-08
(PID.TID 0000.0001) %MON dynstat_theta_max            =   2.9808318505814E+01
(PID.TID 0000.0001) %MON dynstat_theta_min            =  -3.5844395179111E+00
(PID.TID 0000.0001) %MON dynstat_theta_mean           =   3.5041393542313E+00
(PID.TID 0000.0001) %MON dynstat_theta_sd             =   4.7512005983100E+00
(PID.TID 0000.0001) %MON dynstat_theta_del2           =   3.0043425365151E-03
(PID.TID 0000.0001) %MON dynstat_salt_max             =   4.0842502722751E+01
(PID.TID 0000.0001) %MON dynstat_salt_min             =   1.8100916167725E+01
(PID.TID 0000.0001) %MON dynstat_salt_mean            =   3.4756120178103E+01
(PID.TID 0000.0001) %MON dynstat_salt_sd              =   5.1173754416754E-01
(PID.TID 0000.0001) %MON dynstat_salt_del2            =   8.4637391453172E-04
(PID.TID 0000.0001) %MON forcing_qnet_max             =   7.9130400011138E+02
(PID.TID 0000.0001) %MON forcing_qnet_min             =  -2.2681191231815E+02
(PID.TID 0000.0001) %MON forcing_qnet_mean            =  -7.1232609764823E+00
(PID.TID 0000.0001) %MON forcing_qnet_sd              =   1.1325133629246E+02
(PID.TID 0000.0001) %MON forcing_qnet_del2            =   1.0618260124989E+00
(PID.TID 0000.0001) %MON forcing_qsw_max              =  -0.0000000000000E+00
(PID.TID 0000.0001) %MON forcing_qsw_min              =  -3.3482556793097E+02
(PID.TID 0000.0001) %MON forcing_qsw_mean             =  -1.8651947423937E+02
(PID.TID 0000.0001) %MON forcing_qsw_sd               =   7.7061498166249E+01
(PID.TID 0000.0001) %MON forcing_qsw_del2             =   6.2920964676612E-01
(PID.TID 0000.0001) %MON forcing_empmr_max            =   4.7061556759281E-04
(PID.TID 0000.0001) %MON forcing_empmr_min            =  -3.1733984774952E-04
(PID.TID 0000.0001) %MON forcing_empmr_mean           =  -6.6870931005819E-07
(PID.TID 0000.0001) %MON forcing_empmr_sd             =   4.7036897811411E-05
(PID.TID 0000.0001) %MON forcing_empmr_del2           =   9.0105741392090E-07
(PID.TID 0000.0001) %MON forcing_fu_max               =   2.3665976779186E-01
(PID.TID 0000.0001) %MON forcing_fu_min               =  -2.3356264696351E-01
(PID.TID 0000.0001) %MON forcing_fu_mean              =  -4.0242113930123E-03
(PID.TID 0000.0001) %MON forcing_fu_sd                =   6.4770281337189E-02
(PID.TID 0000.0001) %MON forcing_fu_del2              =   2.1842206420252E-04
(PID.TID 0000.0001) %MON forcing_fv_max               =   2.8984607764745E-01
(PID.TID 0000.0001) %MON forcing_fv_min               =  -3.2574510356961E-01
(PID.TID 0000.0001) %MON forcing_fv_mean              =  -1.3736224733758E-02
(PID.TID 0000.0001) %MON forcing_fv_sd                =   7.5849088889787E-02
(PID.TID 0000.0001) %MON forcing_fv_del2              =   2.4762463092934E-04
(PID.TID 0000.0001) %MON advcfl_uvel_max              =   7.4548554653074E-02
(PID.TID 0000.0001) %MON advcfl_vvel_max              =   8.3396067511485E-02
(PID.TID 0000.0001) %MON advcfl_wvel_max              =   5.7373842826068E-02
(PID.TID 0000.0001) %MON advcfl_W_hf_max              =   6.3382325921625E-02
(PID.TID 0000.0001) %MON pe_b_mean                    =  -1.9200864283503E-03
(PID.TID 0000.0001) %MON ke_max                       =   3.4371055052619E-02
(PID.TID 0000.0001) %MON ke_mean                      =   1.6136871285993E-04
(PID.TID 0000.0001) %MON ke_vol                       =   1.3395907848885E+18
(PID.TID 0000.0001) %MON vort_r_min                   =  -1.3015556044927E-06
(PID.TID 0000.0001) %MON vort_r_max                   =   1.4179819074295E-06
(PID.TID 0000.0001) %MON vort_a_mean                  =  -2.0549865324846E-05
(PID.TID 0000.0001) %MON vort_a_sd                    =   7.5259581857001E-05
(PID.TID 0000.0001) %MON vort_p_mean                  =  -2.4787189168136E-05
(PID.TID 0000.0001) %MON vort_p_sd                    =   1.2817301138481E-04
(PID.TID 0000.0001) %MON surfExpan_theta_mean         =   7.1650901411630E-08
(PID.TID 0000.0001) %MON surfExpan_salt_mean          =   1.9285002776843E-08
(PID.TID 0000.0001) // =======================================================
(PID.TID 0000.0001) // End MONITOR dynamic field statistics
(PID.TID 0000.0001) // =======================================================
(PID.TID 0000.0001) // =======================================================
(PID.TID 0000.0001) // Begin MONITOR Therm.SeaIce statistics
(PID.TID 0000.0001) // =======================================================
(PID.TID 0000.0001) %MON thSI_time_sec                =   3.1121280000000E+09
(PID.TID 0000.0001) %MON thSI_Ice_Area_G              =   2.4902546404791E+13
(PID.TID 0000.0001) %MON thSI_Ice_Area_S              =   1.1308193623566E+13
(PID.TID 0000.0001) %MON thSI_Ice_Area_N              =   1.3594352781226E+13
(PID.TID 0000.0001) %MON thSI_IceH_ave_G              =   4.5624029462098E+00
(PID.TID 0000.0001) %MON thSI_IceH_ave_S              =   5.9261079925111E+00
(PID.TID 0000.0001) %MON thSI_IceH_ave_N              =   3.4280318615999E+00
(PID.TID 0000.0001) %MON thSI_IceH_max_S              =   1.0000000000000E+01
(PID.TID 0000.0001) %MON thSI_IceH_max_N              =   1.0000000000000E+01
(PID.TID 0000.0001) %MON thSI_SnwH_ave_G              =   9.8759895172355E-01
(PID.TID 0000.0001) %MON thSI_SnwH_ave_S              =   1.7149836630551E+00
(PID.TID 0000.0001) %MON thSI_SnwH_ave_N              =   3.8253835877514E-01
(PID.TID 0000.0001) %MON thSI_SnwH_max_S              =   4.0929490715388E+00
(PID.TID 0000.0001) %MON thSI_SnwH_max_N              =   4.1071418904716E+00
(PID.TID 0000.0001) %MON thSI_Tsrf_ave_G              =  -1.8082707187599E+01
(PID.TID 0000.0001) %MON thSI_Tsrf_ave_S              =  -2.3409357567607E-01
(PID.TID 0000.0001) %MON thSI_Tsrf_ave_N              =  -3.2929723583597E+01
(PID.TID 0000.0001) %MON thSI_Tsrf_min_S              =  -6.6878510187621E+00
(PID.TID 0000.0001) %MON thSI_Tsrf_min_N              =  -4.7908606449102E+01
(PID.TID 0000.0001) %MON thSI_Tsrf_max_S              =   0.0000000000000E+00
(PID.TID 0000.0001) %MON thSI_Tsrf_max_N              =  -1.7523908773106E+00
(PID.TID 0000.0001) %MON thSI_Tic1_ave_G              =  -8.7383888930538E+00
(PID.TID 0000.0001) %MON thSI_Tic1_ave_S              =  -4.7283732810267E+00
(PID.TID 0000.0001) %MON thSI_Tic1_ave_N              =  -1.4504798323645E+01
(PID.TID 0000.0001) %MON thSI_Tic1_min_S              =  -1.3599777533026E+01
(PID.TID 0000.0001) %MON thSI_Tic1_min_N              =  -2.2045182503631E+01
(PID.TID 0000.0001) %MON thSI_Tic1_max_S              =  -1.3509479506324E-01
(PID.TID 0000.0001) %MON thSI_Tic1_max_N              =  -1.0322376378334E+00
(PID.TID 0000.0001) %MON thSI_Tic2_ave_G              =  -3.9668435844280E+00
(PID.TID 0000.0001) %MON thSI_Tic2_ave_S              =  -3.0288000176453E+00
(PID.TID 0000.0001) %MON thSI_Tic2_ave_N              =  -5.3157518663753E+00
(PID.TID 0000.0001) %MON thSI_Tic2_min_S              =  -8.1847748009084E+00
(PID.TID 0000.0001) %MON thSI_Tic2_min_N              =  -7.9871361707602E+00
(PID.TID 0000.0001) %MON thSI_Tic2_max_S              =  -9.2283578842201E-01
(PID.TID 0000.0001) %MON thSI_Tic2_max_N              =  -1.4403440612290E+00
(PID.TID 0000.0001) %MON thSI_TotEnerg_G              =  -3.8020793644211E+22
(PID.TID 0000.0001) // =======================================================
(PID.TID 0000.0001) // End MONITOR Therm.SeaIce statistics
(PID.TID 0000.0001) // =======================================================
 Computing Diagnostic #     23  ETAN         Counter:       1   Parms: SM      M1      
 Compute Stats, Diag. #     23  ETAN      vol(   0 ): 3.639E+15  Parms: SM      M1      
 Compute Stats, Diag. #     24  ETANSQ    vol(   0 ): 3.639E+15  Parms: SM P    M1      
 Compute Stats, Diag. #     25  DETADT2   vol(   0 ): 3.639E+15  Parms: SM      M1      
 Compute Stats, Diag. #     26  THETA     vol(   0 ): 1.340E+19  Parms: SMR     MR      
 Compute Stats, Diag. #     27  SALT      vol(   0 ): 1.340E+19  Parms: SMR     MR      
 Compute Stats, Diag. #     74  CONVADJ   vol(   0 ): 1.315E+19  Parms: SMR     LR      
 Compute Stats, Diag. #     23  ETAN      vol(   0 ): 3.639E+14  Parms: SM      M1      
 Compute Stats, Diag. #     26  THETA     vol(   0 ): 1.340E+18  Parms: SMR     MR      
 Compute Stats, Diag. #     27  SALT      vol(   0 ): 1.340E+18  Parms: SMR     MR      
 Compute Stats, Diag. #    194  SI_Fract  vol(   0 ): 3.639E+15  Parms: SM P    M1      
 Compute Stats, Diag. #    194  SI_Fract  vol(   1 ): 1.289E+15  Parms: SM P    M1      
 Compute Stats, Diag. #    194  SI_Fract  vol(   3 ): 7.935E+14  Parms: SM P    M1      
 Compute Stats, Diag. #    195  SI_Thick  vol(   0 ): 2.492E+14  Parms: SM PC   M1      
    use Counter Mate  #    194  SI_Fract  vol(   0 ): 3.639E+15 integral 2.492E+14
 Compute Stats, Diag. #    195  SI_Thick  vol(   1 ): 1.151E+14  Parms: SM PC   M1      
    use Counter Mate  #    194  SI_Fract  vol(   1 ): 1.289E+15 integral 1.151E+14
 Compute Stats, Diag. #    195  SI_Thick  vol(   3 ): 1.342E+14  Parms: SM PC   M1      
    use Counter Mate  #    194  SI_Fract  vol(   3 ): 7.935E+14 integral 1.342E+14
 Compute Stats, Diag. #    196  SI_SnowH  vol(   0 ): 2.492E+14  Parms: SM PC   M1      
    use Counter Mate  #    194  SI_Fract  vol(   0 ): 3.639E+15 integral 2.492E+14
 Compute Stats, Diag. #    196  SI_SnowH  vol(   1 ): 1.151E+14  Parms: SM PC   M1      
    use Counter Mate  #    194  SI_Fract  vol(   1 ): 1.289E+15 integral 1.151E+14
 Compute Stats, Diag. #    196  SI_SnowH  vol(   3 ): 1.342E+14  Parms: SM PC   M1      
    use Counter Mate  #    194  SI_Fract  vol(   3 ): 7.935E+14 integral 1.342E+14
 Compute Stats, Diag. #    197  SI_Tsrf   vol(   0 ): 2.492E+14  Parms: SM  C   M1      
    use Counter Mate  #    194  SI_Fract  vol(   0 ): 3.639E+15 integral 2.492E+14
 Compute Stats, Diag. #    197  SI_Tsrf   vol(   1 ): 1.151E+14  Parms: SM  C   M1      
    use Counter Mate  #    194  SI_Fract  vol(   1 ): 1.289E+15 integral 1.151E+14
 Compute Stats, Diag. #    197  SI_Tsrf   vol(   3 ): 1.342E+14  Parms: SM  C   M1      
    use Counter Mate  #    194  SI_Fract  vol(   3 ): 7.935E+14 integral 1.342E+14
 Compute Stats, Diag. #    198  SI_Tice1  vol(   0 ): 2.492E+14  Parms: SM  C   M1      
    use Counter Mate  #    194  SI_Fract  vol(   0 ): 3.639E+15 integral 2.492E+14
 Compute Stats, Diag. #    198  SI_Tice1  vol(   1 ): 1.151E+14  Parms: SM  C   M1      
    use Counter Mate  #    194  SI_Fract  vol(   1 ): 1.289E+15 integral 1.151E+14
 Compute Stats, Diag. #    198  SI_Tice1  vol(   3 ): 1.342E+14  Parms: SM  C   M1      
    use Counter Mate  #    194  SI_Fract  vol(   3 ): 7.935E+14 integral 1.342E+14
 Compute Stats, Diag. #    199  SI_Tice2  vol(   0 ): 2.492E+14  Parms: SM  C   M1      
    use Counter Mate  #    194  SI_Fract  vol(   0 ): 3.639E+15 integral 2.492E+14
 Compute Stats, Diag. #    199  SI_Tice2  vol(   1 ): 1.151E+14  Parms: SM  C   M1      
    use Counter Mate  #    194  SI_Fract  vol(   1 ): 1.289E+15 integral 1.151E+14
 Compute Stats, Diag. #    199  SI_Tice2  vol(   3 ): 1.342E+14  Parms: SM  C   M1      
    use Counter Mate  #    194  SI_Fract  vol(   3 ): 7.935E+14 integral 1.342E+14
 Compute Stats, Diag. #    200  SI_Qice1  vol(   0 ): 1.137E+15  Parms: SM  C   M1      
    use Counter Mate  #    195  SI_Thick  vol(   0 ): 2.492E+14 integral 1.137E+15
 Compute Stats, Diag. #    200  SI_Qice1  vol(   1 ): 6.744E+14  Parms: SM  C   M1      
    use Counter Mate  #    195  SI_Thick  vol(   1 ): 1.151E+14 integral 6.744E+14
 Compute Stats, Diag. #    200  SI_Qice1  vol(   3 ): 4.626E+14  Parms: SM  C   M1      
    use Counter Mate  #    195  SI_Thick  vol(   3 ): 1.342E+14 integral 4.626E+14
 Compute Stats, Diag. #    201  SI_Qice2  vol(   0 ): 1.137E+15  Parms: SM  C   M1      
    use Counter Mate  #    195  SI_Thick  vol(   0 ): 2.492E+14 integral 1.137E+15
 Compute Stats, Diag. #    201  SI_Qice2  vol(   1 ): 6.744E+14  Parms: SM  C   M1      
    use Counter Mate  #    195  SI_Thick  vol(   1 ): 1.151E+14 integral 6.744E+14
 Compute Stats, Diag. #    201  SI_Qice2  vol(   3 ): 4.626E+14  Parms: SM  C   M1      
    use Counter Mate  #    195  SI_Thick  vol(   3 ): 1.342E+14 integral 4.626E+14
 Compute Stats, Diag. #    205  SIsnwPrc  vol(   0 ): 2.492E+14  Parms: SM  C   M1      
    use Counter Mate  #    203  SI_FrcFx  vol(   0 ): 3.639E+15 integral 2.492E+14
 Compute Stats, Diag. #    205  SIsnwPrc  vol(   1 ): 1.151E+14  Parms: SM  C   M1      
    use Counter Mate  #    203  SI_FrcFx  vol(   1 ): 1.289E+15 integral 1.151E+14
 Compute Stats, Diag. #    205  SIsnwPrc  vol(   3 ): 1.342E+14  Parms: SM  C   M1      
    use Counter Mate  #    203  SI_FrcFx  vol(   3 ): 7.935E+14 integral 1.342E+14
 Compute Stats, Diag. #    204  SIalbedo  vol(   0 ): 2.492E+14  Parms: SM PC   M1      
    use Counter Mate  #    203  SI_FrcFx  vol(   0 ): 3.639E+15 integral 2.492E+14
 Compute Stats, Diag. #    204  SIalbedo  vol(   1 ): 1.151E+14  Parms: SM PC   M1      
    use Counter Mate  #    203  SI_FrcFx  vol(   1 ): 1.289E+15 integral 1.151E+14
 Compute Stats, Diag. #    204  SIalbedo  vol(   3 ): 1.342E+14  Parms: SM PC   M1      
    use Counter Mate  #    203  SI_FrcFx  vol(   3 ): 7.935E+14 integral 1.342E+14
 Compute Stats, Diag. #    202  SIsnwAge  vol(   0 ): 3.639E+15  Parms: SM P    M1      
 Compute Stats, Diag. #    202  SIsnwAge  vol(   1 ): 1.289E+15  Parms: SM P    M1      
 Compute Stats, Diag. #    202  SIsnwAge  vol(   3 ): 7.935E+14  Parms: SM P    M1      
 Compute Stats, Diag. #    208  SIflx2oc  vol(   0 ): 3.639E+15  Parms: SM      M1      
 Compute Stats, Diag. #    208  SIflx2oc  vol(   1 ): 1.289E+15  Parms: SM      M1      
 Compute Stats, Diag. #    208  SIflx2oc  vol(   3 ): 7.935E+14  Parms: SM      M1      
 Compute Stats, Diag. #    209  SIfrw2oc  vol(   0 ): 3.639E+15  Parms: SM      M1      
 Compute Stats, Diag. #    209  SIfrw2oc  vol(   1 ): 1.289E+15  Parms: SM      M1      
 Compute Stats, Diag. #    209  SIfrw2oc  vol(   3 ): 7.935E+14  Parms: SM      M1      
 Compute Stats, Diag. #    210  SIsaltFx  vol(   0 ): 3.639E+15  Parms: SM      M1      
 Compute Stats, Diag. #    210  SIsaltFx  vol(   1 ): 1.289E+15  Parms: SM      M1      
 Compute Stats, Diag. #    210  SIsaltFx  vol(   3 ): 7.935E+14  Parms: SM      M1      
 Compute Stats, Diag. #    206  SIflxAtm  vol(   0 ): 3.639E+15  Parms: SM      M1      
 Compute Stats, Diag. #    206  SIflxAtm  vol(   1 ): 1.289E+15  Parms: SM      M1      
 Compute Stats, Diag. #    206  SIflxAtm  vol(   3 ): 7.935E+14  Parms: SM      M1      
 Compute Stats, Diag. #    207  SIfrwAtm  vol(   0 ): 3.639E+15  Parms: SM      M1      
 Compute Stats, Diag. #    207  SIfrwAtm  vol(   1 ): 1.289E+15  Parms: SM      M1      
 Compute Stats, Diag. #    207  SIfrwAtm  vol(   3 ): 7.935E+14  Parms: SM      M1      
(PID.TID 0000.0001) DIAGSTATS_CLOSE_IO: close file: dynStDiag.0000036000.txt , unit=     9
(PID.TID 0000.0001) DIAGSTATS_CLOSE_IO: close file: surfStDiag.0000036000.txt , unit=    10
(PID.TID 0000.0001) DIAGSTATS_CLOSE_IO: close file: instStDiag.0000036000.txt , unit=    11
(PID.TID 0000.0001) DIAGSTATS_CLOSE_IO: close file: thSIceStDiag.0000036000.txt , unit=    12
(PID.TID 0000.0001) %CHECKPOINT     36020 ckptA
(PID.TID 0000.0001)   Seconds in section "ALL                    [THE_MODEL_MAIN]":
(PID.TID 0000.0001)           User time:   43.300000000000004
(PID.TID 0000.0001)         System time:  0.17999999999999999
(PID.TID 0000.0001)     Wall clock time:   43.579270839691162
(PID.TID 0000.0001)          No. starts:           1
(PID.TID 0000.0001)           No. stops:           1
(PID.TID 0000.0001)   Seconds in section "INITIALISE_FIXED       [THE_MODEL_MAIN]":
(PID.TID 0000.0001)           User time:  0.26000000000000001
(PID.TID 0000.0001)         System time:  4.00000000000000008E-002
(PID.TID 0000.0001)     Wall clock time:  0.29765415191650391
(PID.TID 0000.0001)          No. starts:           1
(PID.TID 0000.0001)           No. stops:           1
(PID.TID 0000.0001)   Seconds in section "THE_MAIN_LOOP          [THE_MODEL_MAIN]":
(PID.TID 0000.0001)           User time:   43.040000000000006
(PID.TID 0000.0001)         System time:  0.13999999999999999
(PID.TID 0000.0001)     Wall clock time:   43.281550168991089
(PID.TID 0000.0001)          No. starts:           1
(PID.TID 0000.0001)           No. stops:           1
(PID.TID 0000.0001)   Seconds in section "INITIALISE_VARIA    [THE_MAIN_LOOP]":
(PID.TID 0000.0001)           User time:  0.77000000000000002
(PID.TID 0000.0001)         System time:  7.99999999999999878E-002
(PID.TID 0000.0001)     Wall clock time:  0.85633301734924316
(PID.TID 0000.0001)          No. starts:           1
(PID.TID 0000.0001)           No. stops:           1
(PID.TID 0000.0001)   Seconds in section "MAIN LOOP           [THE_MAIN_LOOP]":
(PID.TID 0000.0001)           User time:   42.270000000000003
(PID.TID 0000.0001)         System time:  5.99999999999999978E-002
(PID.TID 0000.0001)     Wall clock time:   42.425183057785034
(PID.TID 0000.0001)          No. starts:           1
(PID.TID 0000.0001)           No. stops:           1
(PID.TID 0000.0001)   Seconds in section "FORWARD_STEP        [THE_MAIN_LOOP]":
(PID.TID 0000.0001)           User time:   42.269999999999996
(PID.TID 0000.0001)         System time:  5.99999999999999978E-002
(PID.TID 0000.0001)     Wall clock time:   42.424967288970947
(PID.TID 0000.0001)          No. starts:          20
(PID.TID 0000.0001)           No. stops:          20
(PID.TID 0000.0001)   Seconds in section "DO_STATEVARS_DIAGS  [FORWARD_STEP]":
(PID.TID 0000.0001)           User time:   1.7100000000000080
(PID.TID 0000.0001)         System time:   0.0000000000000000
(PID.TID 0000.0001)     Wall clock time:   1.7327988147735596
(PID.TID 0000.0001)          No. starts:          60
(PID.TID 0000.0001)           No. stops:          60
(PID.TID 0000.0001)   Seconds in section "LOAD_FIELDS_DRIVER  [FORWARD_STEP]":
(PID.TID 0000.0001)           User time:  0.20000000000000284
(PID.TID 0000.0001)         System time:   0.0000000000000000
(PID.TID 0000.0001)     Wall clock time:  0.21215391159057617
(PID.TID 0000.0001)          No. starts:          20
(PID.TID 0000.0001)           No. stops:          20
(PID.TID 0000.0001)   Seconds in section "BULKF_FIELDS_LOAD  [LOAD_FLDS_DRIVER]":
(PID.TID 0000.0001)           User time:  0.14000000000000767
(PID.TID 0000.0001)         System time:   0.0000000000000000
(PID.TID 0000.0001)     Wall clock time:  0.15345168113708496
(PID.TID 0000.0001)          No. starts:          20
(PID.TID 0000.0001)           No. stops:          20
(PID.TID 0000.0001)   Seconds in section "EXTERNAL_FLDS_LOAD [LOAD_FLDS_DRIVER]":
(PID.TID 0000.0001)           User time:  5.99999999999880629E-002
(PID.TID 0000.0001)         System time:   0.0000000000000000
(PID.TID 0000.0001)     Wall clock time:  5.80942630767822266E-002
(PID.TID 0000.0001)          No. starts:          20
(PID.TID 0000.0001)           No. stops:          20
(PID.TID 0000.0001)   Seconds in section "BULKF_FORCING       [FORWARD_STEP]":
(PID.TID 0000.0001)           User time:  0.46000000000000085
(PID.TID 0000.0001)         System time:   0.0000000000000000
(PID.TID 0000.0001)     Wall clock time:  0.46716952323913574
(PID.TID 0000.0001)          No. starts:          20
(PID.TID 0000.0001)           No. stops:          20
(PID.TID 0000.0001)   Seconds in section "DO_ATMOSPHERIC_PHYS [FORWARD_STEP]":
(PID.TID 0000.0001)           User time:   0.0000000000000000
(PID.TID 0000.0001)         System time:   0.0000000000000000
(PID.TID 0000.0001)     Wall clock time:  2.00271606445312500E-004
(PID.TID 0000.0001)          No. starts:          20
(PID.TID 0000.0001)           No. stops:          20
(PID.TID 0000.0001)   Seconds in section "DO_OCEANIC_PHYS     [FORWARD_STEP]":
(PID.TID 0000.0001)           User time:   5.2999999999999972
(PID.TID 0000.0001)         System time:  1.00000000000000089E-002
(PID.TID 0000.0001)     Wall clock time:   5.2901067733764648
(PID.TID 0000.0001)          No. starts:          20
(PID.TID 0000.0001)           No. stops:          20
(PID.TID 0000.0001)   Seconds in section "THSICE_MAIN     [DO_OCEANIC_PHYS]":
(PID.TID 0000.0001)           User time:  0.37999999999999545
(PID.TID 0000.0001)         System time:   0.0000000000000000
(PID.TID 0000.0001)     Wall clock time:  0.37667560577392578
(PID.TID 0000.0001)          No. starts:          20
(PID.TID 0000.0001)           No. stops:          20
(PID.TID 0000.0001)   Seconds in section "DYNAMICS            [FORWARD_STEP]":
(PID.TID 0000.0001)           User time:   11.699999999999989
(PID.TID 0000.0001)         System time:   0.0000000000000000
(PID.TID 0000.0001)     Wall clock time:   11.726877212524414
(PID.TID 0000.0001)          No. starts:          20
(PID.TID 0000.0001)           No. stops:          20
(PID.TID 0000.0001)   Seconds in section "UPDATE_R_STAR       [FORWARD_STEP]":
(PID.TID 0000.0001)           User time:  0.59999999999999432
(PID.TID 0000.0001)         System time:   0.0000000000000000
(PID.TID 0000.0001)     Wall clock time:  0.60877585411071777
(PID.TID 0000.0001)          No. starts:          20
(PID.TID 0000.0001)           No. stops:          20
(PID.TID 0000.0001)   Seconds in section "UPDATE_CG2D         [FORWARD_STEP]":
(PID.TID 0000.0001)           User time:  0.23000000000001108
(PID.TID 0000.0001)         System time:   0.0000000000000000
(PID.TID 0000.0001)     Wall clock time:  0.24329471588134766
(PID.TID 0000.0001)          No. starts:          20
(PID.TID 0000.0001)           No. stops:          20
(PID.TID 0000.0001)   Seconds in section "SOLVE_FOR_PRESSURE  [FORWARD_STEP]":
(PID.TID 0000.0001)           User time:   3.8999999999999986
(PID.TID 0000.0001)         System time:   0.0000000000000000
(PID.TID 0000.0001)     Wall clock time:   3.9032676219940186
(PID.TID 0000.0001)          No. starts:          20
(PID.TID 0000.0001)           No. stops:          20
(PID.TID 0000.0001)   Seconds in section "MOM_CORRECTION_STEP [FORWARD_STEP]":
(PID.TID 0000.0001)           User time:   1.3200000000000074
(PID.TID 0000.0001)         System time:   0.0000000000000000
(PID.TID 0000.0001)     Wall clock time:   1.3078501224517822
(PID.TID 0000.0001)          No. starts:          20
(PID.TID 0000.0001)           No. stops:          20
(PID.TID 0000.0001)   Seconds in section "UPDATE_ETAH         [FORWARD_STEP]":
(PID.TID 0000.0001)           User time:   0.0000000000000000
(PID.TID 0000.0001)         System time:   0.0000000000000000
(PID.TID 0000.0001)     Wall clock time:  8.83197784423828125E-003
(PID.TID 0000.0001)          No. starts:          20
(PID.TID 0000.0001)           No. stops:          20
(PID.TID 0000.0001)   Seconds in section "CALC_R_STAR         [FORWARD_STEP]":
(PID.TID 0000.0001)           User time:  0.10000000000000142
(PID.TID 0000.0001)         System time:   0.0000000000000000
(PID.TID 0000.0001)     Wall clock time:  0.12034654617309570
(PID.TID 0000.0001)          No. starts:          20
(PID.TID 0000.0001)           No. stops:          20
(PID.TID 0000.0001)   Seconds in section "BLOCKING_EXCHANGES  [FORWARD_STEP]":
(PID.TID 0000.0001)           User time:  0.90000000000000568
(PID.TID 0000.0001)         System time:   0.0000000000000000
(PID.TID 0000.0001)     Wall clock time:  0.86885643005371094
(PID.TID 0000.0001)          No. starts:          40
(PID.TID 0000.0001)           No. stops:          40
(PID.TID 0000.0001)   Seconds in section "THERMODYNAMICS      [FORWARD_STEP]":
(PID.TID 0000.0001)           User time:   10.330000000000005
(PID.TID 0000.0001)         System time:   0.0000000000000000
(PID.TID 0000.0001)     Wall clock time:   10.325424909591675
(PID.TID 0000.0001)          No. starts:          20
(PID.TID 0000.0001)           No. stops:          20
(PID.TID 0000.0001)   Seconds in section "TRC_CORRECTION_STEP [FORWARD_STEP]":
(PID.TID 0000.0001)           User time:  0.15000000000000568
(PID.TID 0000.0001)         System time:   0.0000000000000000
(PID.TID 0000.0001)     Wall clock time:  0.15759825706481934
(PID.TID 0000.0001)          No. starts:          20
(PID.TID 0000.0001)           No. stops:          20
(PID.TID 0000.0001)   Seconds in section "DO_STATEVARS_TAVE   [FORWARD_STEP]":
(PID.TID 0000.0001)           User time:   1.9299999999999926
(PID.TID 0000.0001)         System time:   0.0000000000000000
(PID.TID 0000.0001)     Wall clock time:   1.9544465541839600
(PID.TID 0000.0001)          No. starts:          20
(PID.TID 0000.0001)           No. stops:          20
(PID.TID 0000.0001)   Seconds in section "MONITOR             [FORWARD_STEP]":
(PID.TID 0000.0001)           User time:   3.1799999999999997
(PID.TID 0000.0001)         System time:   0.0000000000000000
(PID.TID 0000.0001)     Wall clock time:   3.1789829730987549
(PID.TID 0000.0001)          No. starts:          20
(PID.TID 0000.0001)           No. stops:          20
(PID.TID 0000.0001)   Seconds in section "DO_THE_MODEL_IO     [FORWARD_STEP]":
(PID.TID 0000.0001)           User time:  0.18999999999999773
(PID.TID 0000.0001)         System time:  4.00000000000000078E-002
(PID.TID 0000.0001)     Wall clock time:  0.24194502830505371
(PID.TID 0000.0001)          No. starts:          20
(PID.TID 0000.0001)           No. stops:          20
(PID.TID 0000.0001)   Seconds in section "DO_WRITE_PICKUP     [FORWARD_STEP]":
(PID.TID 0000.0001)           User time:  6.00000000000022737E-002
(PID.TID 0000.0001)         System time:  9.99999999999998113E-003
(PID.TID 0000.0001)     Wall clock time:  7.08587169647216797E-002
(PID.TID 0000.0001)          No. starts:          20
(PID.TID 0000.0001)           No. stops:          20
(PID.TID 0000.0001) // ======================================================
(PID.TID 0000.0001) // Tile <-> Tile communication statistics
(PID.TID 0000.0001) // ======================================================
(PID.TID 0000.0001) // o Tile number: 000001
(PID.TID 0000.0001) //         No. X exchanges =              0
(PID.TID 0000.0001) //            Max. X spins =              0
(PID.TID 0000.0001) //            Min. X spins =     1000000000
(PID.TID 0000.0001) //          Total. X spins =              0
(PID.TID 0000.0001) //            Avg. X spins =       0.00E+00
(PID.TID 0000.0001) //         No. Y exchanges =              0
(PID.TID 0000.0001) //            Max. Y spins =              0
(PID.TID 0000.0001) //            Min. Y spins =     1000000000
(PID.TID 0000.0001) //          Total. Y spins =              0
(PID.TID 0000.0001) //            Avg. Y spins =       0.00E+00
(PID.TID 0000.0001) // o Tile number: 000002
(PID.TID 0000.0001) //         No. X exchanges =              0
(PID.TID 0000.0001) //            Max. X spins =              0
(PID.TID 0000.0001) //            Min. X spins =     1000000000
(PID.TID 0000.0001) //          Total. X spins =              0
(PID.TID 0000.0001) //            Avg. X spins =       0.00E+00
(PID.TID 0000.0001) //         No. Y exchanges =              0
(PID.TID 0000.0001) //            Max. Y spins =              0
(PID.TID 0000.0001) //            Min. Y spins =     1000000000
(PID.TID 0000.0001) //          Total. Y spins =              0
(PID.TID 0000.0001) //            Avg. Y spins =       0.00E+00
(PID.TID 0000.0001) // o Tile number: 000003
(PID.TID 0000.0001) //         No. X exchanges =              0
(PID.TID 0000.0001) //            Max. X spins =              0
(PID.TID 0000.0001) //            Min. X spins =     1000000000
(PID.TID 0000.0001) //          Total. X spins =              0
(PID.TID 0000.0001) //            Avg. X spins =       0.00E+00
(PID.TID 0000.0001) //         No. Y exchanges =              0
(PID.TID 0000.0001) //            Max. Y spins =              0
(PID.TID 0000.0001) //            Min. Y spins =     1000000000
(PID.TID 0000.0001) //          Total. Y spins =              0
(PID.TID 0000.0001) //            Avg. Y spins =       0.00E+00
(PID.TID 0000.0001) // o Tile number: 000004
(PID.TID 0000.0001) //         No. X exchanges =              0
(PID.TID 0000.0001) //            Max. X spins =              0
(PID.TID 0000.0001) //            Min. X spins =     1000000000
(PID.TID 0000.0001) //          Total. X spins =              0
(PID.TID 0000.0001) //            Avg. X spins =       0.00E+00
(PID.TID 0000.0001) //         No. Y exchanges =              0
(PID.TID 0000.0001) //            Max. Y spins =              0
(PID.TID 0000.0001) //            Min. Y spins =     1000000000
(PID.TID 0000.0001) //          Total. Y spins =              0
(PID.TID 0000.0001) //            Avg. Y spins =       0.00E+00
(PID.TID 0000.0001) // o Tile number: 000005
(PID.TID 0000.0001) //         No. X exchanges =              0
(PID.TID 0000.0001) //            Max. X spins =              0
(PID.TID 0000.0001) //            Min. X spins =     1000000000
(PID.TID 0000.0001) //          Total. X spins =              0
(PID.TID 0000.0001) //            Avg. X spins =       0.00E+00
(PID.TID 0000.0001) //         No. Y exchanges =              0
(PID.TID 0000.0001) //            Max. Y spins =              0
(PID.TID 0000.0001) //            Min. Y spins =     1000000000
(PID.TID 0000.0001) //          Total. Y spins =              0
(PID.TID 0000.0001) //            Avg. Y spins =       0.00E+00
(PID.TID 0000.0001) // o Tile number: 000006
(PID.TID 0000.0001) //         No. X exchanges =              0
(PID.TID 0000.0001) //            Max. X spins =              0
(PID.TID 0000.0001) //            Min. X spins =     1000000000
(PID.TID 0000.0001) //          Total. X spins =              0
(PID.TID 0000.0001) //            Avg. X spins =       0.00E+00
(PID.TID 0000.0001) //         No. Y exchanges =              0
(PID.TID 0000.0001) //            Max. Y spins =              0
(PID.TID 0000.0001) //            Min. Y spins =     1000000000
(PID.TID 0000.0001) //          Total. Y spins =              0
(PID.TID 0000.0001) //            Avg. Y spins =       0.00E+00
(PID.TID 0000.0001) // o Tile number: 000007
(PID.TID 0000.0001) //         No. X exchanges =              0
(PID.TID 0000.0001) //            Max. X spins =              0
(PID.TID 0000.0001) //            Min. X spins =     1000000000
(PID.TID 0000.0001) //          Total. X spins =              0
(PID.TID 0000.0001) //            Avg. X spins =       0.00E+00
(PID.TID 0000.0001) //         No. Y exchanges =              0
(PID.TID 0000.0001) //            Max. Y spins =              0
(PID.TID 0000.0001) //            Min. Y spins =     1000000000
(PID.TID 0000.0001) //          Total. Y spins =              0
(PID.TID 0000.0001) //            Avg. Y spins =       0.00E+00
(PID.TID 0000.0001) // o Tile number: 000008
(PID.TID 0000.0001) //         No. X exchanges =              0
(PID.TID 0000.0001) //            Max. X spins =              0
(PID.TID 0000.0001) //            Min. X spins =     1000000000
(PID.TID 0000.0001) //          Total. X spins =              0
(PID.TID 0000.0001) //            Avg. X spins =       0.00E+00
(PID.TID 0000.0001) //         No. Y exchanges =              0
(PID.TID 0000.0001) //            Max. Y spins =              0
(PID.TID 0000.0001) //            Min. Y spins =     1000000000
(PID.TID 0000.0001) //          Total. Y spins =              0
(PID.TID 0000.0001) //            Avg. Y spins =       0.00E+00
(PID.TID 0000.0001) // o Tile number: 000009
(PID.TID 0000.0001) //         No. X exchanges =              0
(PID.TID 0000.0001) //            Max. X spins =              0
(PID.TID 0000.0001) //            Min. X spins =     1000000000
(PID.TID 0000.0001) //          Total. X spins =              0
(PID.TID 0000.0001) //            Avg. X spins =       0.00E+00
(PID.TID 0000.0001) //         No. Y exchanges =              0
(PID.TID 0000.0001) //            Max. Y spins =              0
(PID.TID 0000.0001) //            Min. Y spins =     1000000000
(PID.TID 0000.0001) //          Total. Y spins =              0
(PID.TID 0000.0001) //            Avg. Y spins =       0.00E+00
(PID.TID 0000.0001) // o Tile number: 000010
(PID.TID 0000.0001) //         No. X exchanges =              0
(PID.TID 0000.0001) //            Max. X spins =              0
(PID.TID 0000.0001) //            Min. X spins =     1000000000
(PID.TID 0000.0001) //          Total. X spins =              0
(PID.TID 0000.0001) //            Avg. X spins =       0.00E+00
(PID.TID 0000.0001) //         No. Y exchanges =              0
(PID.TID 0000.0001) //            Max. Y spins =              0
(PID.TID 0000.0001) //            Min. Y spins =     1000000000
(PID.TID 0000.0001) //          Total. Y spins =              0
(PID.TID 0000.0001) //            Avg. Y spins =       0.00E+00
(PID.TID 0000.0001) // o Tile number: 000011
(PID.TID 0000.0001) //         No. X exchanges =              0
(PID.TID 0000.0001) //            Max. X spins =              0
(PID.TID 0000.0001) //            Min. X spins =     1000000000
(PID.TID 0000.0001) //          Total. X spins =              0
(PID.TID 0000.0001) //            Avg. X spins =       0.00E+00
(PID.TID 0000.0001) //         No. Y exchanges =              0
(PID.TID 0000.0001) //            Max. Y spins =              0
(PID.TID 0000.0001) //            Min. Y spins =     1000000000
(PID.TID 0000.0001) //          Total. Y spins =              0
(PID.TID 0000.0001) //            Avg. Y spins =       0.00E+00
(PID.TID 0000.0001) // o Tile number: 000012
(PID.TID 0000.0001) //         No. X exchanges =              0
(PID.TID 0000.0001) //            Max. X spins =              0
(PID.TID 0000.0001) //            Min. X spins =     1000000000
(PID.TID 0000.0001) //          Total. X spins =              0
(PID.TID 0000.0001) //            Avg. X spins =       0.00E+00
(PID.TID 0000.0001) //         No. Y exchanges =              0
(PID.TID 0000.0001) //            Max. Y spins =              0
(PID.TID 0000.0001) //            Min. Y spins =     1000000000
(PID.TID 0000.0001) //          Total. Y spins =              0
(PID.TID 0000.0001) //            Avg. Y spins =       0.00E+00
(PID.TID 0000.0001) // o Thread number: 000001
(PID.TID 0000.0001) //            No. barriers =          25836
(PID.TID 0000.0001) //      Max. barrier spins =              1
(PID.TID 0000.0001) //      Min. barrier spins =              1
(PID.TID 0000.0001) //     Total barrier spins =          25836
(PID.TID 0000.0001) //      Avg. barrier spins =       1.00E+00
