(PID.TID 0000.0001) 
(PID.TID 0000.0001) // ======================================================
(PID.TID 0000.0001) //                      MITgcm UV
(PID.TID 0000.0001) //                      =========
(PID.TID 0000.0001) // ======================================================
(PID.TID 0000.0001) // execution environment starting up...
(PID.TID 0000.0001) 
(PID.TID 0000.0001) // MITgcmUV version:  checkpoint61o
(PID.TID 0000.0001) // Build user:        jmc
(PID.TID 0000.0001) // Build host:        faulks
(PID.TID 0000.0001) // Build date:        Thu May 28 19:23:33 EDT 2009
(PID.TID 0000.0001) 
(PID.TID 0000.0001) // =======================================================
(PID.TID 0000.0001) // Execution Environment parameter file "eedata"
(PID.TID 0000.0001) // =======================================================
(PID.TID 0000.0001) ># Example "eedata" file
(PID.TID 0000.0001) ># Lines beginning "#" are comments
(PID.TID 0000.0001) ># nTx - No. threads per process in X
(PID.TID 0000.0001) ># nTy - No. threads per process in Y
(PID.TID 0000.0001) > &EEPARMS
(PID.TID 0000.0001) > useCubedSphereExchange=.TRUE.,
(PID.TID 0000.0001) > nTx=1,
(PID.TID 0000.0001) > nTy=1,
(PID.TID 0000.0001) > &
(PID.TID 0000.0001) ># Note: Some systems use & as the
(PID.TID 0000.0001) ># namelist terminator. Other systems
(PID.TID 0000.0001) ># use a / character (as shown here).
(PID.TID 0000.0001) 
(PID.TID 0000.0001) // =======================================================
(PID.TID 0000.0001) // Computational Grid Specification ( see files "SIZE.h" )
(PID.TID 0000.0001) //                                  ( and "eedata"       )
(PID.TID 0000.0001) // =======================================================
(PID.TID 0000.0001)      nPx =    1 ; /* No. processes in X */
(PID.TID 0000.0001)      nPy =    1 ; /* No. processes in Y */
(PID.TID 0000.0001)      nSx =   12 ; /* No. tiles in X per process */
(PID.TID 0000.0001)      nSy =    1 ; /* No. tiles in Y per process */
(PID.TID 0000.0001)      sNx =   32 ; /* Tile size in X */
(PID.TID 0000.0001)      sNy =   16 ; /* Tile size in Y */
(PID.TID 0000.0001)      OLx =    4 ; /* Tile overlap distance in X */
(PID.TID 0000.0001)      OLy =    4 ; /* Tile overlap distance in Y */
(PID.TID 0000.0001)      nTx =    1 ; /* No. threads in X per process */
(PID.TID 0000.0001)      nTy =    1 ; /* No. threads in Y per process */
(PID.TID 0000.0001)       Nr =   15 ; /* No. levels in the vertical   */
(PID.TID 0000.0001)       Nx =  384 ; /* Total domain size in X ( = nPx*nSx*sNx ) */
(PID.TID 0000.0001)       Ny =   16 ; /* Total domain size in Y ( = nPy*nSy*sNy ) */
(PID.TID 0000.0001)   nTiles =   12 ; /* Total no. tiles per process ( = nSx*nSy ) */
(PID.TID 0000.0001)   nProcs =    1 ; /* Total no. processes ( = nPx*nPy ) */
(PID.TID 0000.0001) nThreads =    1 ; /* Total no. threads per process ( = nTx*nTy ) */
(PID.TID 0000.0001) usingMPI =    F ; /* Flag used to control whether MPI is in use */
(PID.TID 0000.0001)                   /*  note: To execute a program with MPI calls */
(PID.TID 0000.0001)                   /*  it must be launched appropriately e.g     */
(PID.TID 0000.0001)                   /*  "mpirun -np 64 ......"                    */
(PID.TID 0000.0001) useCoupler=    F ;/* Flag used to control communications with   */
(PID.TID 0000.0001)                   /*  other model components, through a coupler */
(PID.TID 0000.0001) printMapIncludesZeros=    F ; /* print zeros in Std.Output maps */
(PID.TID 0000.0001) maxLengthPrt1D=   65 /* maxLength of 1D array printed to StdOut */
(PID.TID 0000.0001) 
(PID.TID 0000.0001) // ======================================================
(PID.TID 0000.0001) // Mapping of tiles to threads
(PID.TID 0000.0001) // ======================================================
(PID.TID 0000.0001) // -o- Thread   1, tiles (   1:  12,   1:   1)
(PID.TID 0000.0001) 
(PID.TID 0000.0001) W2_READPARMS: file data.exch2 not found
(PID.TID 0000.0001) => use W2_EXCH2 default: regular 6-facets Cube
(PID.TID 0000.0001) ===== Start setting W2 TOPOLOGY:
(PID.TID 0000.0001)  write to log-file: w2_tile_topology.0000.log
(PID.TID 0000.0001) =====       setting W2 TOPOLOGY: Done
(PID.TID 0000.0001) 
(PID.TID 0000.0001) // =======================================================
(PID.TID 0000.0001) // Model parameter file "data"
(PID.TID 0000.0001) // =======================================================
(PID.TID 0000.0001) ># ====================
(PID.TID 0000.0001) ># | Model parameters |
(PID.TID 0000.0001) ># ====================
(PID.TID 0000.0001) >#
(PID.TID 0000.0001) ># Continuous equation parameters
(PID.TID 0000.0001) > &PARM01
(PID.TID 0000.0001) > tRef=15*20.,
(PID.TID 0000.0001) > sRef=15*35.,
(PID.TID 0000.0001) > viscAh =3.E5,
(PID.TID 0000.0001) > viscAr =1.E-3,
(PID.TID 0000.0001) > diffKhT=0.,
(PID.TID 0000.0001) > diffK4T=0.,
(PID.TID 0000.0001) > diffKrT=3.E-5,
(PID.TID 0000.0001) > diffKhS=0.,
(PID.TID 0000.0001) > diffK4S=0.,
(PID.TID 0000.0001) > diffKrS=3.E-5,
(PID.TID 0000.0001) > ivdc_kappa=10.,
(PID.TID 0000.0001) > implicitDiffusion=.TRUE.,
(PID.TID 0000.0001) > gravity=9.81,
(PID.TID 0000.0001) > rhonil=1035.,
(PID.TID 0000.0001) > rhoConstFresh=1000.,
(PID.TID 0000.0001) > eosType='JMD95Z',
(PID.TID 0000.0001) > staggerTimeStep=.TRUE.,
(PID.TID 0000.0001) > vectorInvariantMomentum=.TRUE.,
(PID.TID 0000.0001) > implicitFreeSurface=.TRUE.,
(PID.TID 0000.0001) > exactConserv=.TRUE.,
(PID.TID 0000.0001) > select_rStar=2,
(PID.TID 0000.0001) > nonlinFreeSurf=4,
(PID.TID 0000.0001) > hFacInf=0.2,
(PID.TID 0000.0001) > hFacSup=2.0,
(PID.TID 0000.0001) > useRealFreshWaterFlux=.TRUE.,
(PID.TID 0000.0001) > hFacMin=.1,
(PID.TID 0000.0001) > hFacMinDr=20.,
(PID.TID 0000.0001) > readBinaryPrec=64,
(PID.TID 0000.0001) >#writeBinaryPrec=64,
(PID.TID 0000.0001) > &
(PID.TID 0000.0001) >
(PID.TID 0000.0001) ># Elliptic solver parameters
(PID.TID 0000.0001) > &PARM02
(PID.TID 0000.0001) > cg2dMaxIters=200,
(PID.TID 0000.0001) >#cg2dTargetResidual=1.E-9,
(PID.TID 0000.0001) > cg2dTargetResWunit=1.E-14,
(PID.TID 0000.0001) > &
(PID.TID 0000.0001) >
(PID.TID 0000.0001) ># Time stepping parameters
(PID.TID 0000.0001) > &PARM03
(PID.TID 0000.0001) > nIter0=36000,
(PID.TID 0000.0001) > nTimeSteps=20,
(PID.TID 0000.0001) > deltaTmom   =1200.,
(PID.TID 0000.0001) > deltaTtracer=86400.,
(PID.TID 0000.0001) > deltaTfreesurf=86400.,
(PID.TID 0000.0001) > deltaTClock =86400.,
(PID.TID 0000.0001) > abEps = 0.1,
(PID.TID 0000.0001) >#forcing_In_AB=.FALSE.,
(PID.TID 0000.0001) > tracForcingOutAB=1,
(PID.TID 0000.0001) > pChkptFreq  =31104000.,
(PID.TID 0000.0001) > taveFreq    =31104000.,
(PID.TID 0000.0001) > dumpFreq    =31104000.,
(PID.TID 0000.0001) > monitorFreq =2592000.,
(PID.TID 0000.0001) >#tave_lastIter=0.,
(PID.TID 0000.0001) > periodicExternalForcing=.TRUE.,
(PID.TID 0000.0001) > externForcingPeriod=2592000.,
(PID.TID 0000.0001) > externForcingCycle=31104000.,
(PID.TID 0000.0001) ># 2 months restoring timescale for temperature
(PID.TID 0000.0001) > tauThetaClimRelax = 5184000.,
(PID.TID 0000.0001) ># 6 months restoring timescale for salinity
(PID.TID 0000.0001) > tauSaltClimRelax = 15552000.,
(PID.TID 0000.0001) > latBandClimRelax=50.,
(PID.TID 0000.0001) > monitorFreq =1.,
(PID.TID 0000.0001) > &
(PID.TID 0000.0001) >
(PID.TID 0000.0001) ># Gridding parameters
(PID.TID 0000.0001) > &PARM04
(PID.TID 0000.0001) > usingCurvilinearGrid=.TRUE.,
(PID.TID 0000.0001) > horizGridFile='grid_cs32',
(PID.TID 0000.0001) > delR= 50., 70., 100., 140., 190.,
(PID.TID 0000.0001) >       240., 290., 340., 390., 440.,
(PID.TID 0000.0001) >       490., 540., 590., 640., 690.,
(PID.TID 0000.0001) > &
(PID.TID 0000.0001) >
(PID.TID 0000.0001) ># Input datasets
(PID.TID 0000.0001) > &PARM05
(PID.TID 0000.0001) > bathyFile      ='bathy_Hmin50.bin',
(PID.TID 0000.0001) > hydrogThetaFile='lev_T_cs_15k.bin',
(PID.TID 0000.0001) > hydrogSaltFile ='lev_S_cs_15k.bin',
(PID.TID 0000.0001) > zonalWindFile  ='trenberth_taux.bin',
(PID.TID 0000.0001) > meridWindFile  ='trenberth_tauy.bin',
(PID.TID 0000.0001) > thetaClimFile  ='lev_surfT_cs_12m.bin',
(PID.TID 0000.0001) > saltClimFile   ='lev_surfS_cs_12m.bin',
(PID.TID 0000.0001) > &
(PID.TID 0000.0001) 
(PID.TID 0000.0001) S/R INI_PARMS ; starts to read PARM01
(PID.TID 0000.0001) S/R INI_PARMS ; read PARM01 : OK
(PID.TID 0000.0001) S/R INI_PARMS ; starts to read PARM02
(PID.TID 0000.0001) S/R INI_PARMS ; read PARM02 : OK
(PID.TID 0000.0001) S/R INI_PARMS ; starts to read PARM03
(PID.TID 0000.0001) S/R INI_PARMS ; read PARM03 : OK
(PID.TID 0000.0001) S/R INI_PARMS ; starts to read PARM04
(PID.TID 0000.0001) S/R INI_PARMS ; read PARM04 : OK
(PID.TID 0000.0001) S/R INI_PARMS ; starts to read PARM05
(PID.TID 0000.0001) S/R INI_PARMS ; read PARM05 : OK
(PID.TID 0000.0001)  PACKAGES_BOOT: opening data.pkg
(PID.TID 0000.0001)  OPEN_COPY_DATA_FILE: opening file data.pkg
(PID.TID 0000.0001) // =======================================================
(PID.TID 0000.0001) // Parameter file "data.pkg"
(PID.TID 0000.0001) // =======================================================
(PID.TID 0000.0001) ># Packages
(PID.TID 0000.0001) > &PACKAGES
(PID.TID 0000.0001) > useGMRedi=.TRUE.,
(PID.TID 0000.0001) > useBulkforce=.TRUE.,
(PID.TID 0000.0001) > useThSIce=.TRUE.,
(PID.TID 0000.0001) > useDiagnostics=.TRUE.,
(PID.TID 0000.0001) > &
(PID.TID 0000.0001) 
(PID.TID 0000.0001)  PACKAGES_BOOT: finished reading data.pkg
(PID.TID 0000.0001)  GM_READPARMS: opening data.gmredi
(PID.TID 0000.0001)  OPEN_COPY_DATA_FILE: opening file data.gmredi
(PID.TID 0000.0001) // =======================================================
(PID.TID 0000.0001) // Parameter file "data.gmredi"
(PID.TID 0000.0001) // =======================================================
(PID.TID 0000.0001) ># GM+Redi package parameters:
(PID.TID 0000.0001) >
(PID.TID 0000.0001) >#-from MOM :
(PID.TID 0000.0001) ># GM_background_K: 	G & Mc.W  diffusion coefficient
(PID.TID 0000.0001) ># GM_maxSlope    :	max slope of isopycnals
(PID.TID 0000.0001) ># GM_Scrit       :	transition for scaling diffusion coefficient
(PID.TID 0000.0001) ># GM_Sd          :	half width scaling for diffusion coefficient
(PID.TID 0000.0001) ># GM_taper_scheme:	slope clipping or one of the tapering schemes
(PID.TID 0000.0001) ># GM_Kmin_horiz  :	horizontal diffusion minimum value
(PID.TID 0000.0001) >
(PID.TID 0000.0001) >#-Option parameters (needs to "define" options in GMREDI_OPTIONS.h")
(PID.TID 0000.0001) ># GM_isopycK     :	isopycnal diffusion coefficient (default=GM_background_K)
(PID.TID 0000.0001) ># GM_AdvForm     :	turn on GM Advective form       (default=Skew flux form)
(PID.TID 0000.0001) >
(PID.TID 0000.0001) > &GM_PARM01
(PID.TID 0000.0001) >  GM_background_K    = 800.,
(PID.TID 0000.0001) >  GM_taper_scheme    = 'gkw91',
(PID.TID 0000.0001) >  GM_maxSlope        = 1.e-2,
(PID.TID 0000.0001) >  GM_Kmin_horiz      = 50.,
(PID.TID 0000.0001) >  GM_Scrit           = 4.e-3,
(PID.TID 0000.0001) >  GM_Sd              = 1.e-3,
(PID.TID 0000.0001) ># GM_Visbeck_alpha   = 0.,
(PID.TID 0000.0001) ># GM_Visbeck_length  = 2.e+5,
(PID.TID 0000.0001) ># GM_Visbeck_depth   = 1.e+3,
(PID.TID 0000.0001) ># GM_Visbeck_maxval_K= 2.5e+3,
(PID.TID 0000.0001) > &
(PID.TID 0000.0001) >
(PID.TID 0000.0001) >
(PID.TID 0000.0001) 
(PID.TID 0000.0001)  GM_READPARMS: finished reading data.gmredi
(PID.TID 0000.0001)  OPEN_COPY_DATA_FILE: opening file data.blk
(PID.TID 0000.0001) // =======================================================
(PID.TID 0000.0001) // Parameter file "data.blk"
(PID.TID 0000.0001) // =======================================================
(PID.TID 0000.0001) > &BULKF_CONST
(PID.TID 0000.0001) > Tf0kel = 273.15,
(PID.TID 0000.0001) >#p0   = 1013.,  <- no longer in Namelist, but hard coded
(PID.TID 0000.0001) > Rgas   = 287.,
(PID.TID 0000.0001) > &
(PID.TID 0000.0001) >
(PID.TID 0000.0001) > &BULKF_PARM01
(PID.TID 0000.0001) ># set blk_nIter=0 to use the original FORMULA_LANL:
(PID.TID 0000.0001) > blk_nIter= 0,
(PID.TID 0000.0001) >#RainFile=       'ncep_precip_cs.bin',
(PID.TID 0000.0001) > RainFile=       'ncep_pr_scal_cs.bin',
(PID.TID 0000.0001) > SolarFile=      'ncep_downsolar_cs.bin',
(PID.TID 0000.0001) > AirTempFile=    'ncep_tair_cs.bin',
(PID.TID 0000.0001) > AirhumidityFile='ncep_qair_cs.bin',
(PID.TID 0000.0001) > LongwaveFile=   'ncep_downlw_cs.bin',
(PID.TID 0000.0001) > UWindFile=      ' ',
(PID.TID 0000.0001) > VWindFile=      ' ',
(PID.TID 0000.0001) > WspeedFile=     'ncep_windspeed_cs.bin',
(PID.TID 0000.0001) > RunoffFile=     ' ',
(PID.TID 0000.0001) > QnetFile=       ' ',
(PID.TID 0000.0001) > EmPFile=        ' ',
(PID.TID 0000.0001) > CloudFile=      ' ',
(PID.TID 0000.0001) >#blk_taveFreq=864000.,
(PID.TID 0000.0001) > &
(PID.TID 0000.0001) >
(PID.TID 0000.0001) > &BULKF_PARM02
(PID.TID 0000.0001) > qnet_off=0.0,
(PID.TID 0000.0001) > empmr_off=0.0,
(PID.TID 0000.0001) > conservcycle=311040000.,
(PID.TID 0000.0001) > &
(PID.TID 0000.0001) >
(PID.TID 0000.0001) 
(PID.TID 0000.0001)  BULKF_READPARMS: starts to read BULKF_CONST
(PID.TID 0000.0001)  BULKF_READPARMS: read BULKF_CONST : OK
(PID.TID 0000.0001)  BULKF_READPARMS: starts to read BULKF_PARM01
(PID.TID 0000.0001)  BULKF_READPARMS: read BULKF_PARM01 : OK
 BlkF: rhoA     =  1.3
 BlkF: rhoFW    =  1000.
 BlkF: cpAir    =  1004.
 BlkF: Lvap     =  2500000.
 BlkF: Lfresh   =  334000.
 BlkF: Tf0kel   =  273.15
 BlkF: Rgas     =  287.
 BlkF: xkar     =  0.4
 BlkF: stefan   =  5.67E-08
 BlkF: zref     =  10.
 BlkF: zwd      =  10.
 BlkF: zth      =  10.
 BlkF: cDrag_1  =  0.0027
 BlkF: cDrag_2  =  0.000142
 BlkF: cDrag_3  =  7.64E-05
 BlkF: cStantonS=  0.018
 BlkF: cStantonU=  0.0327
 BlkF: cDalton  =  0.0346
 BlkF: umin     =  1.
 BlkF: humid_fac=  0.606
 BlkF: saltQsFac=  0.98
 BlkF: gamma_blk=  0.01
 BlkF: atm_emissivity  =  0.9
 BlkF: ocean_emissivity=  0.985
 BlkF: snow_emissivity =  0.98
 BlkF: ice_emissivity  =  0.98
 BlkF: ocean_albedo    =  0.1
 BlkF: FWIND0   =  0.6
 BlkF: CHS      =  0.0008
 BlkF: VGUST    =  5.
 BlkF: DTHETA   =  3.
 BlkF: dTstab   =  1.
 BlkF: FSTAB    =  0.67
 BlkF: useFluxFormula_AIM= F
 BlkF: calcWindStress  = F
 BlkF: useQnetch       = F
 BlkF: useEmPch        = F
 BlkF: blk_nIter   = 0
 BlkF: blk_taveFreq=  31104000.
(PID.TID 0000.0001)  THSICE_READPARMS: opening data.ice
(PID.TID 0000.0001)  OPEN_COPY_DATA_FILE: opening file data.ice
(PID.TID 0000.0001) // =======================================================
(PID.TID 0000.0001) // Parameter file "data.ice"
(PID.TID 0000.0001) // =======================================================
(PID.TID 0000.0001) > &THSICE_CONST
(PID.TID 0000.0001) > Tf0kel  = 273.15,
(PID.TID 0000.0001) >#- with LANL albedo:
(PID.TID 0000.0001) >#albWarmSnow= 0.75,
(PID.TID 0000.0001) >#- for full ice-fraction :
(PID.TID 0000.0001) >#fracEnMelt = 0.,
(PID.TID 0000.0001) >#iceMaskMin = 1.,
(PID.TID 0000.0001) >#hThinIce   = 0.01,
(PID.TID 0000.0001) >#hThickIce  = 100.,
(PID.TID 0000.0001) >#- with fractional ice:
(PID.TID 0000.0001) > iceMaskMin = 0.05,
(PID.TID 0000.0001) > hiMax      = 10.,
(PID.TID 0000.0001) > hsMax      = 10.,
(PID.TID 0000.0001) >#albIceMax  = 0.7,
(PID.TID 0000.0001) >#albIceMin  = 0.7,
(PID.TID 0000.0001) > &
(PID.TID 0000.0001) >
(PID.TID 0000.0001) > &THSICE_PARM01
(PID.TID 0000.0001) >#StartIceModel=1,
(PID.TID 0000.0001) > stressReduction=0.,
(PID.TID 0000.0001) >#thSIce_taveFreq=2592000.,
(PID.TID 0000.0001) >#thSIce_diagFreq=2592000.,
(PID.TID 0000.0001) >#thSIce_monFreq=864000.,
(PID.TID 0000.0001) > &
(PID.TID 0000.0001) >
(PID.TID 0000.0001) 
(PID.TID 0000.0001)  THSICE_READPARMS: read THSICE_CONST
(PID.TID 0000.0001)  THSICE_READPARMS: read THSICE_PARM01
 ThSI: rhos      =  330.
 ThSI: rhoi      =  900.
 ThSI: rhosw     =  1035.
 ThSI: rhofw     =  1000.
 ThSI: floodFac  =  0.409090909
 ThSI: cpIce     =  2106.
 ThSI: cpWater   =  3994.
 ThSI: kIce      =  2.03
 ThSI: kSnow     =  0.3
 ThSI: bMeltCoef =  0.006
 ThSI: Lfresh    =  334000.
 ThSI: qsnow     =  334000.
 ThSI: albColdSnow=  0.85
 ThSI: albWarmSnow=  0.7
 ThSI: tempSnowAlb= -10.
 ThSI: albOldSnow =  0.55
 ThSI: hNewSnowAge=  0.002
 ThSI: snowAgTime =  4320000.
 ThSI: albIceMax =  0.65
 ThSI: albIceMin =  0.2
 ThSI: hAlbIce   =  0.5
 ThSI: hAlbSnow  =  0.3
 ThSI: i0swFrac  =  0.3
 ThSI: ksolar    =  1.5
 ThSI: dhSnowLin =  0.
 ThSI: saltIce   =  4.
 ThSI: S_winton  =  1.
 ThSI: mu_Tf     =  0.054
 ThSI: Tf0kel    =  273.15
 ThSI: Tmlt1     = -0.054
 ThSI: Terrmax   =  0.5
 ThSI: nitMaxTsf = 20
 ThSI: hIceMin   =  0.01
 ThSI: hiMax     =  10.
 ThSI: hsMax     =  10.
 ThSI: iceMaskMax =  1.
 ThSI: iceMaskMin =  0.05
 ThSI: fracEnMelt =  0.4
 ThSI: fracEnFreez=  0.
 ThSI: hThinIce   =  0.2
 ThSI: hThickIce  =  2.5
 ThSI: hNewIceMax =  10.
 ThSI: stressReduction =  0.
 ThSI: thSIceAdvScheme = 0
 ThSI: thSIce_diffK  =  0.
 ThSI: thSIce_deltaT =  86400.
 ThSI: ocean_deltaT  =  86400.
 ThSI: stepFwd_oceMxL= F
 ThSI: tauRelax_MxL  =  0.
 ThSI: hMxL_default  =  50.
 ThSI: sMxL_default  =  35.
 ThSI: vMxL_default  =  0.05
 ThSI: thSIce_taveFreq=  31104000.
 ThSI: thSIce_diagFreq=  31104000.
 ThSI: thSIce_monFreq =  1.
 ThSI: startIceModel = 0
(PID.TID 0000.0001)  DIAGNOSTICS_READPARMS: opening data.diagnostics
(PID.TID 0000.0001)  OPEN_COPY_DATA_FILE: opening file data.diagnostics
(PID.TID 0000.0001) // =======================================================
(PID.TID 0000.0001) // Parameter file "data.diagnostics"
(PID.TID 0000.0001) // =======================================================
(PID.TID 0000.0001) ># Diagnostic Package Choices
(PID.TID 0000.0001) >#-----------------
(PID.TID 0000.0001) ># for each output-stream:
(PID.TID 0000.0001) >#  filename(n) : prefix of the output file name (only 8.c long) for outp.stream n
(PID.TID 0000.0001) >#  frequency(n):< 0 : write snap-shot output every |frequency| seconds
(PID.TID 0000.0001) >#               > 0 : write time-average output every frequency seconds
(PID.TID 0000.0001) >#  timePhase(n)     : write at time = timePhase + multiple of |frequency|
(PID.TID 0000.0001) >#  averagingFreq(n) : frequency (in s) for periodic averaging interval
(PID.TID 0000.0001) >#  averagingPhase(n): phase     (in s) for periodic averaging interval
(PID.TID 0000.0001) >#  repeatCycle(n)   : number of averaging intervals in 1 cycle
(PID.TID 0000.0001) >#  levels(:,n) : list of levels to write to file (Notes: declared as REAL)
(PID.TID 0000.0001) >#                 when this entry is missing, select all common levels of this list
(PID.TID 0000.0001) >#  fields(:,n) : list of diagnostics fields (8.c) (see "available_diagnostics.log"
(PID.TID 0000.0001) >#                 file for the list of all available diag. in this particular config)
(PID.TID 0000.0001) >#-----------------
(PID.TID 0000.0001) > &DIAGNOSTICS_LIST
(PID.TID 0000.0001) ># diag_mnc     = .FALSE.,
(PID.TID 0000.0001) ># dumpAtLast   = .TRUE.,
(PID.TID 0000.0001) >   fields(1,1) = 'ETAN    ','ETANSQ  ','DETADT2 ','PHIBOT  ','PHIBOTSQ',
(PID.TID 0000.0001) >                 'oceTAUX ','oceTAUY ','TRELAX  ','SRELAX  ',
(PID.TID 0000.0001) >                 'surForcT','surForcS','TFLUX   ','SFLUX   ',
(PID.TID 0000.0001) >                 'oceQsw  ','oceQnet ','oceSflux','oceFWflx',
(PID.TID 0000.0001) >   levels(1,1) = 1.,
(PID.TID 0000.0001) >   filename(1) = 'surfDiag',
(PID.TID 0000.0001) >  frequency(1) = 1555200000.,
(PID.TID 0000.0001) >   fields(1,2) = 'UVEL    ','VVEL    ','WVEL    ','PHIHYD  ',
(PID.TID 0000.0001) >                 'VVELMASS','UVELMASS','WVELSQ  ',
(PID.TID 0000.0001) >                 'THETA   ','UTHMASS ','VTHMASS ','WTHMASS ',
(PID.TID 0000.0001) >                 'SALT    ','USLTMASS','VSLTMASS','WSLTMASS',
(PID.TID 0000.0001) ># do not specify levels => all levels are selected
(PID.TID 0000.0001) >   filename(2) = 'dynDiag',
(PID.TID 0000.0001) >  frequency(2) = 1555200000.,
(PID.TID 0000.0001) >   fields(1,3) = 'DRHODR  ','RHOAnoma','CONVADJ ',
(PID.TID 0000.0001) >                 'GM_PsiX ','GM_PsiY ',
(PID.TID 0000.0001) >                 'GM_Kwx  ','GM_Kwy  ','GM_Kwz  ',
(PID.TID 0000.0001) >                 'GM_Kux  ','GM_Kvy  ',
(PID.TID 0000.0001) >                 'GM_Kuz  ','GM_Kvz  ',
(PID.TID 0000.0001) >#- disable this output list by commenting out the file name
(PID.TID 0000.0001) >#  filename(3) = 'oceDiag',
(PID.TID 0000.0001) >  frequency(3) = 1555200000.,
(PID.TID 0000.0001) >   fields(1,4) = 'ADVx_TH ','ADVy_TH ','ADVr_TH ',
(PID.TID 0000.0001) >                 'DFxE_TH ','DFyE_TH ','DFrE_TH ',
(PID.TID 0000.0001) >                 'DFrI_TH ',
(PID.TID 0000.0001) >#                'ADVx_SLT',
(PID.TID 0000.0001) >#  filename(4) = 'flxDiag',
(PID.TID 0000.0001) >  frequency(4) = 1728000.,
(PID.TID 0000.0001) >   fields(1,5) = 'SI_Fract','SI_Thick','SI_SnowH',
(PID.TID 0000.0001) >                 'SI_Tsrf ','SI_Tice1','SI_Tice2',
(PID.TID 0000.0001) >                 'SI_Qice1','SI_Qice2','SIsnwAge',
(PID.TID 0000.0001) >                 'SIsnwPrc','SIalbedo',
(PID.TID 0000.0001) >                 'SIflx2oc','SIfrw2oc','SIsaltFx',
(PID.TID 0000.0001) >                 'SIflxAtm','SIfrwAtm',
(PID.TID 0000.0001) >#                'SItOcMxL','SIsOcMxL',
(PID.TID 0000.0001) >   filename(5) = 'thSIceDiag',
(PID.TID 0000.0001) >  frequency(5) = 1555200000.,
(PID.TID 0000.0001) > averagingFreq(5) = 2592000.,
(PID.TID 0000.0001) >   repeatCycle(5) = 12,
(PID.TID 0000.0001) >#--- to check conservation of Volume, Heat & Salt (with z*+realFW+AB_2):
(PID.TID 0000.0001) >   fields(1,6) = 'ETAN    ','oceFWflx',
(PID.TID 0000.0001) >   filename(6) = 'surfInst',
(PID.TID 0000.0001) >  frequency(6) = -777600.,
(PID.TID 0000.0001) >  timePhase(6) = 0.,
(PID.TID 0000.0001) >   fields(1,7) = 'ETAN    ',
(PID.TID 0000.0001) >   filename(7) = 'etaInst',
(PID.TID 0000.0001) >  frequency(7) = -777600.,
(PID.TID 0000.0001) >  timePhase(7) = 86400.,
(PID.TID 0000.0001) >   fields(1,8) = 'THETA   ','SALT    ',
(PID.TID 0000.0001) >   filename(8) = 'dynInst',
(PID.TID 0000.0001) >  frequency(8) = -777600.,
(PID.TID 0000.0001) >  timePhase(8) = 0.,
(PID.TID 0000.0001) > &
(PID.TID 0000.0001) >
(PID.TID 0000.0001) ># Parameter for Diagnostics of per level statistics:
(PID.TID 0000.0001) >#-----------------
(PID.TID 0000.0001) ># for each output-stream:
(PID.TID 0000.0001) >#  stat_fname(n) : prefix of the output file name (only 8.c long) for outp.stream n
(PID.TID 0000.0001) >#  stat_freq(n):< 0 : write snap-shot output every |stat_freq| seconds
(PID.TID 0000.0001) >#               > 0 : write time-average output every stat_freq seconds
(PID.TID 0000.0001) >#  stat_phase(n)    : write at time = stat_phase + multiple of |stat_freq|
(PID.TID 0000.0001) >#  stat_region(:,n) : list of "regions" (default: 1 region only=global)
(PID.TID 0000.0001) >#  stat_fields(:,n) : list of diagnostics fields (8.c) (see "available_diagnostics.log"
(PID.TID 0000.0001) >#                 file for the list of all available diag. in this particular config)
(PID.TID 0000.0001) >#-----------------
(PID.TID 0000.0001) > &DIAG_STATIS_PARMS
(PID.TID 0000.0001) >#- regional mask: 3 lat. band: 1 : y <= -24 ; 2 : -24<y<24 ; 3 : 24 <= y
(PID.TID 0000.0001) > diagSt_regMaskFile='regMask_lat24.bin',
(PID.TID 0000.0001) > nSetRegMskFile=1,
(PID.TID 0000.0001) > set_regMask(1)= 1,  1,  1,
(PID.TID 0000.0001) > val_regMask(1)= 1., 2., 3.,
(PID.TID 0000.0001) >#---
(PID.TID 0000.0001) > stat_fields(1,1)= 'ETAN    ','ETANSQ  ','DETADT2 ',
(PID.TID 0000.0001) >#                  'UVEL    ','VVEL    ','WVEL    ',
(PID.TID 0000.0001) >                   'THETA   ','SALT    ','CONVADJ ',
(PID.TID 0000.0001) >    stat_fname(1)= 'dynStDiag',
(PID.TID 0000.0001) >     stat_freq(1)= 864000.,
(PID.TID 0000.0001) >#--- to check conservation of Volume, Heat & Salt (with z*+realFW+AB_2):
(PID.TID 0000.0001) > stat_fields(1,2)= 'oceTAUX ','oceTAUY ','TRELAX  ','SRELAX  ',
(PID.TID 0000.0001) >                   'surForcT','surForcS','TFLUX   ','SFLUX   ',
(PID.TID 0000.0001) >                   'oceQnet ','oceSflux','oceFWflx',
(PID.TID 0000.0001) >    stat_fname(2)= 'surfStDiag',
(PID.TID 0000.0001) >     stat_freq(2)= 777600.,
(PID.TID 0000.0001) >    stat_phase(2)= 86400.,
(PID.TID 0000.0001) > stat_fields(1,3)= 'ETAN    ','THETA   ','SALT    ',
(PID.TID 0000.0001) >    stat_fname(3)= 'instStDiag',
(PID.TID 0000.0001) >     stat_freq(3)= -777600.,
(PID.TID 0000.0001) >    stat_phase(3)= 86400.,
(PID.TID 0000.0001) >#---
(PID.TID 0000.0001) > stat_fields(1,5)= 'SI_Fract','SI_Thick','SI_SnowH',
(PID.TID 0000.0001) >                   'SI_Tsrf ','SI_Tice1','SI_Tice2',
(PID.TID 0000.0001) >                   'SI_Qice1','SI_Qice2',
(PID.TID 0000.0001) >                   'SIsnwPrc','SIalbedo','SIsnwAge',
(PID.TID 0000.0001) >                   'SIflx2oc','SIfrw2oc','SIsaltFx',
(PID.TID 0000.0001) >                   'SIflxAtm','SIfrwAtm',
(PID.TID 0000.0001) >#                  'SItOcMxL','SIsOcMxL',
(PID.TID 0000.0001) > stat_region(1,5)= 1, 3, 0,
(PID.TID 0000.0001) >    stat_fname(5)= 'thSIceStDiag',
(PID.TID 0000.0001) >     stat_freq(5)= 864000.,
(PID.TID 0000.0001) > &
(PID.TID 0000.0001) >
(PID.TID 0000.0001) 
(PID.TID 0000.0001) S/R DIAGNOSTICS_READPARMS, read namelist "diagnostics_list": start
(PID.TID 0000.0001) S/R DIAGNOSTICS_READPARMS, read namelist "diagnostics_list": OK
(PID.TID 0000.0001) S/R DIAGNOSTICS_READPARMS, read namelist "DIAG_STATIS_PARMS": start
(PID.TID 0000.0001) S/R DIAGNOSTICS_READPARMS, read namelist "DIAG_STATIS_PARMS": OK
(PID.TID 0000.0001) -----------------------------------------------------
(PID.TID 0000.0001)  DIAGNOSTICS_READPARMS: active diagnostics summary:
(PID.TID 0000.0001) -----------------------------------------------------
(PID.TID 0000.0001) Creating Output Stream: surfDiag
(PID.TID 0000.0001) Output Frequency: 1555200000.000000 ; Phase:           0.000000
(PID.TID 0000.0001)  Averaging Freq.: 1555200000.000000 , Phase:           0.000000 , Cycle:   1
(PID.TID 0000.0001)  missing value:  1.234567000000E+05 ; for integers:   123456789
(PID.TID 0000.0001)  Levels:       1.
(PID.TID 0000.0001)  Fields:    ETAN     ETANSQ   DETADT2  PHIBOT   PHIBOTSQ oceTAUX  oceTAUY  TRELAX   SRELAX   surForcT
(PID.TID 0000.0001)  Fields:    surForcS TFLUX    SFLUX    oceQsw   oceQnet  oceSflux oceFWflx
(PID.TID 0000.0001) Creating Output Stream: dynDiag
(PID.TID 0000.0001) Output Frequency: 1555200000.000000 ; Phase:           0.000000
(PID.TID 0000.0001)  Averaging Freq.: 1555200000.000000 , Phase:           0.000000 , Cycle:   1
(PID.TID 0000.0001)  missing value:  1.234567000000E+05 ; for integers:   123456789
(PID.TID 0000.0001)  Levels:    will be set later
(PID.TID 0000.0001)  Fields:    UVEL     VVEL     WVEL     PHIHYD   VVELMASS UVELMASS WVELSQ   THETA    UTHMASS  VTHMASS
(PID.TID 0000.0001)  Fields:    WTHMASS  SALT     USLTMASS VSLTMASS WSLTMASS
(PID.TID 0000.0001) Creating Output Stream: thSIceDiag
(PID.TID 0000.0001) Output Frequency: 1555200000.000000 ; Phase:           0.000000
(PID.TID 0000.0001)  Averaging Freq.:    2592000.000000 , Phase:           0.000000 , Cycle:  12
(PID.TID 0000.0001)  missing value:  1.234567000000E+05 ; for integers:   123456789
(PID.TID 0000.0001)  Levels:    will be set later
(PID.TID 0000.0001)  Fields:    SI_Fract SI_Thick SI_SnowH SI_Tsrf  SI_Tice1 SI_Tice2 SI_Qice1 SI_Qice2 SIsnwAge SIsnwPrc
(PID.TID 0000.0001)  Fields:    SIalbedo SIflx2oc SIfrw2oc SIsaltFx SIflxAtm SIfrwAtm
(PID.TID 0000.0001) Creating Output Stream: surfInst
(PID.TID 0000.0001) Output Frequency:    -777600.000000 ; Phase:           0.000000
(PID.TID 0000.0001)  Averaging Freq.:          0.000000 , Phase:           0.000000 , Cycle:   1
(PID.TID 0000.0001)  missing value:  1.234567000000E+05 ; for integers:   123456789
(PID.TID 0000.0001)  Levels:    will be set later
(PID.TID 0000.0001)  Fields:    ETAN     oceFWflx
(PID.TID 0000.0001) Creating Output Stream: etaInst
(PID.TID 0000.0001) Output Frequency:    -777600.000000 ; Phase:       86400.000000
(PID.TID 0000.0001)  Averaging Freq.:          0.000000 , Phase:           0.000000 , Cycle:   1
(PID.TID 0000.0001)  missing value:  1.234567000000E+05 ; for integers:   123456789
(PID.TID 0000.0001)  Levels:    will be set later
(PID.TID 0000.0001)  Fields:    ETAN
(PID.TID 0000.0001) Creating Output Stream: dynInst
(PID.TID 0000.0001) Output Frequency:    -777600.000000 ; Phase:           0.000000
(PID.TID 0000.0001)  Averaging Freq.:          0.000000 , Phase:           0.000000 , Cycle:   1
(PID.TID 0000.0001)  missing value:  1.234567000000E+05 ; for integers:   123456789
(PID.TID 0000.0001)  Levels:    will be set later
(PID.TID 0000.0001)  Fields:    THETA    SALT
(PID.TID 0000.0001) -----------------------------------------------------
(PID.TID 0000.0001)  DIAGNOSTICS_READPARMS: statistics diags. summary:
(PID.TID 0000.0001) Creating Stats. Output Stream: dynStDiag
(PID.TID 0000.0001) Output Frequency:     864000.000000 ; Phase:           0.000000
(PID.TID 0000.0001)  Regions:   0
(PID.TID 0000.0001)  Fields:    ETAN     ETANSQ   DETADT2  THETA    SALT     CONVADJ
(PID.TID 0000.0001) Creating Stats. Output Stream: surfStDiag
(PID.TID 0000.0001) Output Frequency:     777600.000000 ; Phase:       86400.000000
(PID.TID 0000.0001)  Regions:   0
(PID.TID 0000.0001)  Fields:    oceTAUX  oceTAUY  TRELAX   SRELAX   surForcT surForcS TFLUX    SFLUX    oceQnet  oceSflux
(PID.TID 0000.0001)  Fields:    oceFWflx
(PID.TID 0000.0001) Creating Stats. Output Stream: instStDiag
(PID.TID 0000.0001) Output Frequency:    -777600.000000 ; Phase:       86400.000000
(PID.TID 0000.0001)  Regions:   0
(PID.TID 0000.0001)  Fields:    ETAN     THETA    SALT
(PID.TID 0000.0001) Creating Stats. Output Stream: thSIceStDiag
(PID.TID 0000.0001) Output Frequency:     864000.000000 ; Phase:           0.000000
(PID.TID 0000.0001)  Regions:   0  1  3
(PID.TID 0000.0001)  Fields:    SI_Fract SI_Thick SI_SnowH SI_Tsrf  SI_Tice1 SI_Tice2 SI_Qice1 SI_Qice2 SIsnwPrc SIalbedo
(PID.TID 0000.0001)  Fields:    SIsnwAge SIflx2oc SIfrw2oc SIsaltFx SIflxAtm SIfrwAtm
(PID.TID 0000.0001) -----------------------------------------------------
(PID.TID 0000.0001) 
(PID.TID 0000.0001) SET_PARMS: done
(PID.TID 0000.0001) Enter INI_VERTICAL_GRID: setInterFDr=    T ; setCenterDr=    F
(PID.TID 0000.0001) tile:   1 ; Read from file grid_cs32.face001.bin
(PID.TID 0000.0001)   => xC yC dxF dyF rA xG yG dxV dyU rAz dxC dyC rAw rAs dxG dyG AngleCS AngleSN
(PID.TID 0000.0001) tile:   2 ; Read from file grid_cs32.face001.bin
(PID.TID 0000.0001)   => xC yC dxF dyF rA xG yG dxV dyU rAz dxC dyC rAw rAs dxG dyG AngleCS AngleSN
(PID.TID 0000.0001) tile:   3 ; Read from file grid_cs32.face002.bin
(PID.TID 0000.0001)   => xC yC dxF dyF rA xG yG dxV dyU rAz dxC dyC rAw rAs dxG dyG AngleCS AngleSN
(PID.TID 0000.0001) tile:   4 ; Read from file grid_cs32.face002.bin
(PID.TID 0000.0001)   => xC yC dxF dyF rA xG yG dxV dyU rAz dxC dyC rAw rAs dxG dyG AngleCS AngleSN
(PID.TID 0000.0001) tile:   5 ; Read from file grid_cs32.face003.bin
(PID.TID 0000.0001)   => xC yC dxF dyF rA xG yG dxV dyU rAz dxC dyC rAw rAs dxG dyG AngleCS AngleSN
(PID.TID 0000.0001) tile:   6 ; Read from file grid_cs32.face003.bin
(PID.TID 0000.0001)   => xC yC dxF dyF rA xG yG dxV dyU rAz dxC dyC rAw rAs dxG dyG AngleCS AngleSN
(PID.TID 0000.0001) tile:   7 ; Read from file grid_cs32.face004.bin
(PID.TID 0000.0001)   => xC yC dxF dyF rA xG yG dxV dyU rAz dxC dyC rAw rAs dxG dyG AngleCS AngleSN
(PID.TID 0000.0001) tile:   8 ; Read from file grid_cs32.face004.bin
(PID.TID 0000.0001)   => xC yC dxF dyF rA xG yG dxV dyU rAz dxC dyC rAw rAs dxG dyG AngleCS AngleSN
(PID.TID 0000.0001) tile:   9 ; Read from file grid_cs32.face005.bin
(PID.TID 0000.0001)   => xC yC dxF dyF rA xG yG dxV dyU rAz dxC dyC rAw rAs dxG dyG AngleCS AngleSN
(PID.TID 0000.0001) tile:  10 ; Read from file grid_cs32.face005.bin
(PID.TID 0000.0001)   => xC yC dxF dyF rA xG yG dxV dyU rAz dxC dyC rAw rAs dxG dyG AngleCS AngleSN
(PID.TID 0000.0001) tile:  11 ; Read from file grid_cs32.face006.bin
(PID.TID 0000.0001)   => xC yC dxF dyF rA xG yG dxV dyU rAz dxC dyC rAw rAs dxG dyG AngleCS AngleSN
(PID.TID 0000.0001) tile:  12 ; Read from file grid_cs32.face006.bin
(PID.TID 0000.0001)   => xC yC dxF dyF rA xG yG dxV dyU rAz dxC dyC rAw rAs dxG dyG AngleCS AngleSN
(PID.TID 0000.0001) %MON XC_max                       =   1.7854351589505E+02
(PID.TID 0000.0001) %MON XC_min                       =  -1.7854351589505E+02
(PID.TID 0000.0001) %MON XC_mean                      =  -1.4199289892029E-14
(PID.TID 0000.0001) %MON XC_sd                        =   1.0355545336287E+02
(PID.TID 0000.0001) %MON XG_max                       =   1.8000000000000E+02
(PID.TID 0000.0001) %MON XG_min                       =  -1.7708797161002E+02
(PID.TID 0000.0001) %MON XG_mean                      =   1.8603515625000E+00
(PID.TID 0000.0001) %MON XG_sd                        =   1.0357130300504E+02
(PID.TID 0000.0001) %MON DXC_max                      =   3.2375185836900E+05
(PID.TID 0000.0001) %MON DXC_min                      =   1.1142031410131E+05
(PID.TID 0000.0001) %MON DXC_mean                     =   2.8605689051214E+05
(PID.TID 0000.0001) %MON DXC_sd                       =   3.4042087138252E+04
(PID.TID 0000.0001) %MON DXF_max                      =   3.2369947500827E+05
(PID.TID 0000.0001) %MON DXF_min                      =   1.2020820513318E+05
(PID.TID 0000.0001) %MON DXF_mean                     =   2.8605437324820E+05
(PID.TID 0000.0001) %MON DXF_sd                       =   3.4050524252539E+04
(PID.TID 0000.0001) %MON DXG_max                      =   3.2375195872773E+05
(PID.TID 0000.0001) %MON DXG_min                      =   1.0098378008791E+05
(PID.TID 0000.0001) %MON DXG_mean                     =   2.8603818508931E+05
(PID.TID 0000.0001) %MON DXG_sd                       =   3.4140406908005E+04
(PID.TID 0000.0001) %MON DXV_max                      =   3.2380418162750E+05
(PID.TID 0000.0001) %MON DXV_min                      =   8.0152299824136E+04
(PID.TID 0000.0001) %MON DXV_mean                     =   2.8603970633619E+05
(PID.TID 0000.0001) %MON DXV_sd                       =   3.4145142117723E+04
(PID.TID 0000.0001) %MON YC_max                       =   8.7940663871962E+01
(PID.TID 0000.0001) %MON YC_min                       =  -8.7940663871962E+01
(PID.TID 0000.0001) %MON YC_mean                      =  -2.3684757858670E-15
(PID.TID 0000.0001) %MON YC_sd                        =   3.8676242969072E+01
(PID.TID 0000.0001) %MON YG_max                       =   9.0000000000000E+01
(PID.TID 0000.0001) %MON YG_min                       =  -9.0000000000000E+01
(PID.TID 0000.0001) %MON YG_mean                      =  -4.1448326252673E-15
(PID.TID 0000.0001) %MON YG_sd                        =   3.8676895860710E+01
(PID.TID 0000.0001) %MON DYC_max                      =   3.2375185836900E+05
(PID.TID 0000.0001) %MON DYC_min                      =   1.1142031410131E+05
(PID.TID 0000.0001) %MON DYC_mean                     =   2.8605689051214E+05
(PID.TID 0000.0001) %MON DYC_sd                       =   3.4042087138252E+04
(PID.TID 0000.0001) %MON DYF_max                      =   3.2369947500827E+05
(PID.TID 0000.0001) %MON DYF_min                      =   1.2020820513318E+05
(PID.TID 0000.0001) %MON DYF_mean                     =   2.8605437324820E+05
(PID.TID 0000.0001) %MON DYF_sd                       =   3.4050524252539E+04
(PID.TID 0000.0001) %MON DYG_max                      =   3.2375195872773E+05
(PID.TID 0000.0001) %MON DYG_min                      =   1.0098378008791E+05
(PID.TID 0000.0001) %MON DYG_mean                     =   2.8603818508931E+05
(PID.TID 0000.0001) %MON DYG_sd                       =   3.4140406908005E+04
(PID.TID 0000.0001) %MON DYU_max                      =   3.2380418162750E+05
(PID.TID 0000.0001) %MON DYU_min                      =   8.0152299824136E+04
(PID.TID 0000.0001) %MON DYU_mean                     =   2.8603970633619E+05
(PID.TID 0000.0001) %MON DYU_sd                       =   3.4145142117723E+04
(PID.TID 0000.0001) %MON RA_max                       =   1.0479260248419E+11
(PID.TID 0000.0001) %MON RA_min                       =   1.4019007022556E+10
(PID.TID 0000.0001) %MON RA_mean                      =   8.2992246709265E+10
(PID.TID 0000.0001) %MON RA_sd                        =   1.7509089299457E+10
(PID.TID 0000.0001) %MON RAW_max                      =   1.0480965274559E+11
(PID.TID 0000.0001) %MON RAW_min                      =   1.2166903467143E+10
(PID.TID 0000.0001) %MON RAW_mean                     =   8.2992246709235E+10
(PID.TID 0000.0001) %MON RAW_sd                       =   1.7481917919656E+10
(PID.TID 0000.0001) %MON RAS_max                      =   1.0480965274559E+11
(PID.TID 0000.0001) %MON RAS_min                      =   1.2166903467143E+10
(PID.TID 0000.0001) %MON RAS_mean                     =   8.2992246709235E+10
(PID.TID 0000.0001) %MON RAS_sd                       =   1.7481917919656E+10
(PID.TID 0000.0001) %MON RAZ_max                      =   1.0484349334619E+11
(PID.TID 0000.0001) %MON RAZ_min                      =   8.8317900612505E+09
(PID.TID 0000.0001) %MON RAZ_mean                     =   8.2992246709235E+10
(PID.TID 0000.0001) %MON RAZ_sd                       =   1.7482297311044E+10
(PID.TID 0000.0001) %MON AngleCS_max                  =   9.9999994756719E-01
(PID.TID 0000.0001) %MON AngleCS_min                  =  -9.9968286884824E-01
(PID.TID 0000.0001) %MON AngleCS_mean                 =   3.3078850405987E-01
(PID.TID 0000.0001) %MON AngleCS_sd                   =   6.2496317138039E-01
(PID.TID 0000.0001) %MON AngleSN_max                  =   9.9968286884824E-01
(PID.TID 0000.0001) %MON AngleSN_min                  =  -9.9999994756719E-01
(PID.TID 0000.0001) %MON AngleSN_mean                 =  -3.3078850405987E-01
(PID.TID 0000.0001) %MON AngleSN_sd                   =   6.2496317138039E-01
(PID.TID 0000.0001)  MDS_READ_FIELD: opening global file: bathy_Hmin50.bin
(PID.TID 0000.0001) // =======================================================
(PID.TID 0000.0001) // Field Model R_low (ini_masks_etc) at iteration          1
(PID.TID 0000.0001) // CMIN =         -5.200000000000000E+03
(PID.TID 0000.0001) // CMAX =         -5.000000000000000E+01
(PID.TID 0000.0001) // CINT =          1.907407407407407E+02
(PID.TID 0000.0001) // SYMBOLS (CMIN->CMAX): -abcdefghijklmnopqrstuvwxyz+
(PID.TID 0000.0001) //                  0.0: .
(PID.TID 0000.0001) // RANGE I (Lo:Hi:Step):(  -3: 388:   1)
(PID.TID 0000.0001) // RANGE J (Lo:Hi:Step):(  20:  -3:  -1)
(PID.TID 0000.0001) // RANGE K (Lo:Hi:Step):(   1:   1:   1)
(PID.TID 0000.0001) // =======================================================
(PID.TID 0000.0001) K =   1
(PID.TID 0000.0001) //                I=6       I=16      I=26      I=36      I=38      I=48      I=58      I=68      I=70      I=80      I=90      I=100     I=102     I=112     I=122     I=132     I=134     I=144     I=154     I=164     I=166     I=176     I=186     I=196     I=198     I=208     I=218     I=228     I=230     I=240     I=250     I=260     I=262     I=272     I=282     I=292     I=294     I=304     I=314     I=324     I=326     I=336     I=346     I=356     I=358     I=368     I=378     I=388
(PID.TID 0000.0001) // |--J--|321012345|789012345|789012345|789012345|901234567|901234567|901234567|901234567|123456789|123456789|123456789|123456789|345678901|345678901|345678901|345678901|567890123|567890123|567890123|567890123|789012345|789012345|789012345|789012345|901234567|901234567|901234567|901234567|123456789|123456789|123456789|123456789|345678901|345678901|345678901|345678901|567890123|567890123|567890123|567890123|789012345|789012345|789012345|789012345|901234567|901234567|901234567|901234567|
(PID.TID 0000.0001) //     20 fbbbcgfcaa-aae+.......................lccbbc-ddcbcdehkhhmn..++........................lcgfdddhq.+hiilnz++.+oquxyz--adgkf................................okn.skkodcaabcfmtooyxz......+yuiiy....++gb--------a-fc----bba-cp.............tfeecccbbdegb--------ddcca-a-----acbaa------bbaaaabecccbbdeddedcdcccdddcddffggghiggfffdeeff........ywxy.lulo.lv...kcdgddffefffilyx+ijlihjlica---a--cgffel.+edfgeedflcbahgflfffilyx+fffk.+xyyy.........mgeimvskjkllllcbahgfllfhdffhkfffca-aady...llnabdoa--a
(PID.TID 0000.0001) //     19 zmfeccdghfeegcbt......................aadcac--cbbeefjkfefw+..........zpu..............aafifccgnrzgghjry.+++sr+lq.--edfkk................................kqnzrqqkoxtkblwnnsp.vv......skhggt...+++t---------b-da----bbbbfu..............fdddccaadct---------bdaf---------edd-------adlaaaaddccaadcdddcbbbbcdddcccdffffghgffffddeff+..........vnhzy.tllqiedccdhggfggffiiggflligfiljfba---aafddehy...pwvlhfffcbagfccgffiiggfcbdgy..yz..........xigqophijkkiifcbagfcceeffffjlkjgaa---bfvheeln-aesaaab
(PID.TID 0000.0001) //     18 ..wifedfkhfegbbcivlqfoz..............jaad--ba-abcehjnldcclz+........spps.............jaacfihggokeeffgt..++++..hhlfdeddke...............................vkqn+xnnnz..qcz+.zwxtsttz..ysrkhot++++++zig------cabbcbba--aabfu+..............hcbaaaaaccig--------b--f---------egqqqaa----frb---baaaaaccdccbaaabbddddccdffffghfeeeeedeff+........+kkrhw.vqmlnieddcdehgggffgigedbjiffefilhfcaaaacgceei.......zomggfcaecbbffgigedbaaceiy.............zilrddefikkhhgfcaecbbccddefilihecbaacbaajfega-aesfeed
(PID.TID 0000.0001) //     17 ..+wfeefikhgcbbccaaacgn.............icaa--abbbccceiomkfdbbc+.......+s...............icaaccfihfoedddeedy..++...nnqwgfeeke...............................xsrxzz+z.yy.z++..+zsjjllllljllpjos+++.+zhhi-----efdcddb-----adu+...............hcbaa--acchi-----e-----ea--------foqqoqqo--hlwgea-baa--accddba--bbbddddccdfffhhgfeeddccedd.........+nk+..xiioonhfefddegihhghigfdbahfeddfgikhfffdfgccffw........zohhgebbaaaghigfdbaaabdgx..............nheddefiklhghgebbaaaaaccdfhlhfefdcccaabjefbaaafoosso
(PID.TID 0000.0001) //     16 ....wiheddeccdfhfbabdfl............jdbad--bddefhhkqqlgfaakqz..v.+..+...............jdbaddddgifkccccdccd+.++..++ynvz.tkkq.............................++..u+....z.mu....++zyslllllkhggkmpy++...ihhi-----eigfdba----adu+................kdcaaa-acchi-----ea---feb-----a-acnoohfghknvmwnucacaaa-accdcb---bbbcdddddefffggfeeedcccccb..........qhu..hhhkojgffgeefghihhiieedbaccbbdcdfgghhiihcbeiw.........+ynjgebaaaahiieedbaaabcdy..............ygddeghiljgfjgebaaaa-aacccfikkhecccbbbaaabaadfklnqpp
(PID.TID 0000.0001) //     15 ......ylea--acfihebcbbes..........sfcbbnabbcffijnpnqneaaat..umrr+s.z..............sfcbbngfffigcaaabdbcac+.+++++zgmpx...y.............................+++++.ztsvd.mm....++..zslwz.yhhhhnz+++...rhgc----ablifeb--dfdfu+................+lkdca--abcgc----ab----ige----acaaalllkddfiy..yswxbdca--abcccb---bbbbddddeffflhfeeeecbbbbaa..........thk.xgghiligfghfefhhhhiiheedcdba-abbacbcdceffbbfw+..........++ujfbaaa-iiheedcdbbabdmz.............zfdeghikkifdujfbaaa----aacffiljgfffcca--adfikkiihhhf
(PID.TID 0000.0001) //     14 ........c---acgkhdcc--di..........ofddch--adgillkkkifcadcx.ymmqzqikvnnps..........ofddchohffikaaaaabaaa-aw+.+ysnggox++...............................+++++wmegt-.qrv..........yzzzzrjil+++....qhgd-----ajlifcacdlqx+++...............mligea---abgd-----a-----i---cccdeabkklldinqssy..xxvgea---abbbb---abaaddddeedkmeddefdbbbaaaa...........+y.uhghikihgfghefgihhhgeeeeedbc---b--aaaaabaabm..............+viba---hgeeeeeddbaadhw.............nedeghjjhfed+viba-------acdefinmlgiieb-chnnnmlmlgffc
(PID.TID 0000.0001) //     13 .......+b----cfkhec---afz.........nhfdff--cfiljigfjd--efdozy...+ximpnnuz..........nhfdffholghkaaaaaba-a---flkkuswyy++++y..............................+++yqddhp-+zr...........zzzzz++ry++......yd-------iljhcbbchz+......++.........+mmhffc----ad--------------aeecdeidfkkqnqlmqquukqqmfffc----aaba------acdddcbcineddgdbaaa----..............iihiijjhfefgefhjihiffgggffcdd--a------aa-bfz...............+qe---aiffgggffecaabelx...........zjecehijhfecc.+qe---aa---aedeegknmlgiigcdfhpokkimlfdb
(PID.TID 0000.0001) //     12 .......ec----chjhec---ag..........skiqdd-abgkhfcccea-bdei........t................skiqddeiiiifaaabae--a---dd--iu+++.+++s..............................++zwgfcfk-xq++..........+z+++++.+++....++.s-------gknhccbbhwwy.....+++........+njfeed-----s------------a-ceccdejhlllkqlkklssiccdeeeed-----aa-------abddcabcnfddegcaaa-----.............wjkkkjjjigeefffgjiiighiiihhhlf------------dk+................+ja---ighiiihhhdaabdffghtxx......mfccehjiffdb-..+ja------bffdddehfd--bedaacfhpnligiihd
(PID.TID 0000.0001) //     11 ......pdca--achlheba--ai..........nkn.fd-acghfbaaaa-achmy......................+..nkn.fdemijidaaaabi-------a--q+....++.z.......+++....................++vnbbbcleiis...........+++++..........+yyza----b-fkpkeeecflmqxy....++........+lhfeecc----za----b-----a--ccccddkhieekkossssfbbbbcdeecc------------aaadcbabcfhddccba-------............njjijhhihijhgggggjjjjijkkkkjzqd-----------irw.................++e---jijkkkkjjhcaacddeegpy.....xfdccdhjgfdda-..++e-----mhmijddda--------ahhfiokhedegg
(PID.TID 0000.0001) //     10 ......wfdb--achlhea---an.........uos..dc-adhfca-----bfiv.......................+.uos..dcemikkfdcaabi-------equ+................++sy...................+tq-fdbblcmk...........................zyvuq----ccjknqiheddefhiksz++++........zkhfdccb----uq----cc----a---dcfhkopqjeissrnpfbbcccdedccb------------aabdcaaaacfddbca-------a..........zslihhigghgijjihhhhkllkkkkkkjk+xfa-abb-----vvv...................+wa--kkkkkkjkkkedccdeeeeipz..zwhccbcdhgfddcam...+wa---mlmkijhc----------cjjffiheb-aad
(PID.TID 0000.0001) //      9 ......vgec---bfikca--cjl+.......+nnv.+cc-achfa------ch+..................w......+nnv.+ccffhkkiddaadha-----as++...........w.......njo+................+x-----bcgipvz++........................zxuuk------diqqojfefiiiijmy.++.........zkhfdbaa----uk------a---a----djmqrrnlllsoiddcccccdjfdbaa-------daa---acccaaaacccca--------ac.........+zjijhfgfggffhjkkkiillljihhghgi.+udaabbb----tei...................++qdejihhghgihighdeeffgghimnnjgecbbcdgfeccbas...++qdeqnghiljcaaaaidaa----beedeeca--bb
(PID.TID 0000.0001) //      8 .....zleca---afjfca--hdfz.......vkky.jceaaeifa--acbcei...................w......vkky.jceddefijffdddhb--a-afv.............w.......likn+.....++.....++znpa----bbdinn..ss.........................+yku------fnlmnjhinlksssw............qhfeca------yku--------------ejnpqqnninnritqdccchkmfca--------addc--aeffaaaaaaccb-a----a--bd+.......wihgghgeffffeefhijkjkljiigeeffef.++udbbaba---ven....................++xyigeeffefffhjhhikkklljklmhffeeeggfdcbaay.....++xywnfgllcbbabegkecba----ddddcaacdc
(PID.TID 0000.0001) //      7 ...+zohec--abcfkhecbchbdx.......qiht.faaabfida-aabchjk...................zz.....qiht.faaaabdgijgfededcdcb-f+.............zz.....nhhijz....tqq.....+ujgzgd---abcinn...pz.........................+zu------cegklkkknols..xuu..........zgfdba------+zu--------------edefqgqddsz+......+yuddba--------bcd---affaaadffabbb-----aa-bccmm+....tiggfggfeeeefeeefiiiijkiihheddddd.+.+ufb-----l.gx...........s.........++zhheddddddddjjllliijhfkmmkkjjhijgdcba--q......++zzkfilfccccoz..ulkcd---bccnfddddd
(PID.TID 0000.0001) //      6 ..+yomfddcaabefkifdchaadt......uqdeisc---afhfaa---bfgi....................zz..rnqdeisc----dfefgifffkklldc--v..............zz..rnjffggm...nlmn+....+sffzya--aabciup...pp.........................v.x-----eaaffdfhimrmp...yuu.++.......zudba------v.x---------a----fbbpqgzenx+........zdbcba--------adc---dda-adffe-aa--------aaacmllkhhfffffffgfeeeeeeeefhhhhijihhffddcbb....+ufc-baaqvhh..........dcfeeh......++hffddcbbbbdhhiihedddb-cfhhhjjjieca----+.......++zggqvifefhz......zobbaccfwuffeee
(PID.TID 0000.0001) //      5 ..+nhgffkghccfhkhffgdaackz....uoibcimlaababcgca----abe.....................ysstlibcimlaaacfbddfjjhijeehf-a-c...............ysstlgeeeeoz..ijklt+....lfjzzf---adfczs...su.........................qk.yi---fdaadcehllotq....yy+++zzs.....+zcba-----qk.yi-------gha-fjddqs+xkrz.........q-bccba-------cdd--aaa----df------------aaachikdccdeeeeeeedddedddddgghhhhjhhgffcbbaa.....+upjdcy.vohq.......+idcdfeeefwz....gffcbbaaaaddfegecca----dfeefhfgdb-----+.efwz....+hhn.vklox.........gdccfjwrigffh
(PID.TID 0000.0001) //      4 .+ujhgfllfhdffhkfffca-aady...llnabdopfcbfbbbcgfcaa-aae+.......................lcabdopfcbdgdbcdehlihgfddc--ms..................lcgfdddhq.+hiilnz++.+oquxyz--adgkf................................okn.zd--dcaabcfmtooyxz......+yuiiy....++gb------okn.zd---eciiiicfkeeqy.ysz..........n-aagb--------ddcca-a-----acbaa------bbaaaabfgdcbbdeddedcdcccdddcddffggghiggfffdbaa-........ywxy.lulo.lv...kcdgddffefffilyx+fffdbaa---acdcccba--abvfedeffdcca----b+.fffilyx+fffk.+xyyy.........mgeimvskjklll
(PID.TID 0000.0001) //      3 +vjggfcceeffffjlkjgaa---bfvheeln-aesphfdzmfeccdghfeegcbt......................aa-aesphfdhgabddeflihhgfecbaaayq+++++...........aafifccgnrzgghjry.+++sr+lq.--edfkk................................kqnz.vtpoxtkblwnnsp.vv......skhggt...+++t-------kqnz.vtpkllgdccfkkkkk..++..........+g---t---------bdaf---------edd-------adlaaaafecaaadcdddcbbbbcdddcccdffffghgffffdcaa-+..........vnhzy.tllqiedccdhggfggffiiggffffdcaa----abcaaaa-acxxmecdjmdbba----r+.gffiiggfcbdgy..yz..........xigqophijkkii
(PID.TID 0000.0001) //      2 qifeecbbccddefilihecbaacbaajfega-aesqhff..wifedfkhfegbbcivlqfoz..............jaa-aesqhffiea-cdeflkkljifeddcba---bry+.........jaacfihggokeeffgt..++++..hhlfdeddke...............................vkqn+.sghz..qcz+.zwxtsttz..ysrkhot++++++zig------kqn+.sghfcbcbbbdgfdek.++++.........+l---ig--------b--f---------egqqqaa----frb---caaaaaccdccbaaabbddddccdffffghfeeeeecba-+........+kkrhw.vqmlnieddcdehgggffgigedbeeeecba------baaaa-euwxqdbcdkud-----sy+.ffgigedbaaceiy.............zilrddefikkhh
(PID.TID 0000.0001) //      1 ebbbbaaaaaccdfhlhfefdcccaabjefbaaafonhgl..+wfeefikhgcbbccaaacgn.............icaaaafonhglid--adfgkkkklkhffddca-----s++++.....icaaccfihfoedddeedy..++...nnqwgfeeke...............................xsrxz.tedyy.z++..+zsjjllllljllpjos+++.+zhhi-----esrxz.tedcbbbbaaadddet.++++.........+l---hi-----e-----ea--------foqqoqqo--hlwgea----a-accddba--bbbddddccdfffhhgfeeddccba-.........+nk+..xiioonhfefddegihhghigfdbaeddccba-------aaaabgns.qcbcchyzqngll++..ghigfdbaaabdgx..............nheddefiklhg
(PID.TID 0000.0001) //      0 -aaaaaaa-aacccfikkhecccbbbaaabaadfkllilm....wiheddeccdfhfbabdfl............jdbaddfkllilmgebaadfijjiiikjhffdcba-----lllgn...jdbaddddgifkccccdccd+.++..++ynvz.tkkq.............................++..u+..zmd.mu....++zyslllllkhggkmpy++...ihhi-----e.u+..zmdfbd---a-aeef.xx+..........+++s--hi-----ea---feb-----a-acnoohfghknvmwnuca-----accdcb---bbbcdddddefffggfeeedcccbba..........qhu..hhhkojgffgeefghihhiieedbaedcccbba----aa--alrwwy.kcbccc+...++++...hiieedbaaabcdy..............ygddeghiljgf
(PID.TID 0000.0001) //     -1 --aaaaa----aacffiljgfffcca--adfikkiikimi......ylea--acfihebcbbes..........sfcbbnkkiikimiiheccfurkiffhijjigfecb-----l----..sfcbbngfffigcaaabdbcac+.+++++zgmpx...y.............................+++++.z+.wq.mm....++..zslwz.yhhhhnz+++...rhgc----ab++.z+.wqgbf-------dgzpoy+........+ys+yrbgc----ab----ige----acaaalllkddfiy..yswxb--aa-abcccb---bbbbddddeffflhfeeeecbbcbba..........thk.xgghiligfghfefhhhhiiheedcdecbbcbbaa----a--bdflm.yuibbcc.......+...iiheedcdbbabdmz.............zfdeghikkifd
(PID.TID 0000.0001) //     -2 --aaa-------acdefinmlgiieb-chnnnmlmlfklk........c---acgkhdcc--di..........ofddchmlmlfklklkhednwwsheeghhijjgfdca----g---a..ofddchohffikaaaaabaaa-aw+.+ysnggox++...............................+++++wmu++y.qrv..........yzzzzrjil+++....qhgd-----a++wmu++ywn--------fwvmgy+........+r-.+++gd-----a-----i---cccdeabkklldinqssy..xxv-abc--abbbb---abaaddddeedkmeddefdbbbdcba...........+y.uhghikihgfghefgihhhgeeeeeddbbbdcbaa-------ba-hv.susfbcc.......+...hgeeeeeddbaadhw.............nedeghjjhfed
(PID.TID 0000.0001) //     -3 a--a---aa---aedeegknmlgiigcdfhpokkimdkmk.......+b----cfkhec---afz.........nhfdffkkimdkmknoiedcfjvpddegghhhhgfdcbaa-n---a..nhfdffholghkaaaaaba-a---flkkuswyy++++y..............................+++yqd.++++zr...........zzzzz++ry++......yd-------+yqd.+++zvq--dafz.lqnggw+........+b-....d--------------aeecdeidfkkqnqlmqquukqqmfabcc---aaba------acdddcbcineddgdbaaaeedb..............iihiijjhfefgefhjihiffgggffbaaaeedbaa----------nysqssfcd...........iffgggffecaabelx...........zjecehijhfecc
(PID.TID 0000.0001) // =======================================================
(PID.TID 0000.0001) // END OF FIELD                                          =
(PID.TID 0000.0001) // =======================================================
(PID.TID 0000.0001) 
(PID.TID 0000.0001) // =======================================================
(PID.TID 0000.0001) // Field Model Ro_surf (ini_masks_etc) at iteration          1
(PID.TID 0000.0001) // CMIN =         -7.105427357601002E-15
(PID.TID 0000.0001) // CMAX =         -7.105427357601002E-15
(PID.TID 0000.0001) // CINT =          0.000000000000000E+00
(PID.TID 0000.0001) // SYMBOLS (CMIN->CMAX): -abcdefghijklmnopqrstuvwxyz+
(PID.TID 0000.0001) //                  0.0: .
(PID.TID 0000.0001) // RANGE I (Lo:Hi:Step):(  -3: 388:   1)
(PID.TID 0000.0001) // RANGE J (Lo:Hi:Step):(  20:  -3:  -1)
(PID.TID 0000.0001) // RANGE K (Lo:Hi:Step):(   1:   1:   1)
(PID.TID 0000.0001) // =======================================================
(PID.TID 0000.0001) // =======================================================
(PID.TID 0000.0001) // END OF FIELD                                          =
(PID.TID 0000.0001) // =======================================================
(PID.TID 0000.0001) 
(PID.TID 0000.0001) // =======================================================
(PID.TID 0000.0001) // Field hFacC at iteration          1
(PID.TID 0000.0001) // CMIN =          1.000000000000000E+00
(PID.TID 0000.0001) // CMAX =          1.000000000000000E+00
(PID.TID 0000.0001) // CINT =          0.000000000000000E+00
(PID.TID 0000.0001) // SYMBOLS (CMIN->CMAX): -abcdefghijklmnopqrstuvwxyz+
(PID.TID 0000.0001) //                  0.0: .
(PID.TID 0000.0001) // RANGE I (Lo:Hi:Step):(  -3: 388:   1)
(PID.TID 0000.0001) // RANGE J (Lo:Hi:Step):(  20:  -3:  -1)
(PID.TID 0000.0001) // RANGE K (Lo:Hi:Step):(   1:   1:   1)
(PID.TID 0000.0001) // =======================================================
(PID.TID 0000.0001) // =======================================================
(PID.TID 0000.0001) // END OF FIELD                                          =
(PID.TID 0000.0001) // =======================================================
(PID.TID 0000.0001) 
(PID.TID 0000.0001) // =======================================================
(PID.TID 0000.0001) // Field hFacW at iteration          1
(PID.TID 0000.0001) // CMIN =          1.000000000000000E+00
(PID.TID 0000.0001) // CMAX =          1.000000000000000E+00
(PID.TID 0000.0001) // CINT =          0.000000000000000E+00
(PID.TID 0000.0001) // SYMBOLS (CMIN->CMAX): -abcdefghijklmnopqrstuvwxyz+
(PID.TID 0000.0001) //                  0.0: .
(PID.TID 0000.0001) // RANGE I (Lo:Hi:Step):(  -3: 388:   1)
(PID.TID 0000.0001) // RANGE J (Lo:Hi:Step):(  20:  -3:  -1)
(PID.TID 0000.0001) // RANGE K (Lo:Hi:Step):(   1:   1:   1)
(PID.TID 0000.0001) // =======================================================
(PID.TID 0000.0001) // =======================================================
(PID.TID 0000.0001) // END OF FIELD                                          =
(PID.TID 0000.0001) // =======================================================
(PID.TID 0000.0001) 
(PID.TID 0000.0001) // =======================================================
(PID.TID 0000.0001) // Field hFacS at iteration          1
(PID.TID 0000.0001) // CMIN =          1.000000000000000E+00
(PID.TID 0000.0001) // CMAX =          1.000000000000000E+00
(PID.TID 0000.0001) // CINT =          0.000000000000000E+00
(PID.TID 0000.0001) // SYMBOLS (CMIN->CMAX): -abcdefghijklmnopqrstuvwxyz+
(PID.TID 0000.0001) //                  0.0: .
(PID.TID 0000.0001) // RANGE I (Lo:Hi:Step):(  -3: 388:   1)
(PID.TID 0000.0001) // RANGE J (Lo:Hi:Step):(  20:  -3:  -1)
(PID.TID 0000.0001) // RANGE K (Lo:Hi:Step):(   1:   1:   1)
(PID.TID 0000.0001) // =======================================================
(PID.TID 0000.0001) // =======================================================
(PID.TID 0000.0001) // END OF FIELD                                          =
(PID.TID 0000.0001) // =======================================================
(PID.TID 0000.0001) 
(PID.TID 0000.0001) 
(PID.TID 0000.0001) // ===================================
(PID.TID 0000.0001) // GAD parameters :
(PID.TID 0000.0001) // ===================================
(PID.TID 0000.0001) tempAdvScheme =   /* Temp. Horiz.Advection scheme selector */
(PID.TID 0000.0001)                       2
(PID.TID 0000.0001)     ;
(PID.TID 0000.0001) tempVertAdvScheme =   /* Temp. Vert. Advection scheme selector */
(PID.TID 0000.0001)                       2
(PID.TID 0000.0001)     ;
(PID.TID 0000.0001) tempMultiDimAdvec =   /* use Muti-Dim Advec method for Temp */
(PID.TID 0000.0001)                   F
(PID.TID 0000.0001)     ;
(PID.TID 0000.0001) tempSOM_Advection = /* use 2nd Order Moment Advection for Temp */
(PID.TID 0000.0001)                   F
(PID.TID 0000.0001)     ;
(PID.TID 0000.0001) AdamsBashforthGt = /* apply Adams-Bashforth extrapolation on Gt */
(PID.TID 0000.0001)                   T
(PID.TID 0000.0001)     ;
(PID.TID 0000.0001) AdamsBashforth_T = /* apply Adams-Bashforth extrapolation on Temp */
(PID.TID 0000.0001)                   F
(PID.TID 0000.0001)     ;
(PID.TID 0000.0001) saltAdvScheme =   /* Salt. Horiz.advection scheme selector */
(PID.TID 0000.0001)                       2
(PID.TID 0000.0001)     ;
(PID.TID 0000.0001) saltVertAdvScheme =   /* Salt. Vert. Advection scheme selector */
(PID.TID 0000.0001)                       2
(PID.TID 0000.0001)     ;
(PID.TID 0000.0001) saltMultiDimAdvec =   /* use Muti-Dim Advec method for Salt */
(PID.TID 0000.0001)                   F
(PID.TID 0000.0001)     ;
(PID.TID 0000.0001) saltSOM_Advection = /* use 2nd Order Moment Advection for Salt */
(PID.TID 0000.0001)                   F
(PID.TID 0000.0001)     ;
(PID.TID 0000.0001) AdamsBashforthGs = /* apply Adams-Bashforth extrapolation on Gs */
(PID.TID 0000.0001)                   T
(PID.TID 0000.0001)     ;
(PID.TID 0000.0001) AdamsBashforth_S = /* apply Adams-Bashforth extrapolation on Salt */
(PID.TID 0000.0001)                   F
(PID.TID 0000.0001)     ;
(PID.TID 0000.0001) // ===================================
(PID.TID 0000.0001) ------------------------------------------------------------
(PID.TID 0000.0001) DIAGNOSTICS_SET_LEVELS: done
(PID.TID 0000.0001)  Total Nb of available Diagnostics: ndiagt=   225
(PID.TID 0000.0001)  write list of available Diagnostics to file: available_diagnostics.log
(PID.TID 0000.0001) SETDIAG: Allocate  1 x  1 Levels for Diagnostic #    23 ETAN
(PID.TID 0000.0001) SETDIAG: Allocate  1 x  1 Levels for Diagnostic #    24 ETANSQ
(PID.TID 0000.0001) SETDIAG: Allocate  1 x  1 Levels for Diagnostic #    25 DETADT2
(PID.TID 0000.0001) SETDIAG: Allocate  1 x  1 Levels for Diagnostic #    69 PHIBOT
(PID.TID 0000.0001) SETDIAG: Allocate  1 x  1 Levels for Diagnostic #    70 PHIBOTSQ
(PID.TID 0000.0001) SETDIAG: Allocate  1 x  1 Levels for Diagnostic #    75 oceTAUX
(PID.TID 0000.0001) SETDIAG: Allocate  1 x  1 Levels for Diagnostic #    76 oceTAUY
(PID.TID 0000.0001) SETDIAG: Allocate  1 x  1 Levels for Diagnostic #    84 TRELAX
(PID.TID 0000.0001) SETDIAG: Allocate  1 x  1 Levels for Diagnostic #    85 SRELAX
(PID.TID 0000.0001) SETDIAG: Allocate  1 x  1 Levels for Diagnostic #    86 surForcT
(PID.TID 0000.0001) SETDIAG: Allocate  1 x  1 Levels for Diagnostic #    87 surForcS
(PID.TID 0000.0001) SETDIAG: Allocate  1 x  1 Levels for Diagnostic #    88 TFLUX
(PID.TID 0000.0001) SETDIAG: Allocate  1 x  1 Levels for Diagnostic #    89 SFLUX
(PID.TID 0000.0001) SETDIAG: Allocate  1 x  1 Levels for Diagnostic #    82 oceQsw
(PID.TID 0000.0001) SETDIAG: Allocate  1 x  1 Levels for Diagnostic #    81 oceQnet
(PID.TID 0000.0001) SETDIAG: Allocate  1 x  1 Levels for Diagnostic #    80 oceSflux
(PID.TID 0000.0001) SETDIAG: Allocate  1 x  1 Levels for Diagnostic #    79 oceFWflx
(PID.TID 0000.0001) SETDIAG: Allocate 15 x  1 Levels for Diagnostic #    30 UVEL
(PID.TID 0000.0001) SETDIAG: Allocate 15 x  1 Levels for Diagnostic #    31 VVEL
(PID.TID 0000.0001) SETDIAG: Allocate 15 x  1 Levels for Diagnostic #    32 WVEL
(PID.TID 0000.0001) SETDIAG: Allocate 15 x  1 Levels for Diagnostic #    67 PHIHYD
(PID.TID 0000.0001) SETDIAG: Allocate 15 x  1 Levels for Diagnostic #    46 VVELMASS
(PID.TID 0000.0001) SETDIAG: Allocate 15 x  1 Levels for Diagnostic #    45 UVELMASS
(PID.TID 0000.0001) SETDIAG: Allocate 15 x  1 Levels for Diagnostic #    38 WVELSQ
(PID.TID 0000.0001) SETDIAG: Allocate 15 x  1 Levels for Diagnostic #    26 THETA
(PID.TID 0000.0001) SETDIAG: Allocate 15 x  1 Levels for Diagnostic #    48 UTHMASS
(PID.TID 0000.0001) SETDIAG: Allocate 15 x  1 Levels for Diagnostic #    49 VTHMASS
(PID.TID 0000.0001) SETDIAG: Allocate 15 x  1 Levels for Diagnostic #    50 WTHMASS
(PID.TID 0000.0001) SETDIAG: Allocate 15 x  1 Levels for Diagnostic #    27 SALT
(PID.TID 0000.0001) SETDIAG: Allocate 15 x  1 Levels for Diagnostic #    51 USLTMASS
(PID.TID 0000.0001) SETDIAG: Allocate 15 x  1 Levels for Diagnostic #    52 VSLTMASS
(PID.TID 0000.0001) SETDIAG: Allocate 15 x  1 Levels for Diagnostic #    53 WSLTMASS
(PID.TID 0000.0001) SETDIAG: Allocate  1 x 12 Levels for Diagnostic #   192 SI_Fract
(PID.TID 0000.0001) SETDIAG: Allocate  1 x 12 Levels for Diagnostic #   193 SI_Thick
(PID.TID 0000.0001) - NOTE - SETDIAG: Counter Diagnostic #   192 SI_Fract has already been set
(PID.TID 0000.0001) SETDIAG: Allocate  1 x 12 Levels for Diagnostic #   194 SI_SnowH
(PID.TID 0000.0001) - NOTE - SETDIAG: Counter Diagnostic #   192 SI_Fract has already been set
(PID.TID 0000.0001) SETDIAG: Allocate  1 x 12 Levels for Diagnostic #   195 SI_Tsrf
(PID.TID 0000.0001) - NOTE - SETDIAG: Counter Diagnostic #   192 SI_Fract has already been set
(PID.TID 0000.0001) SETDIAG: Allocate  1 x 12 Levels for Diagnostic #   196 SI_Tice1
(PID.TID 0000.0001) - NOTE - SETDIAG: Counter Diagnostic #   192 SI_Fract has already been set
(PID.TID 0000.0001) SETDIAG: Allocate  1 x 12 Levels for Diagnostic #   197 SI_Tice2
(PID.TID 0000.0001) - NOTE - SETDIAG: Counter Diagnostic #   192 SI_Fract has already been set
(PID.TID 0000.0001) SETDIAG: Allocate  1 x 12 Levels for Diagnostic #   198 SI_Qice1
(PID.TID 0000.0001) - NOTE - SETDIAG: Counter Diagnostic #   193 SI_Thick has already been set
(PID.TID 0000.0001) SETDIAG: Allocate  1 x 12 Levels for Diagnostic #   199 SI_Qice2
(PID.TID 0000.0001) - NOTE - SETDIAG: Counter Diagnostic #   193 SI_Thick has already been set
(PID.TID 0000.0001) SETDIAG: Allocate  1 x 12 Levels for Diagnostic #   200 SIsnwAge
(PID.TID 0000.0001) SETDIAG: Allocate  1 x 12 Levels for Diagnostic #   203 SIsnwPrc
(PID.TID 0000.0001) SETDIAG: Allocate  1 x 12 Levels for Count.Diag #   201 SI_FrcFx
(PID.TID 0000.0001) SETDIAG: Allocate  1 x 12 Levels for Diagnostic #   202 SIalbedo
(PID.TID 0000.0001) - NOTE - SETDIAG: Counter Diagnostic #   201 SI_FrcFx has already been set
(PID.TID 0000.0001) SETDIAG: Allocate  1 x 12 Levels for Diagnostic #   206 SIflx2oc
(PID.TID 0000.0001) SETDIAG: Allocate  1 x 12 Levels for Diagnostic #   207 SIfrw2oc
(PID.TID 0000.0001) SETDIAG: Allocate  1 x 12 Levels for Diagnostic #   208 SIsaltFx
(PID.TID 0000.0001) SETDIAG: Allocate  1 x 12 Levels for Diagnostic #   204 SIflxAtm
(PID.TID 0000.0001) SETDIAG: Allocate  1 x 12 Levels for Diagnostic #   205 SIfrwAtm
(PID.TID 0000.0001) SETDIAG: Allocate  1 x  1 Levels for Diagnostic #    23 ETAN
(PID.TID 0000.0001) SETDIAG: Allocate  1 x  1 Levels for Diagnostic #    79 oceFWflx
(PID.TID 0000.0001) SETDIAG: Allocate  1 x  1 Levels for Diagnostic #    23 ETAN
(PID.TID 0000.0001) SETDIAG: Allocate 15 x  1 Levels for Diagnostic #    26 THETA
(PID.TID 0000.0001) SETDIAG: Allocate 15 x  1 Levels for Diagnostic #    27 SALT
(PID.TID 0000.0001)   space allocated for all diagnostics:     479 levels
(PID.TID 0000.0001)   set mate pointer for diag #    75  oceTAUX  , Parms: UU      U1 , mate:    76
(PID.TID 0000.0001)   set mate pointer for diag #    76  oceTAUY  , Parms: VV      U1 , mate:    75
(PID.TID 0000.0001)   set mate pointer for diag #    30  UVEL     , Parms: UU      MR , mate:    31
(PID.TID 0000.0001)   set mate pointer for diag #    31  VVEL     , Parms: VV      MR , mate:    30
(PID.TID 0000.0001)   set mate pointer for diag #    46  VVELMASS , Parms: VV      MR , mate:    45
(PID.TID 0000.0001)   set mate pointer for diag #    45  UVELMASS , Parms: UU      MR , mate:    46
(PID.TID 0000.0001)   set mate pointer for diag #    48  UTHMASS  , Parms: UU      MR , mate:    49
(PID.TID 0000.0001)   set mate pointer for diag #    49  VTHMASS  , Parms: VV      MR , mate:    48
(PID.TID 0000.0001)   set mate pointer for diag #    51  USLTMASS , Parms: UU      MR , mate:    52
(PID.TID 0000.0001)   set mate pointer for diag #    52  VSLTMASS , Parms: VV      MR , mate:    51
(PID.TID 0000.0001) DIAGNOSTICS_SET_POINTERS: Set levels for Outp.Stream: dynDiag
(PID.TID 0000.0001)  Levels:       1.   2.   3.   4.   5.   6.   7.   8.   9.  10.  11.  12.  13.  14.  15.
(PID.TID 0000.0001) DIAGNOSTICS_SET_POINTERS: Set levels for Outp.Stream: thSIceDiag
(PID.TID 0000.0001)  Levels:       1.
(PID.TID 0000.0001) DIAGNOSTICS_SET_POINTERS: Set levels for Outp.Stream: surfInst
(PID.TID 0000.0001)  Levels:       1.
(PID.TID 0000.0001) DIAGNOSTICS_SET_POINTERS: Set levels for Outp.Stream: etaInst
(PID.TID 0000.0001)  Levels:       1.
(PID.TID 0000.0001) DIAGNOSTICS_SET_POINTERS: Set levels for Outp.Stream: dynInst
(PID.TID 0000.0001)  Levels:       1.   2.   3.   4.   5.   6.   7.   8.   9.  10.  11.  12.  13.  14.  15.
(PID.TID 0000.0001) DIAGNOSTICS_SET_POINTERS: done
(PID.TID 0000.0001) ------------------------------------------------------------
 DIAGSTATS_SET_REGIONS: start reading region-mask file: regMask_lat24.bin
 DIAGSTATS_SET_REGIONS:  reading set k=  1
(PID.TID 0000.0001)  MDS_READ_FIELD: opening global file: regMask_lat24.bin
 DIAGSTATS_SET_REGIONS:          set k=  1 <= done
(PID.TID 0000.0001) DIAGSTATS_SET_REGIONS: define   3 regions:  1  2  3
(PID.TID 0000.0001) ------------------------------------------------------------
(PID.TID 0000.0001) SETDIAG: Allocate  1 Levels for Stats-Diag #    23 ETAN
(PID.TID 0000.0001) SETDIAG: Allocate  1 Levels for Stats-Diag #    24 ETANSQ
(PID.TID 0000.0001) SETDIAG: Allocate  1 Levels for Stats-Diag #    25 DETADT2
(PID.TID 0000.0001) SETDIAG: Allocate 15 Levels for Stats-Diag #    26 THETA
(PID.TID 0000.0001) SETDIAG: Allocate 15 Levels for Stats-Diag #    27 SALT
(PID.TID 0000.0001) SETDIAG: Allocate 15 Levels for Stats-Diag #    74 CONVADJ
(PID.TID 0000.0001) SETDIAG: Allocate  1 Levels for Stats-Diag #    75 oceTAUX
(PID.TID 0000.0001) SETDIAG: Allocate  1 Levels for Stats-Diag #    76 oceTAUY
(PID.TID 0000.0001) SETDIAG: Allocate  1 Levels for Stats-Diag #    84 TRELAX
(PID.TID 0000.0001) SETDIAG: Allocate  1 Levels for Stats-Diag #    85 SRELAX
(PID.TID 0000.0001) SETDIAG: Allocate  1 Levels for Stats-Diag #    86 surForcT
(PID.TID 0000.0001) SETDIAG: Allocate  1 Levels for Stats-Diag #    87 surForcS
(PID.TID 0000.0001) SETDIAG: Allocate  1 Levels for Stats-Diag #    88 TFLUX
(PID.TID 0000.0001) SETDIAG: Allocate  1 Levels for Stats-Diag #    89 SFLUX
(PID.TID 0000.0001) SETDIAG: Allocate  1 Levels for Stats-Diag #    81 oceQnet
(PID.TID 0000.0001) SETDIAG: Allocate  1 Levels for Stats-Diag #    80 oceSflux
(PID.TID 0000.0001) SETDIAG: Allocate  1 Levels for Stats-Diag #    79 oceFWflx
(PID.TID 0000.0001) SETDIAG: Allocate  1 Levels for Stats-Diag #    23 ETAN
(PID.TID 0000.0001) SETDIAG: Allocate 15 Levels for Stats-Diag #    26 THETA
(PID.TID 0000.0001) SETDIAG: Allocate 15 Levels for Stats-Diag #    27 SALT
(PID.TID 0000.0001) SETDIAG: Allocate  1 Levels for Stats-Diag #   192 SI_Fract
(PID.TID 0000.0001) SETDIAG: Allocate  1 Levels for Stats-Diag #   193 SI_Thick
(PID.TID 0000.0001) - NOTE - SETDIAG: Counter Diagnostic #   192 SI_Fract has already been set
(PID.TID 0000.0001) SETDIAG: Allocate  1 Levels for Stats-Diag #   194 SI_SnowH
(PID.TID 0000.0001) - NOTE - SETDIAG: Counter Diagnostic #   192 SI_Fract has already been set
(PID.TID 0000.0001) SETDIAG: Allocate  1 Levels for Stats-Diag #   195 SI_Tsrf
(PID.TID 0000.0001) - NOTE - SETDIAG: Counter Diagnostic #   192 SI_Fract has already been set
(PID.TID 0000.0001) SETDIAG: Allocate  1 Levels for Stats-Diag #   196 SI_Tice1
(PID.TID 0000.0001) - NOTE - SETDIAG: Counter Diagnostic #   192 SI_Fract has already been set
(PID.TID 0000.0001) SETDIAG: Allocate  1 Levels for Stats-Diag #   197 SI_Tice2
(PID.TID 0000.0001) - NOTE - SETDIAG: Counter Diagnostic #   192 SI_Fract has already been set
(PID.TID 0000.0001) SETDIAG: Allocate  1 Levels for Stats-Diag #   198 SI_Qice1
(PID.TID 0000.0001) - NOTE - SETDIAG: Counter Diagnostic #   193 SI_Thick has already been set
(PID.TID 0000.0001) SETDIAG: Allocate  1 Levels for Stats-Diag #   199 SI_Qice2
(PID.TID 0000.0001) - NOTE - SETDIAG: Counter Diagnostic #   193 SI_Thick has already been set
(PID.TID 0000.0001) SETDIAG: Allocate  1 Levels for Stats-Diag #   203 SIsnwPrc
(PID.TID 0000.0001) SETDIAG: Allocate  1 Levels for Count.Diag #   201 SI_FrcFx
(PID.TID 0000.0001) SETDIAG: Allocate  1 Levels for Stats-Diag #   202 SIalbedo
(PID.TID 0000.0001) - NOTE - SETDIAG: Counter Diagnostic #   201 SI_FrcFx has already been set
(PID.TID 0000.0001) SETDIAG: Allocate  1 Levels for Stats-Diag #   200 SIsnwAge
(PID.TID 0000.0001) SETDIAG: Allocate  1 Levels for Stats-Diag #   206 SIflx2oc
(PID.TID 0000.0001) SETDIAG: Allocate  1 Levels for Stats-Diag #   207 SIfrw2oc
(PID.TID 0000.0001) SETDIAG: Allocate  1 Levels for Stats-Diag #   208 SIsaltFx
(PID.TID 0000.0001) SETDIAG: Allocate  1 Levels for Stats-Diag #   204 SIflxAtm
(PID.TID 0000.0001) SETDIAG: Allocate  1 Levels for Stats-Diag #   205 SIfrwAtm
(PID.TID 0000.0001)   space allocated for all stats-diags:     107 levels
(PID.TID 0000.0001) DIAGSTATS_SET_POINTERS: done
(PID.TID 0000.0001) ------------------------------------------------------------
(PID.TID 0000.0001) DIAGSTATS_INI_IO: open file: dynStDiag.0000036000.txt , unit=     9
(PID.TID 0000.0001) DIAGSTATS_INI_IO: open file: surfStDiag.0000036000.txt , unit=    10
(PID.TID 0000.0001) DIAGSTATS_INI_IO: open file: instStDiag.0000036000.txt , unit=    11
(PID.TID 0000.0001) DIAGSTATS_INI_IO: open file: thSIceStDiag.0000036000.txt , unit=    12
(PID.TID 0000.0001) %MON fCori_max                    =   1.4574827780704E-04
(PID.TID 0000.0001) %MON fCori_min                    =  -1.4574827780704E-04
(PID.TID 0000.0001) %MON fCori_mean                   =   3.3881317890172E-21
(PID.TID 0000.0001) %MON fCori_sd                     =   8.4202189509968E-05
(PID.TID 0000.0001) %MON fCoriG_max                   =   1.4584247033981E-04
(PID.TID 0000.0001) %MON fCoriG_min                   =  -1.4584247033981E-04
(PID.TID 0000.0001) %MON fCoriG_mean                  =  -1.6940658945086E-20
(PID.TID 0000.0001) %MON fCoriG_sd                    =   8.4202189509968E-05
(PID.TID 0000.0001) %MON fCoriCos_max                 =   1.4580166994612E-04
(PID.TID 0000.0001) %MON fCoriCos_min                 =   5.2407700865903E-06
(PID.TID 0000.0001) %MON fCoriCos_mean                =   1.1514045869113E-04
(PID.TID 0000.0001) %MON fCoriCos_sd                  =   3.0375849106513E-05
(PID.TID 0000.0001) INI_CG2D: CG2D normalisation factor =  1.9156564154949553E-04
(PID.TID 0000.0001) INI_CG2D: cg2dTolerance = 5.809016360175296E-07 (Area=3.6388673751E+14)
(PID.TID 0000.0001) 
(PID.TID 0000.0001) // =======================================================
(PID.TID 0000.0001) // Model configuration
(PID.TID 0000.0001) // =======================================================
(PID.TID 0000.0001) //
(PID.TID 0000.0001) // "Physical" paramters ( PARM01 in namelist )
(PID.TID 0000.0001) //
(PID.TID 0000.0001) buoyancyRelation = /* Type of relation to get Buoyancy */
(PID.TID 0000.0001)               'OCEANIC'
(PID.TID 0000.0001)     ;
(PID.TID 0000.0001) fluidIsAir  =  /* fluid major constituent is Air */
(PID.TID 0000.0001)                   F
(PID.TID 0000.0001)     ;
(PID.TID 0000.0001) fluidIsWater=  /* fluid major constituent is Water */
(PID.TID 0000.0001)                   T
(PID.TID 0000.0001)     ;
(PID.TID 0000.0001) usingPCoords =  /* use p (or p*) vertical coordinate */
(PID.TID 0000.0001)                   F
(PID.TID 0000.0001)     ;
(PID.TID 0000.0001) usingZCoords =  /* use z (or z*) vertical coordinate */
(PID.TID 0000.0001)                   T
(PID.TID 0000.0001)     ;
(PID.TID 0000.0001) tRef =   /* Reference temperature profile ( oC or K ) */
(PID.TID 0000.0001)    15 @  2.000000000000000E+01              /* K =  1: 15 */
(PID.TID 0000.0001)     ;
(PID.TID 0000.0001) sRef =   /* Reference salinity profile ( psu ) */
(PID.TID 0000.0001)    15 @  3.500000000000000E+01              /* K =  1: 15 */
(PID.TID 0000.0001)     ;
(PID.TID 0000.0001) viscAh =   /* Lateral eddy viscosity ( m^2/s ) */
(PID.TID 0000.0001)                 3.000000000000000E+05
(PID.TID 0000.0001)     ;
(PID.TID 0000.0001) viscAhMax =   /* Maximum lateral eddy viscosity ( m^2/s ) */
(PID.TID 0000.0001)                 1.000000000000000E+21
(PID.TID 0000.0001)     ;
(PID.TID 0000.0001) viscAhGrid =   /* Grid dependent lateral eddy viscosity ( non-dim. ) */
(PID.TID 0000.0001)                 0.000000000000000E+00
(PID.TID 0000.0001)     ;
(PID.TID 0000.0001) useFullLeith =   /* Use Full Form of Leith Viscosity on/off flag*/
(PID.TID 0000.0001)                   F
(PID.TID 0000.0001)     ;
(PID.TID 0000.0001) useStrainTensionVisc =   /* Use StrainTension Form of Viscous Operator on/off flag*/
(PID.TID 0000.0001)                   F
(PID.TID 0000.0001)     ;
(PID.TID 0000.0001) useAreaViscLength =   /* Use area for visc length instead of geom. mean*/
(PID.TID 0000.0001)                   F
(PID.TID 0000.0001)     ;
(PID.TID 0000.0001) viscC2leith = /* Leith harmonic visc. factor (on grad(vort),non-dim.) */
(PID.TID 0000.0001)                 0.000000000000000E+00
(PID.TID 0000.0001)     ;
(PID.TID 0000.0001) viscC2leithD = /* Leith harmonic viscosity factor (on grad(div),non-dim.) */
(PID.TID 0000.0001)                 0.000000000000000E+00
(PID.TID 0000.0001)     ;
(PID.TID 0000.0001) viscC2smag =   /* Smagorinsky harmonic viscosity factor (non-dim.) */
(PID.TID 0000.0001)                 0.000000000000000E+00
(PID.TID 0000.0001)     ;
(PID.TID 0000.0001) viscA4 =   /* Lateral biharmonic viscosity ( m^4/s ) */
(PID.TID 0000.0001)                 0.000000000000000E+00
(PID.TID 0000.0001)     ;
(PID.TID 0000.0001) viscA4Max =   /* Maximum biharmonic viscosity ( m^2/s ) */
(PID.TID 0000.0001)                 1.000000000000000E+21
(PID.TID 0000.0001)     ;
(PID.TID 0000.0001) viscA4Grid =   /* Grid dependent biharmonic viscosity ( non-dim. ) */
(PID.TID 0000.0001)                 0.000000000000000E+00
(PID.TID 0000.0001)     ;
(PID.TID 0000.0001) viscC4leith = /* Leith biharm viscosity factor (on grad(vort), non-dim.) */
(PID.TID 0000.0001)                 0.000000000000000E+00
(PID.TID 0000.0001)     ;
(PID.TID 0000.0001) viscC4leithD = /* Leith biharm viscosity factor (on grad(div), non-dim.) */
(PID.TID 0000.0001)                 0.000000000000000E+00
(PID.TID 0000.0001)     ;
(PID.TID 0000.0001) viscC4Smag = /* Smagorinsky biharm viscosity factor (non-dim) */
(PID.TID 0000.0001)                 0.000000000000000E+00
(PID.TID 0000.0001)     ;
(PID.TID 0000.0001) no_slip_sides =  /* Viscous BCs: No-slip sides */
(PID.TID 0000.0001)                   T
(PID.TID 0000.0001)     ;
(PID.TID 0000.0001) sideDragFactor = /* side-drag scaling factor (non-dim) */
(PID.TID 0000.0001)                 2.000000000000000E+00
(PID.TID 0000.0001)     ;
(PID.TID 0000.0001) viscAr =   /* Vertical eddy viscosity ( m^2/s ) */
(PID.TID 0000.0001)                 1.000000000000000E-03
(PID.TID 0000.0001)     ;
(PID.TID 0000.0001) no_slip_bottom =  /* Viscous BCs: No-slip bottom */
(PID.TID 0000.0001)                   T
(PID.TID 0000.0001)     ;
(PID.TID 0000.0001) bottomDragLinear = /* linear bottom-drag coefficient ( m/s ) */
(PID.TID 0000.0001)                 0.000000000000000E+00
(PID.TID 0000.0001)     ;
(PID.TID 0000.0001) bottomDragQuadratic = /* quadratic bottom-drag coefficient (-) */
(PID.TID 0000.0001)                 0.000000000000000E+00
(PID.TID 0000.0001)     ;
(PID.TID 0000.0001) diffKhT =   /* Laplacian diffusion of heat laterally ( m^2/s ) */
(PID.TID 0000.0001)                 0.000000000000000E+00
(PID.TID 0000.0001)     ;
(PID.TID 0000.0001) diffK4T =   /* Biharmonic diffusion of heat laterally ( m^4/s ) */
(PID.TID 0000.0001)                 0.000000000000000E+00
(PID.TID 0000.0001)     ;
(PID.TID 0000.0001) diffKhS =   /* Laplacian diffusion of salt laterally ( m^2/s ) */
(PID.TID 0000.0001)                 0.000000000000000E+00
(PID.TID 0000.0001)     ;
(PID.TID 0000.0001) diffK4S =   /* Biharmonic diffusion of salt laterally ( m^4/s ) */
(PID.TID 0000.0001)                 0.000000000000000E+00
(PID.TID 0000.0001)     ;
(PID.TID 0000.0001) diffKrNrT = /* vertical profile of vertical diffusion of Temp ( m^2/s )*/
(PID.TID 0000.0001)    15 @  3.000000000000000E-05              /* K =  1: 15 */
(PID.TID 0000.0001)     ;
(PID.TID 0000.0001) diffKrNrS = /* vertical profile of vertical diffusion of Salt ( m^2/s )*/
(PID.TID 0000.0001)    15 @  3.000000000000000E-05              /* K =  1: 15 */
(PID.TID 0000.0001)     ;
(PID.TID 0000.0001) diffKrBL79surf = /* Surface diffusion for Bryan and Lewis 79 ( m^2/s ) */
(PID.TID 0000.0001)                 0.000000000000000E+00
(PID.TID 0000.0001)     ;
(PID.TID 0000.0001) diffKrBL79deep = /* Deep diffusion for Bryan and Lewis 1979 ( m^2/s ) */
(PID.TID 0000.0001)                 0.000000000000000E+00
(PID.TID 0000.0001)     ;
(PID.TID 0000.0001) diffKrBL79scl = /* Depth scale for Bryan and Lewis 1979 ( m ) */
(PID.TID 0000.0001)                 2.000000000000000E+02
(PID.TID 0000.0001)     ;
(PID.TID 0000.0001) diffKrBL79Ho = /* Turning depth for Bryan and Lewis 1979 ( m ) */
(PID.TID 0000.0001)                -2.000000000000000E+03
(PID.TID 0000.0001)     ;
(PID.TID 0000.0001) ivdc_kappa = /* Implicit Vertical Diffusivity for Convection ( m^2/s ) */
(PID.TID 0000.0001)                 1.000000000000000E+01
(PID.TID 0000.0001)     ;
(PID.TID 0000.0001) hMixCriteria=  /* Criteria for mixed-layer diagnostic */
(PID.TID 0000.0001)                -8.000000000000000E-01
(PID.TID 0000.0001)     ;
(PID.TID 0000.0001) dRhoSmall=  /* Parameter for mixed-layer diagnostic */
(PID.TID 0000.0001)                 1.000000000000000E-06
(PID.TID 0000.0001)     ;
(PID.TID 0000.0001) hMixSmooth=  /* Smoothing parameter for mixed-layer diagnostic */
(PID.TID 0000.0001)                 0.000000000000000E+00
(PID.TID 0000.0001)     ;
(PID.TID 0000.0001) eosType =  /* Type of Equation of State */
(PID.TID 0000.0001)               'JMD95Z'
(PID.TID 0000.0001)     ;
(PID.TID 0000.0001) tAlpha =   /* Linear EOS thermal expansion coefficient ( 1/oC ) */
(PID.TID 0000.0001)                 1.234567000000000E+05
(PID.TID 0000.0001)     ;
(PID.TID 0000.0001) sBeta =   /* Linear EOS haline contraction coefficient ( 1/psu ) */
(PID.TID 0000.0001)                 1.234567000000000E+05
(PID.TID 0000.0001)     ;
(PID.TID 0000.0001) rhonil =   /* Reference density ( kg/m^3 ) */
(PID.TID 0000.0001)                 1.035000000000000E+03
(PID.TID 0000.0001)     ;
(PID.TID 0000.0001) rhoConst =   /* Reference density ( kg/m^3 ) */
(PID.TID 0000.0001)                 1.035000000000000E+03
(PID.TID 0000.0001)     ;
(PID.TID 0000.0001) rhoFacC = /* normalized Reference density @ cell-Center (-) */
(PID.TID 0000.0001)    15 @  1.000000000000000E+00              /* K =  1: 15 */
(PID.TID 0000.0001)     ;
(PID.TID 0000.0001) rhoFacF = /* normalized Reference density @ W-Interface (-) */
(PID.TID 0000.0001)    16 @  1.000000000000000E+00              /* K =  1: 16 */
(PID.TID 0000.0001)     ;
(PID.TID 0000.0001) rhoConstFresh =   /* Reference density ( kg/m^3 ) */
(PID.TID 0000.0001)                 1.000000000000000E+03
(PID.TID 0000.0001)     ;
(PID.TID 0000.0001) gravity =   /* Gravitational acceleration ( m/s^2 ) */
(PID.TID 0000.0001)                 9.810000000000000E+00
(PID.TID 0000.0001)     ;
(PID.TID 0000.0001) gBaro =   /* Barotropic gravity ( m/s^2 ) */
(PID.TID 0000.0001)                 9.810000000000000E+00
(PID.TID 0000.0001)     ;
(PID.TID 0000.0001) rotationPeriod =   /* Rotation Period ( s ) */
(PID.TID 0000.0001)                 8.616400000000000E+04
(PID.TID 0000.0001)     ;
(PID.TID 0000.0001) omega =   /* Angular velocity ( rad/s ) */
(PID.TID 0000.0001)                 7.292123516990375E-05
(PID.TID 0000.0001)     ;
(PID.TID 0000.0001) f0 =   /* Reference coriolis parameter ( 1/s ) */
(PID.TID 0000.0001)                 1.000000000000000E-04
(PID.TID 0000.0001)     ;
(PID.TID 0000.0001) beta =   /* Beta ( 1/(m.s) ) */
(PID.TID 0000.0001)                 9.999999999999999E-12
(PID.TID 0000.0001)     ;
(PID.TID 0000.0001) freeSurfFac =   /* Implicit free surface factor */
(PID.TID 0000.0001)                 1.000000000000000E+00
(PID.TID 0000.0001)     ;
(PID.TID 0000.0001) implicitFreeSurface =   /* Implicit free surface on/off flag */
(PID.TID 0000.0001)                   T
(PID.TID 0000.0001)     ;
(PID.TID 0000.0001) rigidLid =   /* Rigid lid on/off flag */
(PID.TID 0000.0001)                   F
(PID.TID 0000.0001)     ;
(PID.TID 0000.0001) implicSurfPress =   /* Surface Pressure implicit factor (0-1)*/
(PID.TID 0000.0001)                 1.000000000000000E+00
(PID.TID 0000.0001)     ;
(PID.TID 0000.0001) implicDiv2Dflow =   /* Barot. Flow Div. implicit factor (0-1)*/
(PID.TID 0000.0001)                 1.000000000000000E+00
(PID.TID 0000.0001)     ;
(PID.TID 0000.0001) exactConserv =   /* Exact Volume Conservation on/off flag*/
(PID.TID 0000.0001)                   T
(PID.TID 0000.0001)     ;
(PID.TID 0000.0001) linFSConserveTr =   /* Tracer correction for Lin Free Surface on/off flag*/
(PID.TID 0000.0001)                   F
(PID.TID 0000.0001)     ;
(PID.TID 0000.0001) uniformLin_PhiSurf =   /* use uniform Bo_surf on/off flag*/
(PID.TID 0000.0001)                   T
(PID.TID 0000.0001)     ;
(PID.TID 0000.0001) nonlinFreeSurf =   /* Non-linear Free Surf. options (-1,0,1,2,3)*/
(PID.TID 0000.0001)                       4
(PID.TID 0000.0001)     ;
(PID.TID 0000.0001)      -1,0= Off ; 1,2,3= On, 2=+rescale gU,gV, 3=+update cg2d solv.
(PID.TID 0000.0001) hFacInf =   /* lower threshold for hFac (nonlinFreeSurf only)*/
(PID.TID 0000.0001)                 2.000000000000000E-01
(PID.TID 0000.0001)     ;
(PID.TID 0000.0001) hFacSup =   /* upper threshold for hFac (nonlinFreeSurf only)*/
(PID.TID 0000.0001)                 2.000000000000000E+00
(PID.TID 0000.0001)     ;
(PID.TID 0000.0001) select_rStar = /* r* Vertical coord. options (=0 r coord.; > 0 uses r*) */
(PID.TID 0000.0001)                       2
(PID.TID 0000.0001)     ;
(PID.TID 0000.0001) selectAddFluid = /* option for mass source/sink of fluid (=0: off) */
(PID.TID 0000.0001)                       0
(PID.TID 0000.0001)     ;
(PID.TID 0000.0001) useRealFreshWaterFlux = /* Real Fresh Water Flux on/off flag*/
(PID.TID 0000.0001)                   T
(PID.TID 0000.0001)     ;
(PID.TID 0000.0001) temp_EvPrRn = /* Temp. of Evap/Prec/R (UNSET=use local T)(oC)*/
(PID.TID 0000.0001)                 1.234567000000000E+05
(PID.TID 0000.0001)     ;
(PID.TID 0000.0001) salt_EvPrRn = /* Salin. of Evap/Prec/R (UNSET=use local S)(ppt)*/
(PID.TID 0000.0001)                 0.000000000000000E+00
(PID.TID 0000.0001)     ;
(PID.TID 0000.0001) use3Dsolver = /* use 3-D pressure solver on/off flag */
(PID.TID 0000.0001)                   F
(PID.TID 0000.0001)     ;
(PID.TID 0000.0001) nonHydrostatic =  /* Non-Hydrostatic on/off flag */
(PID.TID 0000.0001)                   F
(PID.TID 0000.0001)     ;
(PID.TID 0000.0001) nh_Am2 = /* Non-Hydrostatic terms scaling factor */
(PID.TID 0000.0001)                 1.000000000000000E+00
(PID.TID 0000.0001)     ;
(PID.TID 0000.0001) quasiHydrostatic = /* Quasi-Hydrostatic on/off flag */
(PID.TID 0000.0001)                   F
(PID.TID 0000.0001)     ;
(PID.TID 0000.0001) momStepping =  /* Momentum equation on/off flag */
(PID.TID 0000.0001)                   T
(PID.TID 0000.0001)     ;
(PID.TID 0000.0001) vectorInvariantMomentum= /* Vector-Invariant Momentum on/off */
(PID.TID 0000.0001)                   T
(PID.TID 0000.0001)     ;
(PID.TID 0000.0001) momAdvection =  /* Momentum advection on/off flag */
(PID.TID 0000.0001)                   T
(PID.TID 0000.0001)     ;
(PID.TID 0000.0001) momViscosity =  /* Momentum viscosity on/off flag */
(PID.TID 0000.0001)                   T
(PID.TID 0000.0001)     ;
(PID.TID 0000.0001) momImplVertAdv =/* Momentum implicit vert. advection on/off*/
(PID.TID 0000.0001)                   F
(PID.TID 0000.0001)     ;
(PID.TID 0000.0001) implicitViscosity = /* Implicit viscosity on/off flag */
(PID.TID 0000.0001)                   F
(PID.TID 0000.0001)     ;
(PID.TID 0000.0001) metricTerms =  /* metric-Terms on/off flag */
(PID.TID 0000.0001)                   F
(PID.TID 0000.0001)     ;
(PID.TID 0000.0001) useNHMTerms = /* Non-Hydrostatic Metric-Terms on/off */
(PID.TID 0000.0001)                   F
(PID.TID 0000.0001)     ;
(PID.TID 0000.0001) useConstantF =  /* use Constant f0 Coriolis flag */
(PID.TID 0000.0001)                   F
(PID.TID 0000.0001)     ;
(PID.TID 0000.0001) useBetaPlaneF = /* use Beta-Plane Coriolis flag */
(PID.TID 0000.0001)                   F
(PID.TID 0000.0001)     ;
(PID.TID 0000.0001) useSphereF  =   /* use Spherical Coriolis flag */
(PID.TID 0000.0001)                   T
(PID.TID 0000.0001)     ;
(PID.TID 0000.0001) use3dCoriolis = /* 3-D Coriolis on/off flag */
(PID.TID 0000.0001)                   F
(PID.TID 0000.0001)     ;
(PID.TID 0000.0001) useCoriolis =  /* Coriolis on/off flag */
(PID.TID 0000.0001)                   T
(PID.TID 0000.0001)     ;
(PID.TID 0000.0001) useCDscheme =  /* CD scheme on/off flag */
(PID.TID 0000.0001)                   F
(PID.TID 0000.0001)     ;
(PID.TID 0000.0001) useJamartWetPoints= /* Coriolis WetPoints method flag */
(PID.TID 0000.0001)                   F
(PID.TID 0000.0001)     ;
(PID.TID 0000.0001) useJamartMomAdv= /* V.I. Non-linear terms Jamart flag */
(PID.TID 0000.0001)                   F
(PID.TID 0000.0001)     ;
(PID.TID 0000.0001) useAbsVorticity= /* Work with f+zeta in Coriolis */
(PID.TID 0000.0001)                   F
(PID.TID 0000.0001)     ;
(PID.TID 0000.0001) selectVortScheme= /* Scheme selector for Vorticity-Term */
(PID.TID 0000.0001)                       1
(PID.TID 0000.0001)    = 0 : enstrophy (Shallow-Water Eq.) conserving scheme by Sadourny, JAS 75
(PID.TID 0000.0001)    = 1 : same as 0 with modified hFac
(PID.TID 0000.0001)    = 2 : energy conserving scheme (used by Sadourny in JAS 75 paper)
(PID.TID 0000.0001)    = 3 : energy (general) and enstrophy (2D, nonDiv.) conserving scheme
(PID.TID 0000.0001)          from Sadourny (Burridge & Haseler, ECMWF Rep.4, 1977)
(PID.TID 0000.0001)     ;
(PID.TID 0000.0001) upwindVorticity= /* Upwind bias vorticity flag */
(PID.TID 0000.0001)                   F
(PID.TID 0000.0001)     ;
(PID.TID 0000.0001) highOrderVorticity= /* High order interp. of vort. flag */
(PID.TID 0000.0001)                   F
(PID.TID 0000.0001)     ;
(PID.TID 0000.0001) upwindShear= /* Upwind vertical Shear advection flag */
(PID.TID 0000.0001)                   F
(PID.TID 0000.0001)     ;
(PID.TID 0000.0001) selectKEscheme= /* Kinetic Energy scheme selector */
(PID.TID 0000.0001)                       0
(PID.TID 0000.0001)     ;
(PID.TID 0000.0001) momForcing =  /* Momentum forcing on/off flag */
(PID.TID 0000.0001)                   T
(PID.TID 0000.0001)     ;
(PID.TID 0000.0001) momPressureForcing =  /* Momentum pressure term on/off flag */
(PID.TID 0000.0001)                   T
(PID.TID 0000.0001)     ;
(PID.TID 0000.0001) implicitIntGravWave= /* Implicit Internal Gravity Wave flag */
(PID.TID 0000.0001)                   F
(PID.TID 0000.0001)     ;
(PID.TID 0000.0001) staggerTimeStep =   /* Stagger time stepping on/off flag */
(PID.TID 0000.0001)                   T
(PID.TID 0000.0001)     ;
(PID.TID 0000.0001) multiDimAdvection =   /* enable/disable Multi-Dim Advection */
(PID.TID 0000.0001)                   T
(PID.TID 0000.0001)     ;
(PID.TID 0000.0001) useMultiDimAdvec =   /* Multi-Dim Advection is/is-not used */
(PID.TID 0000.0001)                   F
(PID.TID 0000.0001)     ;
(PID.TID 0000.0001) implicitDiffusion =/* Implicit Diffusion on/off flag */
(PID.TID 0000.0001)                   T
(PID.TID 0000.0001)     ;
(PID.TID 0000.0001) tempStepping =  /* Temperature equation on/off flag */
(PID.TID 0000.0001)                   T
(PID.TID 0000.0001)     ;
(PID.TID 0000.0001) tempAdvection=  /* Temperature advection on/off flag */
(PID.TID 0000.0001)                   T
(PID.TID 0000.0001)     ;
(PID.TID 0000.0001) tempImplVertAdv =/* Temp. implicit vert. advection on/off */
(PID.TID 0000.0001)                   F
(PID.TID 0000.0001)     ;
(PID.TID 0000.0001) tempForcing  =  /* Temperature forcing on/off flag */
(PID.TID 0000.0001)                   T
(PID.TID 0000.0001)     ;
(PID.TID 0000.0001) tempIsActiveTr = /* Temp. is a dynamically Active Tracer */
(PID.TID 0000.0001)                   T
(PID.TID 0000.0001)     ;
(PID.TID 0000.0001) saltStepping =  /* Salinity equation on/off flag */
(PID.TID 0000.0001)                   T
(PID.TID 0000.0001)     ;
(PID.TID 0000.0001) saltAdvection=  /* Salinity advection on/off flag */
(PID.TID 0000.0001)                   T
(PID.TID 0000.0001)     ;
(PID.TID 0000.0001) saltImplVertAdv =/* Sali. implicit vert. advection on/off */
(PID.TID 0000.0001)                   F
(PID.TID 0000.0001)     ;
(PID.TID 0000.0001) saltForcing  =  /* Salinity forcing on/off flag */
(PID.TID 0000.0001)                   T
(PID.TID 0000.0001)     ;
(PID.TID 0000.0001) saltIsActiveTr = /* Salt  is a dynamically Active Tracer */
(PID.TID 0000.0001)                   T
(PID.TID 0000.0001)     ;
(PID.TID 0000.0001)  readBinaryPrec = /* Precision used for reading binary files */
(PID.TID 0000.0001)                      64
(PID.TID 0000.0001)     ;
(PID.TID 0000.0001) writeBinaryPrec = /* Precision used for writing binary files */
(PID.TID 0000.0001)                      32
(PID.TID 0000.0001)     ;
(PID.TID 0000.0001)  globalFiles = /* write "global" (=not per tile) files */
(PID.TID 0000.0001)                   F
(PID.TID 0000.0001)     ;
(PID.TID 0000.0001)  useSingleCpuIO = /* only master MPI process does I/O */
(PID.TID 0000.0001)                   F
(PID.TID 0000.0001)     ;
(PID.TID 0000.0001)  debugMode  =  /* Debug Mode on/off flag */
(PID.TID 0000.0001)                   F
(PID.TID 0000.0001)     ;
(PID.TID 0000.0001)    debLevA  =  /* 1rst level of debugging */
(PID.TID 0000.0001)                       1
(PID.TID 0000.0001)     ;
(PID.TID 0000.0001)    debLevB  =  /* 2nd  level of debugging */
(PID.TID 0000.0001)                       2
(PID.TID 0000.0001)     ;
(PID.TID 0000.0001)  debugLevel =  /* select debugging level */
(PID.TID 0000.0001)                       1
(PID.TID 0000.0001)     ;
(PID.TID 0000.0001) //
(PID.TID 0000.0001) // Elliptic solver(s) paramters ( PARM02 in namelist )
(PID.TID 0000.0001) //
(PID.TID 0000.0001) cg2dMaxIters =   /* Upper limit on 2d con. grad iterations  */
(PID.TID 0000.0001)                     200
(PID.TID 0000.0001)     ;
(PID.TID 0000.0001) cg2dChkResFreq =   /* 2d con. grad convergence test frequency */
(PID.TID 0000.0001)                       1
(PID.TID 0000.0001)     ;
(PID.TID 0000.0001) cg2dTargetResidual =   /* 2d con. grad target residual  */
(PID.TID 0000.0001)                 1.000000000000000E-07
(PID.TID 0000.0001)     ;
(PID.TID 0000.0001) cg2dTargetResWunit =   /* CG2d target residual [W units] */
(PID.TID 0000.0001)                 1.000000000000000E-14
(PID.TID 0000.0001)     ;
(PID.TID 0000.0001) cg2dPreCondFreq =   /* Freq. for updating cg2d preconditioner */
(PID.TID 0000.0001)                       1
(PID.TID 0000.0001)     ;
(PID.TID 0000.0001) //
(PID.TID 0000.0001) // Time stepping paramters ( PARM03 in namelist )
(PID.TID 0000.0001) //
(PID.TID 0000.0001) deltaTmom =   /* Momentum equation timestep ( s ) */
(PID.TID 0000.0001)                 1.200000000000000E+03
(PID.TID 0000.0001)     ;
(PID.TID 0000.0001) deltaTfreesurf = /* FreeSurface equation timestep ( s ) */
(PID.TID 0000.0001)                 8.640000000000000E+04
(PID.TID 0000.0001)     ;
(PID.TID 0000.0001) dTtracerLev =  /* Tracer equation timestep ( s ) */
(PID.TID 0000.0001)    15 @  8.640000000000000E+04              /* K =  1: 15 */
(PID.TID 0000.0001)     ;
(PID.TID 0000.0001) deltaTClock  =   /* Model clock timestep ( s ) */
(PID.TID 0000.0001)                 8.640000000000000E+04
(PID.TID 0000.0001)     ;
(PID.TID 0000.0001) cAdjFreq =   /* Convective adjustment interval ( s ) */
(PID.TID 0000.0001)                 0.000000000000000E+00
(PID.TID 0000.0001)     ;
(PID.TID 0000.0001) momForcingOutAB = /* =1: take Momentum Forcing out of Adams-Bash. stepping */
(PID.TID 0000.0001)                       0
(PID.TID 0000.0001)     ;
(PID.TID 0000.0001) tracForcingOutAB = /* =1: take T,S,pTr Forcing out of Adams-Bash. stepping */
(PID.TID 0000.0001)                       1
(PID.TID 0000.0001)     ;
(PID.TID 0000.0001) momDissip_In_AB = /* put Dissipation Tendency in Adams-Bash. stepping */
(PID.TID 0000.0001)                   T
(PID.TID 0000.0001)     ;
(PID.TID 0000.0001) doAB_onGtGs = /* apply AB on Tendencies (rather than on T,S)*/
(PID.TID 0000.0001)                   T
(PID.TID 0000.0001)     ;
(PID.TID 0000.0001) abEps =   /* Adams-Bashforth-2 stabilizing weight */
(PID.TID 0000.0001)                 1.000000000000000E-01
(PID.TID 0000.0001)     ;
(PID.TID 0000.0001) pickupStrictlyMatch= /* stop if pickup do not strictly match */
(PID.TID 0000.0001)                   T
(PID.TID 0000.0001)     ;
(PID.TID 0000.0001) nIter0 =   /* Run starting timestep number  */
(PID.TID 0000.0001)                   36000
(PID.TID 0000.0001)     ;
(PID.TID 0000.0001) nTimeSteps =   /* Number of timesteps */
(PID.TID 0000.0001)                      20
(PID.TID 0000.0001)     ;
(PID.TID 0000.0001) baseTime =   /* Model base time ( s ). */
(PID.TID 0000.0001)                 0.000000000000000E+00
(PID.TID 0000.0001)     ;
(PID.TID 0000.0001) startTime =   /* Run start time ( s ). */
(PID.TID 0000.0001)                 3.110400000000000E+09
(PID.TID 0000.0001)     ;
(PID.TID 0000.0001) endTime =   /* Integration ending time ( s ). */
(PID.TID 0000.0001)                 3.112128000000000E+09
(PID.TID 0000.0001)     ;
(PID.TID 0000.0001) pChkPtFreq =   /* Permanent restart/checkpoint file interval ( s ). */
(PID.TID 0000.0001)                 3.110400000000000E+07
(PID.TID 0000.0001)     ;
(PID.TID 0000.0001) chkPtFreq =   /* Rolling restart/checkpoint file interval ( s ). */
(PID.TID 0000.0001)                 0.000000000000000E+00
(PID.TID 0000.0001)     ;
(PID.TID 0000.0001) pickup_write_mdsio =   /* Model IO flag. */
(PID.TID 0000.0001)                   T
(PID.TID 0000.0001)     ;
(PID.TID 0000.0001) pickup_read_mdsio =   /* Model IO flag. */
(PID.TID 0000.0001)                   T
(PID.TID 0000.0001)     ;
(PID.TID 0000.0001) pickup_write_mnc =   /* Model IO flag. */
(PID.TID 0000.0001)                   F
(PID.TID 0000.0001)     ;
(PID.TID 0000.0001) pickup_read_mnc =   /* Model IO flag. */
(PID.TID 0000.0001)                   F
(PID.TID 0000.0001)     ;
(PID.TID 0000.0001) pickup_write_immed =   /* Model IO flag. */
(PID.TID 0000.0001)                   F
(PID.TID 0000.0001)     ;
(PID.TID 0000.0001) writePickupAtEnd =   /* Model IO flag. */
(PID.TID 0000.0001)                   T
(PID.TID 0000.0001)     ;
(PID.TID 0000.0001) dumpFreq =   /* Model state write out interval ( s ). */
(PID.TID 0000.0001)                 3.110400000000000E+07
(PID.TID 0000.0001)     ;
(PID.TID 0000.0001) dumpInitAndLast= /* write out Initial & Last iter. model state */
(PID.TID 0000.0001)                   T
(PID.TID 0000.0001)     ;
(PID.TID 0000.0001) snapshot_mdsio =   /* Model IO flag. */
(PID.TID 0000.0001)                   T
(PID.TID 0000.0001)     ;
(PID.TID 0000.0001) snapshot_mnc =   /* Model IO flag. */
(PID.TID 0000.0001)                   F
(PID.TID 0000.0001)     ;
(PID.TID 0000.0001) monitorFreq =   /* Monitor output interval ( s ). */
(PID.TID 0000.0001)                 1.000000000000000E+00
(PID.TID 0000.0001)     ;
(PID.TID 0000.0001) monitorSelect = /* select group of variables to monitor */
(PID.TID 0000.0001)                       3
(PID.TID 0000.0001)     ;
(PID.TID 0000.0001) monitor_stdio =   /* Model IO flag. */
(PID.TID 0000.0001)                   T
(PID.TID 0000.0001)     ;
(PID.TID 0000.0001) monitor_mnc =   /* Model IO flag. */
(PID.TID 0000.0001)                   F
(PID.TID 0000.0001)     ;
(PID.TID 0000.0001) externForcingPeriod =   /* forcing period (s) */
(PID.TID 0000.0001)                 2.592000000000000E+06
(PID.TID 0000.0001)     ;
(PID.TID 0000.0001) externForcingCycle =   /* period of the cyle (s). */
(PID.TID 0000.0001)                 3.110400000000000E+07
(PID.TID 0000.0001)     ;
(PID.TID 0000.0001) tauThetaClimRelax =   /* relaxation time scale (s) */
(PID.TID 0000.0001)                 5.184000000000000E+06
(PID.TID 0000.0001)     ;
(PID.TID 0000.0001) tauSaltClimRelax =   /* relaxation time scale (s) */
(PID.TID 0000.0001)                 1.555200000000000E+07
(PID.TID 0000.0001)     ;
(PID.TID 0000.0001) latBandClimRelax =   /* max. Lat. where relaxation */
(PID.TID 0000.0001)                 5.000000000000000E+01
(PID.TID 0000.0001)     ;
(PID.TID 0000.0001) //
(PID.TID 0000.0001) // Gridding paramters ( PARM04 in namelist )
(PID.TID 0000.0001) //
(PID.TID 0000.0001) usingCartesianGrid = /* Cartesian coordinates flag ( True/False ) */
(PID.TID 0000.0001)                   F
(PID.TID 0000.0001)     ;
(PID.TID 0000.0001) usingCylindricalGrid = /* Cylindrical coordinates flag ( True/False ) */
(PID.TID 0000.0001)                   F
(PID.TID 0000.0001)     ;
(PID.TID 0000.0001) usingSphericalPolarGrid = /* Spherical coordinates flag ( True/False ) */
(PID.TID 0000.0001)                   F
(PID.TID 0000.0001)     ;
(PID.TID 0000.0001) usingCurvilinearGrid = /* Curvilinear coordinates flag ( True/False ) */
(PID.TID 0000.0001)                   T
(PID.TID 0000.0001)     ;
(PID.TID 0000.0001) Ro_SeaLevel = /* r(1) ( units of r ==  m ) */
(PID.TID 0000.0001)                 0.000000000000000E+00
(PID.TID 0000.0001)     ;
(PID.TID 0000.0001) rkSign =   /* index orientation relative to vertical coordinate */
(PID.TID 0000.0001)                -1.000000000000000E+00
(PID.TID 0000.0001)     ;
(PID.TID 0000.0001) gravitySign = /* gravity orientation relative to vertical coordinate */
(PID.TID 0000.0001)                -1.000000000000000E+00
(PID.TID 0000.0001)     ;
(PID.TID 0000.0001) mass2rUnit = /* convert mass per unit area [kg/m2] to r-units [m] */
(PID.TID 0000.0001)                 9.661835748792270E-04
(PID.TID 0000.0001)     ;
(PID.TID 0000.0001) rUnit2mass = /* convert r-units [m] to mass per unit area [kg/m2] */
(PID.TID 0000.0001)                 1.035000000000000E+03
(PID.TID 0000.0001)     ;
(PID.TID 0000.0001) drC =   /* C spacing ( units of r ) */
(PID.TID 0000.0001)                 2.500000000000000E+01,      /* K =  1 */
(PID.TID 0000.0001)                 6.000000000000000E+01,      /* K =  2 */
(PID.TID 0000.0001)                 8.500000000000000E+01,      /* K =  3 */
(PID.TID 0000.0001)                 1.200000000000000E+02,      /* K =  4 */
(PID.TID 0000.0001)                 1.650000000000000E+02,      /* K =  5 */
(PID.TID 0000.0001)                 2.150000000000000E+02,      /* K =  6 */
(PID.TID 0000.0001)                 2.650000000000000E+02,      /* K =  7 */
(PID.TID 0000.0001)                 3.150000000000000E+02,      /* K =  8 */
(PID.TID 0000.0001)                 3.650000000000000E+02,      /* K =  9 */
(PID.TID 0000.0001)                 4.150000000000000E+02,      /* K = 10 */
(PID.TID 0000.0001)                 4.650000000000000E+02,      /* K = 11 */
(PID.TID 0000.0001)                 5.150000000000000E+02,      /* K = 12 */
(PID.TID 0000.0001)                 5.650000000000000E+02,      /* K = 13 */
(PID.TID 0000.0001)                 6.150000000000000E+02,      /* K = 14 */
(PID.TID 0000.0001)                 6.650000000000000E+02       /* K = 15 */
(PID.TID 0000.0001)     ;
(PID.TID 0000.0001) drF =   /* W spacing ( units of r ) */
(PID.TID 0000.0001)                 5.000000000000000E+01,      /* K =  1 */
(PID.TID 0000.0001)                 7.000000000000000E+01,      /* K =  2 */
(PID.TID 0000.0001)                 1.000000000000000E+02,      /* K =  3 */
(PID.TID 0000.0001)                 1.400000000000000E+02,      /* K =  4 */
(PID.TID 0000.0001)                 1.900000000000000E+02,      /* K =  5 */
(PID.TID 0000.0001)                 2.400000000000000E+02,      /* K =  6 */
(PID.TID 0000.0001)                 2.900000000000000E+02,      /* K =  7 */
(PID.TID 0000.0001)                 3.400000000000000E+02,      /* K =  8 */
(PID.TID 0000.0001)                 3.900000000000000E+02,      /* K =  9 */
(PID.TID 0000.0001)                 4.400000000000000E+02,      /* K = 10 */
(PID.TID 0000.0001)                 4.900000000000000E+02,      /* K = 11 */
(PID.TID 0000.0001)                 5.400000000000000E+02,      /* K = 12 */
(PID.TID 0000.0001)                 5.900000000000000E+02,      /* K = 13 */
(PID.TID 0000.0001)                 6.400000000000000E+02,      /* K = 14 */
(PID.TID 0000.0001)                 6.900000000000000E+02       /* K = 15 */
(PID.TID 0000.0001)     ;
(PID.TID 0000.0001) xgOrigin = /* X-axis origin of West  edge (cartesian: m, lat-lon: deg.) */
(PID.TID 0000.0001)                 0.000000000000000E+00
(PID.TID 0000.0001)     ;
(PID.TID 0000.0001) ygOrigin = /* Y-axis origin of South edge (cartesian: m, lat-lon: deg.) */
(PID.TID 0000.0001)                 0.000000000000000E+00
(PID.TID 0000.0001)     ;
(PID.TID 0000.0001) rSphere =  /* Radius ( ignored - cartesian, m - spherical ) */
(PID.TID 0000.0001)                 6.370000000000000E+06
(PID.TID 0000.0001)     ;
(PID.TID 0000.0001) deepAtmosphere = /* Deep/Shallow Atmosphere flag (True/False) */
(PID.TID 0000.0001)                   F
(PID.TID 0000.0001)     ;
(PID.TID 0000.0001) xC =  /* xC(:,1,:,1) : P-point X coord ( deg. or m if cartesian) */
(PID.TID 0000.0001)                -4.439521994760536E+01,      /* I =  1 */
(PID.TID 0000.0001)                -4.295641272275883E+01,      /* I =  2 */
(PID.TID 0000.0001)                -4.122055553388957E+01,      /* I =  3 */
(PID.TID 0000.0001)      . . .
(PID.TID 0000.0001)                 1.312205555338896E+02,      /* I = 94 */
(PID.TID 0000.0001)                 1.329564127227588E+02,      /* I = 95 */
(PID.TID 0000.0001)                 1.343952199476053E+02,      /* I = 96 */
(PID.TID 0000.0001)                 4.635509675007168E+01,      /* I = 97 */
(PID.TID 0000.0001)                 4.906731228843647E+01,      /* I = 98 */
(PID.TID 0000.0001)                 5.178550688214704E+01,      /* I = 99 */
(PID.TID 0000.0001)      . . .
(PID.TID 0000.0001)                -1.778001716525716E+02,      /* I =190 */
(PID.TID 0000.0001)                -1.779288225675308E+02,      /* I =191 */
(PID.TID 0000.0001)                -1.780367200854751E+02,      /* I =192 */
(PID.TID 0000.0001)                 1.356047800523947E+02,      /* I =193 */
(PID.TID 0000.0001)                 1.358367907661329E+02,      /* I =194 */
(PID.TID 0000.0001)                 1.359720382181193E+02,      /* I =195 */
(PID.TID 0000.0001)      . . .
(PID.TID 0000.0001)                -1.340279617818807E+02,      /* I =286 */
(PID.TID 0000.0001)                -1.341632092338671E+02,      /* I =287 */
(PID.TID 0000.0001)                -1.343952199476053E+02,      /* I =288 */
(PID.TID 0000.0001)                -8.812739148696656E+01,      /* I =289 */
(PID.TID 0000.0001)                -8.820362659721324E+01,      /* I =290 */
(PID.TID 0000.0001)                -8.826768106944316E+01,      /* I =291 */
(PID.TID 0000.0001)      . . .
(PID.TID 0000.0001)                 8.780017165257156E+01,      /* I =382 */
(PID.TID 0000.0001)                 8.792882256753080E+01,      /* I =383 */
(PID.TID 0000.0001)                 8.803672008547504E+01       /* I =384 */
(PID.TID 0000.0001)     ;
(PID.TID 0000.0001) yC =  /* yC(1,:,1,:) : P-point Y coord ( deg. or m if cartesian) */
(PID.TID 0000.0001)                -3.497677942598243E+01,      /* J =  1 */
(PID.TID 0000.0001)                -3.374005967394886E+01,      /* J =  2 */
(PID.TID 0000.0001)                -3.220655175667454E+01,      /* J =  3 */
(PID.TID 0000.0001)                -3.045756348838641E+01,      /* J =  4 */
(PID.TID 0000.0001)                -2.853728129852918E+01,      /* J =  5 */
(PID.TID 0000.0001)                -2.647426640173173E+01,      /* J =  6 */
(PID.TID 0000.0001)                -2.428936657094636E+01,      /* J =  7 */
(PID.TID 0000.0001)                -2.199915808312262E+01,      /* J =  8 */
(PID.TID 0000.0001)                -1.961768597440146E+01,      /* J =  9 */
(PID.TID 0000.0001)                -1.715743888281371E+01,      /* J = 10 */
(PID.TID 0000.0001)                -1.462993396899330E+01,      /* J = 11 */
(PID.TID 0000.0001)                -1.204608340464756E+01,      /* J = 12 */
(PID.TID 0000.0001)                -9.416429130284818E+00,      /* J = 13 */
(PID.TID 0000.0001)                -6.751293662992216E+00,      /* J = 14 */
(PID.TID 0000.0001)                -4.060875511835959E+00,      /* J = 15 */
(PID.TID 0000.0001)                -1.355307764409121E+00       /* J = 16 */
(PID.TID 0000.0001)     ;
(PID.TID 0000.0001) rcoord = /* P-point R coordinate (  units of r ) */
(PID.TID 0000.0001)                -2.500000000000000E+01,      /* K =  1 */
(PID.TID 0000.0001)                -8.500000000000000E+01,      /* K =  2 */
(PID.TID 0000.0001)                -1.700000000000000E+02,      /* K =  3 */
(PID.TID 0000.0001)                -2.900000000000000E+02,      /* K =  4 */
(PID.TID 0000.0001)                -4.550000000000000E+02,      /* K =  5 */
(PID.TID 0000.0001)                -6.700000000000000E+02,      /* K =  6 */
(PID.TID 0000.0001)                -9.350000000000000E+02,      /* K =  7 */
(PID.TID 0000.0001)                -1.250000000000000E+03,      /* K =  8 */
(PID.TID 0000.0001)                -1.615000000000000E+03,      /* K =  9 */
(PID.TID 0000.0001)                -2.030000000000000E+03,      /* K = 10 */
(PID.TID 0000.0001)                -2.495000000000000E+03,      /* K = 11 */
(PID.TID 0000.0001)                -3.010000000000000E+03,      /* K = 12 */
(PID.TID 0000.0001)                -3.575000000000000E+03,      /* K = 13 */
(PID.TID 0000.0001)                -4.190000000000000E+03,      /* K = 14 */
(PID.TID 0000.0001)                -4.855000000000000E+03       /* K = 15 */
(PID.TID 0000.0001)     ;
(PID.TID 0000.0001) rF =   /* W-Interf. R coordinate (  units of r ) */
(PID.TID 0000.0001)                 0.000000000000000E+00,      /* K =  1 */
(PID.TID 0000.0001)                -5.000000000000000E+01,      /* K =  2 */
(PID.TID 0000.0001)                -1.200000000000000E+02,      /* K =  3 */
(PID.TID 0000.0001)                -2.200000000000000E+02,      /* K =  4 */
(PID.TID 0000.0001)                -3.600000000000000E+02,      /* K =  5 */
(PID.TID 0000.0001)                -5.500000000000000E+02,      /* K =  6 */
(PID.TID 0000.0001)                -7.900000000000000E+02,      /* K =  7 */
(PID.TID 0000.0001)                -1.080000000000000E+03,      /* K =  8 */
(PID.TID 0000.0001)                -1.420000000000000E+03,      /* K =  9 */
(PID.TID 0000.0001)                -1.810000000000000E+03,      /* K = 10 */
(PID.TID 0000.0001)                -2.250000000000000E+03,      /* K = 11 */
(PID.TID 0000.0001)                -2.740000000000000E+03,      /* K = 12 */
(PID.TID 0000.0001)                -3.280000000000000E+03,      /* K = 13 */
(PID.TID 0000.0001)                -3.870000000000000E+03,      /* K = 14 */
(PID.TID 0000.0001)                -4.510000000000000E+03,      /* K = 15 */
(PID.TID 0000.0001)                -5.200000000000000E+03       /* K = 16 */
(PID.TID 0000.0001)     ;
(PID.TID 0000.0001) deepFacC = /* deep-model grid factor @ cell-Center (-) */
(PID.TID 0000.0001)    15 @  1.000000000000000E+00              /* K =  1: 15 */
(PID.TID 0000.0001)     ;
(PID.TID 0000.0001) deepFacF = /* deep-model grid factor @ W-Interface (-) */
(PID.TID 0000.0001)    16 @  1.000000000000000E+00              /* K =  1: 16 */
(PID.TID 0000.0001)     ;
(PID.TID 0000.0001) rVel2wUnit = /* convert units: rVel -> wSpeed (=1 if z-coord)*/
(PID.TID 0000.0001)    16 @  1.000000000000000E+00              /* K =  1: 16 */
(PID.TID 0000.0001)     ;
(PID.TID 0000.0001) wUnit2rVel = /* convert units: wSpeed -> rVel (=1 if z-coord)*/
(PID.TID 0000.0001)    16 @  1.000000000000000E+00              /* K =  1: 16 */
(PID.TID 0000.0001)     ;
(PID.TID 0000.0001) dBdrRef = /* Vertical gradient of reference boyancy [(m/s/r)^2)] */
(PID.TID 0000.0001)    15 @  0.000000000000000E+00              /* K =  1: 15 */
(PID.TID 0000.0001)     ;
(PID.TID 0000.0001) rotateGrid = /* use rotated grid ( True/False ) */
(PID.TID 0000.0001)                   F
(PID.TID 0000.0001)     ;
(PID.TID 0000.0001) phiEuler = /* Euler angle, rotation about original z-coordinate [rad] */
(PID.TID 0000.0001)                 0.000000000000000E+00
(PID.TID 0000.0001)     ;
(PID.TID 0000.0001) thetaEuler = /* Euler angle, rotation about new x-coordinate [rad] */
(PID.TID 0000.0001)                 0.000000000000000E+00
(PID.TID 0000.0001)     ;
(PID.TID 0000.0001) psiEuler = /* Euler angle, rotation about new z-coordinate [rad] */
(PID.TID 0000.0001)                 0.000000000000000E+00
(PID.TID 0000.0001)     ;
(PID.TID 0000.0001) dxF =  /* dxF(:,1,:,1) ( units: m ) */
(PID.TID 0000.0001)                 1.202082051331828E+05,      /* I =  1 */
(PID.TID 0000.0001)                 1.563594089971120E+05,      /* I =  2 */
(PID.TID 0000.0001)                 1.835530058121492E+05,      /* I =  3 */
(PID.TID 0000.0001)      . . .
(PID.TID 0000.0001)                 1.835530058121492E+05,      /* I = 94 */
(PID.TID 0000.0001)                 1.563594089971120E+05,      /* I = 95 */
(PID.TID 0000.0001)                 1.202082051331828E+05,      /* I = 96 */
(PID.TID 0000.0001)                 3.012844832048790E+05,      /* I = 97 */
(PID.TID 0000.0001)                 3.017314519159184E+05,      /* I = 98 */
(PID.TID 0000.0001)                 3.026061571839506E+05,      /* I = 99 */
(PID.TID 0000.0001)      . . .
(PID.TID 0000.0001)                 3.026061571839506E+05,      /* I =190 */
(PID.TID 0000.0001)                 3.017314519159184E+05,      /* I =191 */
(PID.TID 0000.0001)                 3.012844832048790E+05,      /* I =192 */
(PID.TID 0000.0001)                 1.202082051331828E+05,      /* I =193 */
(PID.TID 0000.0001)                 1.563594089971120E+05,      /* I =194 */
(PID.TID 0000.0001)                 1.835530058121492E+05,      /* I =195 */
(PID.TID 0000.0001)      . . .
(PID.TID 0000.0001)                 1.835530058121492E+05,      /* I =286 */
(PID.TID 0000.0001)                 1.563594089971120E+05,      /* I =287 */
(PID.TID 0000.0001)                 1.202082051331828E+05,      /* I =288 */
(PID.TID 0000.0001)                 3.012844832048790E+05,      /* I =289 */
(PID.TID 0000.0001)                 3.017314519159184E+05,      /* I =290 */
(PID.TID 0000.0001)                 3.026061571839506E+05,      /* I =291 */
(PID.TID 0000.0001)      . . .
(PID.TID 0000.0001)                 3.026061571839506E+05,      /* I =382 */
(PID.TID 0000.0001)                 3.017314519159184E+05,      /* I =383 */
(PID.TID 0000.0001)                 3.012844832048790E+05       /* I =384 */
(PID.TID 0000.0001)     ;
(PID.TID 0000.0001) dxF =  /* dxF(1,:,1,:) ( units: m ) */
(PID.TID 0000.0001)                 1.202082051331828E+05,      /* J =  1 */
(PID.TID 0000.0001)                 1.572908084538706E+05,      /* J =  2 */
(PID.TID 0000.0001)                 1.840412227747703E+05,      /* J =  3 */
(PID.TID 0000.0001)                 2.048868197919576E+05,      /* J =  4 */
(PID.TID 0000.0001)                 2.220405216043041E+05,      /* J =  5 */
(PID.TID 0000.0001)                 2.365892017348392E+05,      /* J =  6 */
(PID.TID 0000.0001)                 2.491250781852558E+05,      /* J =  7 */
(PID.TID 0000.0001)                 2.599949918261881E+05,      /* J =  8 */
(PID.TID 0000.0001)                 2.694110134598581E+05,      /* J =  9 */
(PID.TID 0000.0001)                 2.775055554645015E+05,      /* J = 10 */
(PID.TID 0000.0001)                 2.843615645344775E+05,      /* J = 11 */
(PID.TID 0000.0001)                 2.900303768613599E+05,      /* J = 12 */
(PID.TID 0000.0001)                 2.945429307892709E+05,      /* J = 13 */
(PID.TID 0000.0001)                 2.979171143158405E+05,      /* J = 14 */
(PID.TID 0000.0001)                 3.001626787528886E+05,      /* J = 15 */
(PID.TID 0000.0001)                 3.012844832048790E+05       /* J = 16 */
(PID.TID 0000.0001)     ;
(PID.TID 0000.0001) dyF =  /* dyF(:,1,:,1) ( units: m ) */
(PID.TID 0000.0001)                 1.202082051331828E+05,      /* I =  1 */
(PID.TID 0000.0001)                 1.572908084538706E+05,      /* I =  2 */
(PID.TID 0000.0001)                 1.840412227747703E+05,      /* I =  3 */
(PID.TID 0000.0001)      . . .
(PID.TID 0000.0001)                 1.840412227747703E+05,      /* I = 94 */
(PID.TID 0000.0001)                 1.572908084538706E+05,      /* I = 95 */
(PID.TID 0000.0001)                 1.202082051331828E+05,      /* I = 96 */
(PID.TID 0000.0001)                 3.012190981969055E+05,      /* I = 97 */
(PID.TID 0000.0001)                 3.016675528553907E+05,      /* I = 98 */
(PID.TID 0000.0001)                 3.025451404065074E+05,      /* I = 99 */
(PID.TID 0000.0001)      . . .
(PID.TID 0000.0001)                 3.025451404065074E+05,      /* I =190 */
(PID.TID 0000.0001)                 3.016675528553907E+05,      /* I =191 */
(PID.TID 0000.0001)                 3.012190981969055E+05,      /* I =192 */
(PID.TID 0000.0001)                 1.202082051331828E+05,      /* I =193 */
(PID.TID 0000.0001)                 1.572908084538706E+05,      /* I =194 */
(PID.TID 0000.0001)                 1.840412227747703E+05,      /* I =195 */
(PID.TID 0000.0001)      . . .
(PID.TID 0000.0001)                 1.840412227747703E+05,      /* I =286 */
(PID.TID 0000.0001)                 1.572908084538706E+05,      /* I =287 */
(PID.TID 0000.0001)                 1.202082051331828E+05,      /* I =288 */
(PID.TID 0000.0001)                 3.012190981969055E+05,      /* I =289 */
(PID.TID 0000.0001)                 3.016675528553907E+05,      /* I =290 */
(PID.TID 0000.0001)                 3.025451404065074E+05,      /* I =291 */
(PID.TID 0000.0001)      . . .
(PID.TID 0000.0001)                 3.025451404065074E+05,      /* I =382 */
(PID.TID 0000.0001)                 3.016675528553907E+05,      /* I =383 */
(PID.TID 0000.0001)                 3.012190981969055E+05       /* I =384 */
(PID.TID 0000.0001)     ;
(PID.TID 0000.0001) dyF =  /* dyF(1,:,1,:) ( units: m ) */
(PID.TID 0000.0001)                 1.202082051331828E+05,      /* J =  1 */
(PID.TID 0000.0001)                 1.563594089971120E+05,      /* J =  2 */
(PID.TID 0000.0001)                 1.835530058121492E+05,      /* J =  3 */
(PID.TID 0000.0001)                 2.045883481718707E+05,      /* J =  4 */
(PID.TID 0000.0001)                 2.218350349844185E+05,      /* J =  5 */
(PID.TID 0000.0001)                 2.364352994647058E+05,      /* J =  6 */
(PID.TID 0000.0001)                 2.490022710862746E+05,      /* J =  7 */
(PID.TID 0000.0001)                 2.598919724358304E+05,      /* J =  8 */
(PID.TID 0000.0001)                 2.693210245495156E+05,      /* J =  9 */
(PID.TID 0000.0001)                 2.774243179696503E+05,      /* J = 10 */
(PID.TID 0000.0001)                 2.842862532064524E+05,      /* J = 11 */
(PID.TID 0000.0001)                 2.899590699694043E+05,      /* J = 12 */
(PID.TID 0000.0001)                 2.944742915095688E+05,      /* J = 13 */
(PID.TID 0000.0001)                 2.978501920522794E+05,      /* J = 14 */
(PID.TID 0000.0001)                 3.000967749619962E+05,      /* J = 15 */
(PID.TID 0000.0001)                 3.012190981969055E+05       /* J = 16 */
(PID.TID 0000.0001)     ;
(PID.TID 0000.0001) dxG =  /* dxG(:,1,:,1) ( units: m ) */
(PID.TID 0000.0001)                 1.009837800879055E+05,      /* I =  1 */
(PID.TID 0000.0001)                 1.534505834330338E+05,      /* I =  2 */
(PID.TID 0000.0001)                 1.823321598773926E+05,      /* I =  3 */
(PID.TID 0000.0001)      . . .
(PID.TID 0000.0001)                 1.823321598773926E+05,      /* I = 94 */
(PID.TID 0000.0001)                 1.534505834330338E+05,      /* I = 95 */
(PID.TID 0000.0001)                 1.009837800879055E+05,      /* I = 96 */
(PID.TID 0000.0001)                 3.014246674484008E+05,      /* I = 97 */
(PID.TID 0000.0001)                 3.018694497480782E+05,      /* I = 98 */
(PID.TID 0000.0001)                 3.027399364062562E+05,      /* I = 99 */
(PID.TID 0000.0001)      . . .
(PID.TID 0000.0001)                 3.027399364062562E+05,      /* I =190 */
(PID.TID 0000.0001)                 3.018694497480782E+05,      /* I =191 */
(PID.TID 0000.0001)                 3.014246674484008E+05,      /* I =192 */
(PID.TID 0000.0001)                 1.009837800879055E+05,      /* I =193 */
(PID.TID 0000.0001)                 1.534505834330338E+05,      /* I =194 */
(PID.TID 0000.0001)                 1.823321598773926E+05,      /* I =195 */
(PID.TID 0000.0001)      . . .
(PID.TID 0000.0001)                 1.823321598773926E+05,      /* I =286 */
(PID.TID 0000.0001)                 1.534505834330338E+05,      /* I =287 */
(PID.TID 0000.0001)                 1.009837800879055E+05,      /* I =288 */
(PID.TID 0000.0001)                 3.014246674484008E+05,      /* I =289 */
(PID.TID 0000.0001)                 3.018694497480782E+05,      /* I =290 */
(PID.TID 0000.0001)                 3.027399364062562E+05,      /* I =291 */
(PID.TID 0000.0001)      . . .
(PID.TID 0000.0001)                 3.027399364062562E+05,      /* I =382 */
(PID.TID 0000.0001)                 3.018694497480782E+05,      /* I =383 */
(PID.TID 0000.0001)                 3.014246674484008E+05       /* I =384 */
(PID.TID 0000.0001)     ;
(PID.TID 0000.0001) dxG =  /* dxG(1,:,1,:) ( units: m ) */
(PID.TID 0000.0001)                 1.009837800879055E+05,      /* J =  1 */
(PID.TID 0000.0001)                 1.403701524205398E+05,      /* J =  2 */
(PID.TID 0000.0001)                 1.716197227386011E+05,      /* J =  3 */
(PID.TID 0000.0001)                 1.950254041626018E+05,      /* J =  4 */
(PID.TID 0000.0001)                 2.138410773065497E+05,      /* J =  5 */
(PID.TID 0000.0001)                 2.295958105911512E+05,      /* J =  6 */
(PID.TID 0000.0001)                 2.430829951739083E+05,      /* J =  7 */
(PID.TID 0000.0001)                 2.547526806712889E+05,      /* J =  8 */
(PID.TID 0000.0001)                 2.648750305193301E+05,      /* J =  9 */
(PID.TID 0000.0001)                 2.736173771018112E+05,      /* J = 10 */
(PID.TID 0000.0001)                 2.810845823202647E+05,      /* J = 11 */
(PID.TID 0000.0001)                 2.873420591008078E+05,      /* J = 12 */
(PID.TID 0000.0001)                 2.924298293668651E+05,      /* J = 13 */
(PID.TID 0000.0001)                 2.963715635865306E+05,      /* J = 14 */
(PID.TID 0000.0001)                 2.991805843171258E+05,      /* J = 15 */
(PID.TID 0000.0001)                 3.008638765647886E+05       /* J = 16 */
(PID.TID 0000.0001)     ;
(PID.TID 0000.0001) dyG =  /* dyG(:,1,:,1) ( units: m ) */
(PID.TID 0000.0001)                 1.009837800879055E+05,      /* I =  1 */
(PID.TID 0000.0001)                 1.403701524205398E+05,      /* I =  2 */
(PID.TID 0000.0001)                 1.716197227386011E+05,      /* I =  3 */
(PID.TID 0000.0001)      . . .
(PID.TID 0000.0001)                 1.950254041626018E+05,      /* I = 94 */
(PID.TID 0000.0001)                 1.716197227386011E+05,      /* I = 95 */
(PID.TID 0000.0001)                 1.403701524205398E+05,      /* I = 96 */
(PID.TID 0000.0001)                 3.011625828699101E+05,      /* I = 97 */
(PID.TID 0000.0001)                 3.013880313304323E+05,      /* I = 98 */
(PID.TID 0000.0001)                 3.020546438966793E+05,      /* I = 99 */
(PID.TID 0000.0001)      . . .
(PID.TID 0000.0001)                 3.031337933484788E+05,      /* I =190 */
(PID.TID 0000.0001)                 3.020546438966793E+05,      /* I =191 */
(PID.TID 0000.0001)                 3.013880313304323E+05,      /* I =192 */
(PID.TID 0000.0001)                 1.009837800879055E+05,      /* I =193 */
(PID.TID 0000.0001)                 1.403701524205398E+05,      /* I =194 */
(PID.TID 0000.0001)                 1.716197227386011E+05,      /* I =195 */
(PID.TID 0000.0001)      . . .
(PID.TID 0000.0001)                 1.950254041626018E+05,      /* I =286 */
(PID.TID 0000.0001)                 1.716197227386011E+05,      /* I =287 */
(PID.TID 0000.0001)                 1.403701524205398E+05,      /* I =288 */
(PID.TID 0000.0001)                 3.011625828699101E+05,      /* I =289 */
(PID.TID 0000.0001)                 3.013880313304323E+05,      /* I =290 */
(PID.TID 0000.0001)                 3.020546438966793E+05,      /* I =291 */
(PID.TID 0000.0001)      . . .
(PID.TID 0000.0001)                 3.031337933484788E+05,      /* I =382 */
(PID.TID 0000.0001)                 3.020546438966793E+05,      /* I =383 */
(PID.TID 0000.0001)                 3.013880313304323E+05       /* I =384 */
(PID.TID 0000.0001)     ;
(PID.TID 0000.0001) dyG =  /* dyG(1,:,1,:) ( units: m ) */
(PID.TID 0000.0001)                 1.009837800879055E+05,      /* J =  1 */
(PID.TID 0000.0001)                 1.534505834330338E+05,      /* J =  2 */
(PID.TID 0000.0001)                 1.823321598773926E+05,      /* J =  3 */
(PID.TID 0000.0001)                 2.038999045536999E+05,      /* J =  4 */
(PID.TID 0000.0001)                 2.213884732245467E+05,      /* J =  5 */
(PID.TID 0000.0001)                 2.361211699596122E+05,      /* J =  6 */
(PID.TID 0000.0001)                 2.487693460283865E+05,      /* J =  7 */
(PID.TID 0000.0001)                 2.597126963772147E+05,      /* J =  8 */
(PID.TID 0000.0001)                 2.691790288994575E+05,      /* J =  9 */
(PID.TID 0000.0001)                 2.773091043277394E+05,      /* J = 10 */
(PID.TID 0000.0001)                 2.841906470085516E+05,      /* J = 11 */
(PID.TID 0000.0001)                 2.898778860929753E+05,      /* J = 12 */
(PID.TID 0000.0001)                 2.944035815526416E+05,      /* J = 13 */
(PID.TID 0000.0001)                 2.977867909042096E+05,      /* J = 14 */
(PID.TID 0000.0001)                 3.000380090330854E+05,      /* J = 15 */
(PID.TID 0000.0001)                 3.011625828699101E+05       /* J = 16 */
(PID.TID 0000.0001)     ;
(PID.TID 0000.0001) dxC =  /* dxC(:,1,:,1) ( units: m ) */
(PID.TID 0000.0001)                 1.114203141013064E+05,      /* I =  1 */
(PID.TID 0000.0001)                 1.391343389937106E+05,      /* I =  2 */
(PID.TID 0000.0001)                 1.709574999026266E+05,      /* I =  3 */
(PID.TID 0000.0001)      . . .
(PID.TID 0000.0001)                 1.946503699269892E+05,      /* I = 94 */
(PID.TID 0000.0001)                 1.709574999026266E+05,      /* I = 95 */
(PID.TID 0000.0001)                 1.391343389937106E+05,      /* I = 96 */
(PID.TID 0000.0001)                 3.012281885409289E+05,      /* I = 97 */
(PID.TID 0000.0001)                 3.014528555318499E+05,      /* I = 98 */
(PID.TID 0000.0001)                 3.021172674809921E+05,      /* I = 99 */
(PID.TID 0000.0001)      . . .
(PID.TID 0000.0001)                 3.031928954490276E+05,      /* I =190 */
(PID.TID 0000.0001)                 3.021172674809921E+05,      /* I =191 */
(PID.TID 0000.0001)                 3.014528555318499E+05,      /* I =192 */
(PID.TID 0000.0001)                 1.114203141013064E+05,      /* I =193 */
(PID.TID 0000.0001)                 1.391343389937106E+05,      /* I =194 */
(PID.TID 0000.0001)                 1.709574999026266E+05,      /* I =195 */
(PID.TID 0000.0001)      . . .
(PID.TID 0000.0001)                 1.946503699269892E+05,      /* I =286 */
(PID.TID 0000.0001)                 1.709574999026266E+05,      /* I =287 */
(PID.TID 0000.0001)                 1.391343389937106E+05,      /* I =288 */
(PID.TID 0000.0001)                 3.012281885409289E+05,      /* I =289 */
(PID.TID 0000.0001)                 3.014528555318499E+05,      /* I =290 */
(PID.TID 0000.0001)                 3.021172674809921E+05,      /* I =291 */
(PID.TID 0000.0001)      . . .
(PID.TID 0000.0001)                 3.031928954490276E+05,      /* I =382 */
(PID.TID 0000.0001)                 3.021172674809921E+05,      /* I =383 */
(PID.TID 0000.0001)                 3.014528555318499E+05       /* I =384 */
(PID.TID 0000.0001)     ;
(PID.TID 0000.0001) dxC =  /* dxC(1,:,1,:) ( units: m ) */
(PID.TID 0000.0001)                 1.114203141013064E+05,      /* J =  1 */
(PID.TID 0000.0001)                 1.549545757850771E+05,      /* J =  2 */
(PID.TID 0000.0001)                 1.829777599966776E+05,      /* J =  3 */
(PID.TID 0000.0001)                 2.042717761866506E+05,      /* J =  4 */
(PID.TID 0000.0001)                 2.216367828252819E+05,      /* J =  5 */
(PID.TID 0000.0001)                 2.363029564123586E+05,      /* J =  6 */
(PID.TID 0000.0001)                 2.489113743322025E+05,      /* J =  7 */
(PID.TID 0000.0001)                 2.598293319150326E+05,      /* J =  8 */
(PID.TID 0000.0001)                 2.692787333338535E+05,      /* J =  9 */
(PID.TID 0000.0001)                 2.773972106720365E+05,      /* J = 10 */
(PID.TID 0000.0001)                 2.842706922224557E+05,      /* J = 11 */
(PID.TID 0000.0001)                 2.899523122489403E+05,      /* J = 12 */
(PID.TID 0000.0001)                 2.944741346384699E+05,      /* J = 13 */
(PID.TID 0000.0001)                 2.978547649292580E+05,      /* J = 14 */
(PID.TID 0000.0001)                 3.001044073506459E+05,      /* J = 15 */
(PID.TID 0000.0001)                 3.012281885409289E+05       /* J = 16 */
(PID.TID 0000.0001)     ;
(PID.TID 0000.0001) dyC =  /* dyC(:,1,:,1) ( units: m ) */
(PID.TID 0000.0001)                 1.114203141013064E+05,      /* I =  1 */
(PID.TID 0000.0001)                 1.549545757850771E+05,      /* I =  2 */
(PID.TID 0000.0001)                 1.829777599966776E+05,      /* I =  3 */
(PID.TID 0000.0001)      . . .
(PID.TID 0000.0001)                 1.829777599966776E+05,      /* I = 94 */
(PID.TID 0000.0001)                 1.549545757850771E+05,      /* I = 95 */
(PID.TID 0000.0001)                 1.114203141013064E+05,      /* I = 96 */
(PID.TID 0000.0001)                 3.013593857228136E+05,      /* I = 97 */
(PID.TID 0000.0001)                 3.018056440786431E+05,      /* I = 98 */
(PID.TID 0000.0001)                 3.026789946729719E+05,      /* I = 99 */
(PID.TID 0000.0001)      . . .
(PID.TID 0000.0001)                 3.026789946729719E+05,      /* I =190 */
(PID.TID 0000.0001)                 3.018056440786431E+05,      /* I =191 */
(PID.TID 0000.0001)                 3.013593857228136E+05,      /* I =192 */
(PID.TID 0000.0001)                 1.114203141013064E+05,      /* I =193 */
(PID.TID 0000.0001)                 1.549545757850771E+05,      /* I =194 */
(PID.TID 0000.0001)                 1.829777599966776E+05,      /* I =195 */
(PID.TID 0000.0001)      . . .
(PID.TID 0000.0001)                 1.829777599966776E+05,      /* I =286 */
(PID.TID 0000.0001)                 1.549545757850771E+05,      /* I =287 */
(PID.TID 0000.0001)                 1.114203141013064E+05,      /* I =288 */
(PID.TID 0000.0001)                 3.013593857228136E+05,      /* I =289 */
(PID.TID 0000.0001)                 3.018056440786431E+05,      /* I =290 */
(PID.TID 0000.0001)                 3.026789946729719E+05,      /* I =291 */
(PID.TID 0000.0001)      . . .
(PID.TID 0000.0001)                 3.026789946729719E+05,      /* I =382 */
(PID.TID 0000.0001)                 3.018056440786431E+05,      /* I =383 */
(PID.TID 0000.0001)                 3.013593857228136E+05       /* I =384 */
(PID.TID 0000.0001)     ;
(PID.TID 0000.0001) dyC =  /* dyC(1,:,1,:) ( units: m ) */
(PID.TID 0000.0001)                 1.114203141013064E+05,      /* J =  1 */
(PID.TID 0000.0001)                 1.391343389937106E+05,      /* J =  2 */
(PID.TID 0000.0001)                 1.709574999026266E+05,      /* J =  3 */
(PID.TID 0000.0001)                 1.946503699269892E+05,      /* J =  4 */
(PID.TID 0000.0001)                 2.135964483342134E+05,      /* J =  5 */
(PID.TID 0000.0001)                 2.294195678257306E+05,      /* J =  6 */
(PID.TID 0000.0001)                 2.429464709770498E+05,      /* J =  7 */
(PID.TID 0000.0001)                 2.546408290696998E+05,      /* J =  8 */
(PID.TID 0000.0001)                 2.647791839299727E+05,      /* J =  9 */
(PID.TID 0000.0001)                 2.735321911346108E+05,      /* J = 10 */
(PID.TID 0000.0001)                 2.810065951609633E+05,      /* J = 11 */
(PID.TID 0000.0001)                 2.872689479506990E+05,      /* J = 12 */
(PID.TID 0000.0001)                 2.923599955312932E+05,      /* J = 13 */
(PID.TID 0000.0001)                 2.963038832565530E+05,      /* J = 14 */
(PID.TID 0000.0001)                 2.991142470004740E+05,      /* J = 15 */
(PID.TID 0000.0001)                 3.007982711627968E+05       /* J = 16 */
(PID.TID 0000.0001)     ;
(PID.TID 0000.0001) dxV =  /* dxV(:,1,:,1) ( units: m ) */
(PID.TID 0000.0001)                 8.015229982413632E+04,      /* I =  1 */
(PID.TID 0000.0001)                 1.333130744933864E+05,      /* I =  2 */
(PID.TID 0000.0001)                 1.691744868129062E+05,      /* I =  3 */
(PID.TID 0000.0001)      . . .
(PID.TID 0000.0001)                 1.937548202849060E+05,      /* I = 94 */
(PID.TID 0000.0001)                 1.691744868129062E+05,      /* I = 95 */
(PID.TID 0000.0001)                 1.333130744933864E+05,      /* I = 96 */
(PID.TID 0000.0001)                 3.013686170436881E+05,      /* I = 97 */
(PID.TID 0000.0001)                 3.015922136961168E+05,      /* I = 98 */
(PID.TID 0000.0001)                 3.022533948177109E+05,      /* I = 99 */
(PID.TID 0000.0001)      . . .
(PID.TID 0000.0001)                 3.033238888442880E+05,      /* I =190 */
(PID.TID 0000.0001)                 3.022533948177109E+05,      /* I =191 */
(PID.TID 0000.0001)                 3.015922136961168E+05,      /* I =192 */
(PID.TID 0000.0001)                 8.015229982413632E+04,      /* I =193 */
(PID.TID 0000.0001)                 1.333130744933864E+05,      /* I =194 */
(PID.TID 0000.0001)                 1.691744868129062E+05,      /* I =195 */
(PID.TID 0000.0001)      . . .
(PID.TID 0000.0001)                 1.937548202849060E+05,      /* I =286 */
(PID.TID 0000.0001)                 1.691744868129062E+05,      /* I =287 */
(PID.TID 0000.0001)                 1.333130744933864E+05,      /* I =288 */
(PID.TID 0000.0001)                 3.013686170436881E+05,      /* I =289 */
(PID.TID 0000.0001)                 3.015922136961168E+05,      /* I =290 */
(PID.TID 0000.0001)                 3.022533948177109E+05,      /* I =291 */
(PID.TID 0000.0001)      . . .
(PID.TID 0000.0001)                 3.033238888442880E+05,      /* I =382 */
(PID.TID 0000.0001)                 3.022533948177109E+05,      /* I =383 */
(PID.TID 0000.0001)                 3.015922136961168E+05       /* I =384 */
(PID.TID 0000.0001)     ;
(PID.TID 0000.0001) dxV =  /* dxV(1,:,1,:) ( units: m ) */
(PID.TID 0000.0001)                 8.015229982413632E+04,      /* J =  1 */
(PID.TID 0000.0001)                 1.362652340208229E+05,      /* J =  2 */
(PID.TID 0000.0001)                 1.701080315742101E+05,      /* J =  3 */
(PID.TID 0000.0001)                 1.942331448101592E+05,      /* J =  4 */
(PID.TID 0000.0001)                 2.133486626971531E+05,      /* J =  5 */
(PID.TID 0000.0001)                 2.292584591272880E+05,      /* J =  6 */
(PID.TID 0000.0001)                 2.428369969078989E+05,      /* J =  7 */
(PID.TID 0000.0001)                 2.545652950875683E+05,      /* J =  8 */
(PID.TID 0000.0001)                 2.647274964828301E+05,      /* J =  9 */
(PID.TID 0000.0001)                 2.734980225206389E+05,      /* J = 10 */
(PID.TID 0000.0001)                 2.809856491525217E+05,      /* J = 11 */
(PID.TID 0000.0001)                 2.872580915202295E+05,      /* J = 12 */
(PID.TID 0000.0001)                 2.923567890694162E+05,      /* J = 13 */
(PID.TID 0000.0001)                 2.963063101754721E+05,      /* J = 14 */
(PID.TID 0000.0001)                 2.991205495886625E+05,      /* J = 15 */
(PID.TID 0000.0001)                 3.008068453676764E+05       /* J = 16 */
(PID.TID 0000.0001)     ;
(PID.TID 0000.0001) dyU =  /* dyU(:,1,:,1) ( units: m ) */
(PID.TID 0000.0001)                 8.015229982413632E+04,      /* I =  1 */
(PID.TID 0000.0001)                 1.362652340208229E+05,      /* I =  2 */
(PID.TID 0000.0001)                 1.701080315742101E+05,      /* I =  3 */
(PID.TID 0000.0001)      . . .
(PID.TID 0000.0001)                 1.942331448101592E+05,      /* I = 94 */
(PID.TID 0000.0001)                 1.701080315742101E+05,      /* I = 95 */
(PID.TID 0000.0001)                 1.362652340208229E+05,      /* I = 96 */
(PID.TID 0000.0001)                 3.013031486919771E+05,      /* I = 97 */
(PID.TID 0000.0001)                 3.015274890091515E+05,      /* I = 98 */
(PID.TID 0000.0001)                 3.021908563699420E+05,      /* I = 99 */
(PID.TID 0000.0001)      . . .
(PID.TID 0000.0001)                 3.032648502024415E+05,      /* I =190 */
(PID.TID 0000.0001)                 3.021908563699420E+05,      /* I =191 */
(PID.TID 0000.0001)                 3.015274890091515E+05,      /* I =192 */
(PID.TID 0000.0001)                 8.015229982413632E+04,      /* I =193 */
(PID.TID 0000.0001)                 1.362652340208229E+05,      /* I =194 */
(PID.TID 0000.0001)                 1.701080315742101E+05,      /* I =195 */
(PID.TID 0000.0001)      . . .
(PID.TID 0000.0001)                 1.942331448101592E+05,      /* I =286 */
(PID.TID 0000.0001)                 1.701080315742101E+05,      /* I =287 */
(PID.TID 0000.0001)                 1.362652340208229E+05,      /* I =288 */
(PID.TID 0000.0001)                 3.013031486919771E+05,      /* I =289 */
(PID.TID 0000.0001)                 3.015274890091515E+05,      /* I =290 */
(PID.TID 0000.0001)                 3.021908563699420E+05,      /* I =291 */
(PID.TID 0000.0001)      . . .
(PID.TID 0000.0001)                 3.032648502024415E+05,      /* I =382 */
(PID.TID 0000.0001)                 3.021908563699420E+05,      /* I =383 */
(PID.TID 0000.0001)                 3.015274890091515E+05       /* I =384 */
(PID.TID 0000.0001)     ;
(PID.TID 0000.0001) dyU =  /* dyU(1,:,1,:) ( units: m ) */
(PID.TID 0000.0001)                 8.015229982413632E+04,      /* J =  1 */
(PID.TID 0000.0001)                 1.333130744933864E+05,      /* J =  2 */
(PID.TID 0000.0001)                 1.691744868129062E+05,      /* J =  3 */
(PID.TID 0000.0001)                 1.937548202849060E+05,      /* J =  4 */
(PID.TID 0000.0001)                 2.130490056267208E+05,      /* J =  5 */
(PID.TID 0000.0001)                 2.290479919481738E+05,      /* J =  6 */
(PID.TID 0000.0001)                 2.426774358027003E+05,      /* J =  7 */
(PID.TID 0000.0001)                 2.544372984215561E+05,      /* J =  8 */
(PID.TID 0000.0001)                 2.646201463834826E+05,      /* J =  9 */
(PID.TID 0000.0001)                 2.734046499619031E+05,      /* J = 10 */
(PID.TID 0000.0001)                 2.809019351693761E+05,      /* J = 11 */
(PID.TID 0000.0001)                 2.871811105274442E+05,      /* J = 12 */
(PID.TID 0000.0001)                 2.922844849381675E+05,      /* J = 13 */
(PID.TID 0000.0001)                 2.962371870847826E+05,      /* J = 14 */
(PID.TID 0000.0001)                 2.990534755671296E+05,      /* J = 15 */
(PID.TID 0000.0001)                 3.007409169495504E+05       /* J = 16 */
(PID.TID 0000.0001)     ;
(PID.TID 0000.0001) rA  =  /* rA (:,1,:,1) ( units: m^2 ) */
(PID.TID 0000.0001)                 1.401900702255611E+10,      /* I =  1 */
(PID.TID 0000.0001)                 2.459906945574446E+10,      /* I =  2 */
(PID.TID 0000.0001)                 3.378518544307869E+10,      /* I =  3 */
(PID.TID 0000.0001)      . . .
(PID.TID 0000.0001)                 3.378518544304265E+10,      /* I = 94 */
(PID.TID 0000.0001)                 2.459906945574446E+10,      /* I = 95 */
(PID.TID 0000.0001)                 1.401900702259215E+10,      /* I = 96 */
(PID.TID 0000.0001)                 9.076111290422060E+10,      /* I = 97 */
(PID.TID 0000.0001)                 9.103111035233499E+10,      /* I = 98 */
(PID.TID 0000.0001)                 9.156064070993231E+10,      /* I = 99 */
(PID.TID 0000.0001)      . . .
(PID.TID 0000.0001)                 9.156064070993231E+10,      /* I =190 */
(PID.TID 0000.0001)                 9.103111035233499E+10,      /* I =191 */
(PID.TID 0000.0001)                 9.076111290418457E+10,      /* I =192 */
(PID.TID 0000.0001)                 1.401900702255611E+10,      /* I =193 */
(PID.TID 0000.0001)                 2.459906945574446E+10,      /* I =194 */
(PID.TID 0000.0001)                 3.378518544307869E+10,      /* I =195 */
(PID.TID 0000.0001)      . . .
(PID.TID 0000.0001)                 3.378518544304265E+10,      /* I =286 */
(PID.TID 0000.0001)                 2.459906945574446E+10,      /* I =287 */
(PID.TID 0000.0001)                 1.401900702259215E+10,      /* I =288 */
(PID.TID 0000.0001)                 9.076111290422060E+10,      /* I =289 */
(PID.TID 0000.0001)                 9.103111035233499E+10,      /* I =290 */
(PID.TID 0000.0001)                 9.156064070993231E+10,      /* I =291 */
(PID.TID 0000.0001)      . . .
(PID.TID 0000.0001)                 9.156064070993231E+10,      /* I =382 */
(PID.TID 0000.0001)                 9.103111035233499E+10,      /* I =383 */
(PID.TID 0000.0001)                 9.076111290418457E+10       /* I =384 */
(PID.TID 0000.0001)     ;
(PID.TID 0000.0001) rA  =  /* rA (1,:,1,:) ( units: m^2 ) */
(PID.TID 0000.0001)                 1.401900702255611E+10,      /* J =  1 */
(PID.TID 0000.0001)                 2.459906945574446E+10,      /* J =  2 */
(PID.TID 0000.0001)                 3.378518544307869E+10,      /* J =  3 */
(PID.TID 0000.0001)                 4.192037169898667E+10,      /* J =  4 */
(PID.TID 0000.0001)                 4.925938996118163E+10,      /* J =  5 */
(PID.TID 0000.0001)                 5.594154126607553E+10,      /* J =  6 */
(PID.TID 0000.0001)                 6.203683527776127E+10,      /* J =  7 */
(PID.TID 0000.0001)                 6.757541173817516E+10,      /* J =  8 */
(PID.TID 0000.0001)                 7.256353271748119E+10,      /* J =  9 */
(PID.TID 0000.0001)                 7.699293007098555E+10,      /* J = 10 */
(PID.TID 0000.0001)                 8.084683449728902E+10,      /* J = 11 */
(PID.TID 0000.0001)                 8.410423102799828E+10,      /* J = 12 */
(PID.TID 0000.0001)                 8.674306976737517E+10,      /* J = 13 */
(PID.TID 0000.0001)                 8.874277443041928E+10,      /* J = 14 */
(PID.TID 0000.0001)                 9.008620045350865E+10,      /* J = 15 */
(PID.TID 0000.0001)                 9.076111290418457E+10       /* J = 16 */
(PID.TID 0000.0001)     ;
(PID.TID 0000.0001) rAw =  /* rAw(:,1,:,1) ( units: m^2 ) */
(PID.TID 0000.0001)                 1.216690346714270E+10,      /* I =  1 */
(PID.TID 0000.0001)                 1.974052138506315E+10,      /* I =  2 */
(PID.TID 0000.0001)                 2.943712825252015E+10,      /* I =  3 */
(PID.TID 0000.0001)      . . .
(PID.TID 0000.0001)                 3.801790263325260E+10,      /* I = 94 */
(PID.TID 0000.0001)                 2.943712825251114E+10,      /* I = 95 */
(PID.TID 0000.0001)                 1.974052138509018E+10,      /* I = 96 */
(PID.TID 0000.0001)                 9.071447638299399E+10,      /* I = 97 */
(PID.TID 0000.0001)                 9.085012105610597E+10,      /* I = 98 */
(PID.TID 0000.0001)                 9.125179254955583E+10,      /* I = 99 */
(PID.TID 0000.0001)      . . .
(PID.TID 0000.0001)                 9.190392048045309E+10,      /* I =190 */
(PID.TID 0000.0001)                 9.125179254954683E+10,      /* I =191 */
(PID.TID 0000.0001)                 9.085012105606993E+10,      /* I =192 */
(PID.TID 0000.0001)                 1.216690346714270E+10,      /* I =193 */
(PID.TID 0000.0001)                 1.974052138506315E+10,      /* I =194 */
(PID.TID 0000.0001)                 2.943712825252015E+10,      /* I =195 */
(PID.TID 0000.0001)      . . .
(PID.TID 0000.0001)                 3.801790263325260E+10,      /* I =286 */
(PID.TID 0000.0001)                 2.943712825251114E+10,      /* I =287 */
(PID.TID 0000.0001)                 1.974052138509018E+10,      /* I =288 */
(PID.TID 0000.0001)                 9.071447638299399E+10,      /* I =289 */
(PID.TID 0000.0001)                 9.085012105610597E+10,      /* I =290 */
(PID.TID 0000.0001)                 9.125179254955583E+10,      /* I =291 */
(PID.TID 0000.0001)      . . .
(PID.TID 0000.0001)                 9.190392048045309E+10,      /* I =382 */
(PID.TID 0000.0001)                 9.125179254954683E+10,      /* I =383 */
(PID.TID 0000.0001)                 9.085012105606993E+10       /* I =384 */
(PID.TID 0000.0001)     ;
(PID.TID 0000.0001) rAw =  /* rAw(1,:,1,:) ( units: m^2 ) */
(PID.TID 0000.0001)                 1.216690346714270E+10,      /* J =  1 */
(PID.TID 0000.0001)                 2.390126200743558E+10,      /* J =  2 */
(PID.TID 0000.0001)                 3.341968103208270E+10,      /* J =  3 */
(PID.TID 0000.0001)                 4.168532893152940E+10,      /* J =  4 */
(PID.TID 0000.0001)                 4.909074590409593E+10,      /* J =  5 */
(PID.TID 0000.0001)                 5.581203765722643E+10,      /* J =  6 */
(PID.TID 0000.0001)                 6.193257577506788E+10,      /* J =  7 */
(PID.TID 0000.0001)                 6.748840226738273E+10,      /* J =  8 */
(PID.TID 0000.0001)                 7.248875782324815E+10,      /* J =  9 */
(PID.TID 0000.0001)                 7.692702995909871E+10,      /* J = 10 */
(PID.TID 0000.0001)                 8.078743937057304E+10,      /* J = 11 */
(PID.TID 0000.0001)                 8.404959656062837E+10,      /* J = 12 */
(PID.TID 0000.0001)                 8.669186205742538E+10,      /* J = 13 */
(PID.TID 0000.0001)                 8.869393350723613E+10,      /* J = 14 */
(PID.TID 0000.0001)                 9.003884657168852E+10,      /* J = 15 */
(PID.TID 0000.0001)                 9.071447638299399E+10       /* J = 16 */
(PID.TID 0000.0001)     ;
(PID.TID 0000.0001) rAs =  /* rAs(:,1,:,1) ( units: m^2 ) */
(PID.TID 0000.0001)                 1.216690346714270E+10,      /* I =  1 */
(PID.TID 0000.0001)                 2.390126200743558E+10,      /* I =  2 */
(PID.TID 0000.0001)                 3.341968103208270E+10,      /* I =  3 */
(PID.TID 0000.0001)      . . .
(PID.TID 0000.0001)                 3.341968103208270E+10,      /* I = 94 */
(PID.TID 0000.0001)                 2.390126200743558E+10,      /* I = 95 */
(PID.TID 0000.0001)                 1.216690346714270E+10,      /* I = 96 */
(PID.TID 0000.0001)                 9.083293515008307E+10,      /* I = 97 */
(PID.TID 0000.0001)                 9.110170898494536E+10,      /* I = 98 */
(PID.TID 0000.0001)                 9.162886297688426E+10,      /* I = 99 */
(PID.TID 0000.0001)      . . .
(PID.TID 0000.0001)                 9.162886297688426E+10,      /* I =190 */
(PID.TID 0000.0001)                 9.110170898494536E+10,      /* I =191 */
(PID.TID 0000.0001)                 9.083293515008307E+10,      /* I =192 */
(PID.TID 0000.0001)                 1.216690346714270E+10,      /* I =193 */
(PID.TID 0000.0001)                 2.390126200743558E+10,      /* I =194 */
(PID.TID 0000.0001)                 3.341968103208270E+10,      /* I =195 */
(PID.TID 0000.0001)      . . .
(PID.TID 0000.0001)                 3.341968103208270E+10,      /* I =286 */
(PID.TID 0000.0001)                 2.390126200743558E+10,      /* I =287 */
(PID.TID 0000.0001)                 1.216690346714270E+10,      /* I =288 */
(PID.TID 0000.0001)                 9.083293515008307E+10,      /* I =289 */
(PID.TID 0000.0001)                 9.110170898494536E+10,      /* I =290 */
(PID.TID 0000.0001)                 9.162886297688426E+10,      /* I =291 */
(PID.TID 0000.0001)      . . .
(PID.TID 0000.0001)                 9.162886297688426E+10,      /* I =382 */
(PID.TID 0000.0001)                 9.110170898494536E+10,      /* I =383 */
(PID.TID 0000.0001)                 9.083293515008307E+10       /* I =384 */
(PID.TID 0000.0001)     ;
(PID.TID 0000.0001) rAs =  /* rAs(1,:,1,:) ( units: m^2 ) */
(PID.TID 0000.0001)                 1.216690346714270E+10,      /* J =  1 */
(PID.TID 0000.0001)                 1.974052138506315E+10,      /* J =  2 */
(PID.TID 0000.0001)                 2.943712825252015E+10,      /* J =  3 */
(PID.TID 0000.0001)                 3.801790263324359E+10,      /* J =  4 */
(PID.TID 0000.0001)                 4.571243814189866E+10,      /* J =  5 */
(PID.TID 0000.0001)                 5.269930713599979E+10,      /* J =  6 */
(PID.TID 0000.0001)                 5.907428494299063E+10,      /* J =  7 */
(PID.TID 0000.0001)                 6.488320895111514E+10,      /* J =  8 */
(PID.TID 0000.0001)                 7.014205907741882E+10,      /* J =  9 */
(PID.TID 0000.0001)                 7.484854821847499E+10,      /* J = 10 */
(PID.TID 0000.0001)                 7.898934631431560E+10,      /* J = 11 */
(PID.TID 0000.0001)                 8.254500894894537E+10,      /* J = 12 */
(PID.TID 0000.0001)                 8.549360686473492E+10,      /* J = 13 */
(PID.TID 0000.0001)                 8.781353403175085E+10,      /* J = 14 */
(PID.TID 0000.0001)                 8.948571540392021E+10,      /* J = 15 */
(PID.TID 0000.0001)                 9.049530583086168E+10       /* J = 16 */
(PID.TID 0000.0001)     ;
(PID.TID 0000.0001) globalArea = /* Integrated horizontal Area (m^2) */
(PID.TID 0000.0001)                 3.638867375081599E+14
(PID.TID 0000.0001)     ;
(PID.TID 0000.0001) // =======================================================
(PID.TID 0000.0001) // End of Model config. summary
(PID.TID 0000.0001) // =======================================================
(PID.TID 0000.0001) 
(PID.TID 0000.0001) == Packages configuration : Check & print summary ==
(PID.TID 0000.0001) 
(PID.TID 0000.0001) GAD_CHECK: #define ALLOW_GENERIC_ADVDIFF
(PID.TID 0000.0001) GMREDI_CHECK: #define GMREDI
(PID.TID 0000.0001) GM_AdvForm =     /* if FALSE => use SkewFlux Form */
(PID.TID 0000.0001)                   F
(PID.TID 0000.0001)     ;
(PID.TID 0000.0001) GM_InMomAsStress = /* if TRUE => apply as Eddy Stress */
(PID.TID 0000.0001)                   F
(PID.TID 0000.0001)     ;
(PID.TID 0000.0001) GM_AdvSeparate = /* Calc Bolus & Euler Adv. separately */
(PID.TID 0000.0001)                   F
(PID.TID 0000.0001)     ;
(PID.TID 0000.0001) GM_ExtraDiag =   /* Tensor Extra Diag (line 1&2) non 0 */
(PID.TID 0000.0001)                   F
(PID.TID 0000.0001)     ;
(PID.TID 0000.0001) GM_isopycK =    /* Background Isopyc. Diffusivity [m^2/s] */
(PID.TID 0000.0001)                 8.000000000000000E+02
(PID.TID 0000.0001)     ;
(PID.TID 0000.0001) GM_skewflx*K =  /* Background GM_SkewFlx Diffusivity [m^2/s] */
(PID.TID 0000.0001)                 8.000000000000000E+02
(PID.TID 0000.0001)     ;
(PID.TID 0000.0001) GM_advec*K =    /* Backg. GM-Advec(=Bolus) Diffusivity [m^2/s]*/
(PID.TID 0000.0001)                 0.000000000000000E+00
(PID.TID 0000.0001)     ;
(PID.TID 0000.0001) GM_Kmin_horiz = /* Minimum Horizontal Diffusivity [m^2/s] */
(PID.TID 0000.0001)                 0.000000000000000E+00
(PID.TID 0000.0001)     ;
(PID.TID 0000.0001) GM_Visbeck_alpha = /* Visbeck alpha coeff. [-] */
(PID.TID 0000.0001)                 0.000000000000000E+00
(PID.TID 0000.0001)     ;
(PID.TID 0000.0001) GM_Small_Number =  /* epsilon used in slope calc */
(PID.TID 0000.0001)                 9.999999999999999E-21
(PID.TID 0000.0001)     ;
(PID.TID 0000.0001) GM_slopeSqCutoff = /* Slope^2 cut-off value */
(PID.TID 0000.0001)                 1.000000000000000E+48
(PID.TID 0000.0001)     ;
(PID.TID 0000.0001) GM_taper_scheme =  /* Type of Tapering/Clipping scheme */
(PID.TID 0000.0001)               'gkw91                                   '
(PID.TID 0000.0001)     ;
(PID.TID 0000.0001) GM_maxSlope =  /* Maximum Slope (Tapering/Clipping) */
(PID.TID 0000.0001)                 1.000000000000000E-02
(PID.TID 0000.0001)     ;
(PID.TID 0000.0001) GM_facTrL2dz = /* Minimum Trans.Layer Thick. (factor of dz) */
(PID.TID 0000.0001)                 1.000000000000000E+00
(PID.TID 0000.0001)     ;
(PID.TID 0000.0001) GM_facTrL2ML = /* Max.Trans.Layer Thick. (factor of MxL Depth)*/
(PID.TID 0000.0001)                 5.000000000000000E+00
(PID.TID 0000.0001)     ;
(PID.TID 0000.0001) GM_maxTransLay = /* Maximum Transition Layer Thickness [m] */
(PID.TID 0000.0001)                 5.000000000000000E+02
(PID.TID 0000.0001)     ;
(PID.TID 0000.0001) THSICE_CHECK: #define THSICE
(PID.TID 0000.0001) // =======================================================
(PID.TID 0000.0001) // CONFIG_CHECK : Normal End
(PID.TID 0000.0001) // =======================================================
(PID.TID 0000.0001) 
(PID.TID 0000.0001)  MDS_READ_META: opening file: pickup.0000036000.meta
(PID.TID 0000.0001)  nRecords = 123 ; filePrec =  64 ; fileIter =     36000
(PID.TID 0000.0001)     nDims =   2 , dims:
(PID.TID 0000.0001)    1: 192   1 192
(PID.TID 0000.0001)    2:  32   1  32
(PID.TID 0000.0001)     nFlds =  11 , nFl3D =   8 , fields:
(PID.TID 0000.0001)  >Uvel    < >GuNm1   < >Vvel    < >GvNm1   < >Theta   < >GtNm1   < >Salt    < >GsNm1   < >EtaN    < >dEtaHdt < >EtaH    <
(PID.TID 0000.0001)   nTimRec =   0 , timeList:
(PID.TID 0000.0001) READ_MFLDS_3D_RL: read field: "Uvel    ", #   1 in fldList, rec=   1
(PID.TID 0000.0001)  MDS_READ_FIELD: opening global file: pickup.0000036000
(PID.TID 0000.0001) READ_MFLDS_3D_RL: read field: "Vvel    ", #   3 in fldList, rec=   3
(PID.TID 0000.0001)  MDS_READ_FIELD: opening global file: pickup.0000036000
(PID.TID 0000.0001) READ_MFLDS_3D_RL: read field: "Theta   ", #   5 in fldList, rec=   5
(PID.TID 0000.0001)  MDS_READ_FIELD: opening global file: pickup.0000036000
(PID.TID 0000.0001) READ_MFLDS_3D_RL: read field: "Salt    ", #   7 in fldList, rec=   7
(PID.TID 0000.0001)  MDS_READ_FIELD: opening global file: pickup.0000036000
(PID.TID 0000.0001) READ_MFLDS_3D_RL: read field: "GuNm1   ", #   2 in fldList, rec=   2
(PID.TID 0000.0001)  MDS_READ_FIELD: opening global file: pickup.0000036000
(PID.TID 0000.0001) READ_MFLDS_3D_RL: read field: "GvNm1   ", #   4 in fldList, rec=   4
(PID.TID 0000.0001)  MDS_READ_FIELD: opening global file: pickup.0000036000
(PID.TID 0000.0001) READ_MFLDS_3D_RL: read field: "GtNm1   ", #   6 in fldList, rec=   6
(PID.TID 0000.0001)  MDS_READ_FIELD: opening global file: pickup.0000036000
(PID.TID 0000.0001) READ_MFLDS_3D_RL: read field: "GsNm1   ", #   8 in fldList, rec=   8
(PID.TID 0000.0001)  MDS_READ_FIELD: opening global file: pickup.0000036000
(PID.TID 0000.0001) READ_MFLDS_3D_RL: read field: "EtaN    ", #   9 in fldList, rec= 121
(PID.TID 0000.0001)  MDS_READ_FIELD: opening global file: pickup.0000036000
(PID.TID 0000.0001) READ_MFLDS_3D_RL: read field: "dEtaHdt ", #  10 in fldList, rec= 122
(PID.TID 0000.0001)  MDS_READ_FIELD: opening global file: pickup.0000036000
(PID.TID 0000.0001) READ_MFLDS_3D_RL: read field: "EtaH    ", #  11 in fldList, rec= 123
(PID.TID 0000.0001)  MDS_READ_FIELD: opening global file: pickup.0000036000
(PID.TID 0000.0001) READ_MFLDS_CHECK: - normal end ; reset MFLDS file-name: pickup.0000036000
(PID.TID 0000.0001)  MDS_READ_FIELD: opening global file: trenberth_taux.bin
(PID.TID 0000.0001)  MDS_READ_FIELD: opening global file: trenberth_tauy.bin
(PID.TID 0000.0001)  MDS_READ_FIELD: opening global file: lev_surfT_cs_12m.bin
(PID.TID 0000.0001)  MDS_READ_FIELD: opening global file: lev_surfS_cs_12m.bin
(PID.TID 0000.0001)  write diagnostics summary to file ioUnit:      6
Iter.Nb:     36000 ; Time(s):  3.1104000000000E+09
------------------------------------------------------------------------
2D/3D diagnostics: Number of lists:     6
------------------------------------------------------------------------
listId=    1 ; file name: surfDiag
 nFlds, nActive,       freq     &     phase        , nLev               
   17  |   17  |1555200000.000000         0.000000 |   1
 levels:   1
 diag# | name   |   ipt  |  iMate | kLev|   count |   mate.C|           
    23 |ETAN    |      1 |      0 |   1 |       0 |
    24 |ETANSQ  |      2 |      0 |   1 |       0 |
    25 |DETADT2 |      3 |      0 |   1 |       0 |
    69 |PHIBOT  |      4 |      0 |   1 |       0 |
    70 |PHIBOTSQ|      5 |      0 |   1 |       0 |
    75 |oceTAUX |      6 |      7 |   1 |       0 |       0 |
    76 |oceTAUY |      7 |      6 |   1 |       0 |       0 |
    84 |TRELAX  |      8 |      0 |   1 |       0 |
    85 |SRELAX  |      9 |      0 |   1 |       0 |
    86 |surForcT|     10 |      0 |   1 |       0 |
    87 |surForcS|     11 |      0 |   1 |       0 |
    88 |TFLUX   |     12 |      0 |   1 |       0 |
    89 |SFLUX   |     13 |      0 |   1 |       0 |
    82 |oceQsw  |     14 |      0 |   1 |       0 |
    81 |oceQnet |     15 |      0 |   1 |       0 |
    80 |oceSflux|     16 |      0 |   1 |       0 |
    79 |oceFWflx|     17 |      0 |   1 |       0 |
------------------------------------------------------------------------
listId=    2 ; file name: dynDiag
 nFlds, nActive,       freq     &     phase        , nLev               
   15  |   15  |1555200000.000000         0.000000 |  15
 levels:   1   2   3   4   5   6   7   8   9  10  11  12  13  14  15
 diag# | name   |   ipt  |  iMate | kLev|   count |   mate.C|           
    30 |UVEL    |     18 |     33 |  15 |       0 |       0 |
    31 |VVEL    |     33 |     18 |  15 |       0 |       0 |
    32 |WVEL    |     48 |      0 |  15 |       0 |
    67 |PHIHYD  |     63 |      0 |  15 |       0 |
    46 |VVELMASS|     78 |     93 |  15 |       0 |       0 |
    45 |UVELMASS|     93 |     78 |  15 |       0 |       0 |
    38 |WVELSQ  |    108 |      0 |  15 |       0 |
    26 |THETA   |    123 |      0 |  15 |       0 |
    48 |UTHMASS |    138 |    153 |  15 |       0 |       0 |
    49 |VTHMASS |    153 |    138 |  15 |       0 |       0 |
    50 |WTHMASS |    168 |      0 |  15 |       0 |
    27 |SALT    |    183 |      0 |  15 |       0 |
    51 |USLTMASS|    198 |    213 |  15 |       0 |       0 |
    52 |VSLTMASS|    213 |    198 |  15 |       0 |       0 |
    53 |WSLTMASS|    228 |      0 |  15 |       0 |
------------------------------------------------------------------------
listId=    3 ; file name: thSIceDiag
 nFlds, nActive,       freq     &     phase        , nLev               
   16  |   17  |1555200000.000000         0.000000 |   1
 levels:   1
 diag# | name   |   ipt  |  iMate | kLev|   count |   mate.C|           
   192 |SI_Fract|    243 |      0 |   1 |      0(x 12) |
   193 |SI_Thick|    255 |    243 |   1 |      0(x 12) |
   194 |SI_SnowH|    267 |    243 |   1 |      0(x 12) |
   195 |SI_Tsrf |    279 |    243 |   1 |      0(x 12) |
   196 |SI_Tice1|    291 |    243 |   1 |      0(x 12) |
   197 |SI_Tice2|    303 |    243 |   1 |      0(x 12) |
   198 |SI_Qice1|    315 |    255 |   1 |      0(x 12) |
   199 |SI_Qice2|    327 |    255 |   1 |      0(x 12) |
   200 |SIsnwAge|    339 |      0 |   1 |      0(x 12) |
   203 |SIsnwPrc|    351 |    363 |   1 |      0(x 12) |
   202 |SIalbedo|    375 |    363 |   1 |      0(x 12) |
   206 |SIflx2oc|    387 |      0 |   1 |      0(x 12) |
   207 |SIfrw2oc|    399 |      0 |   1 |      0(x 12) |
   208 |SIsaltFx|    411 |      0 |   1 |      0(x 12) |
   204 |SIflxAtm|    423 |      0 |   1 |      0(x 12) |
   205 |SIfrwAtm|    435 |      0 |   1 |      0(x 12) |
   201 |SI_FrcFx|    363 |      0 |   1 |      0(x 12) |
------------------------------------------------------------------------
listId=    4 ; file name: surfInst
 nFlds, nActive,       freq     &     phase        , nLev               
    2  |    2  |   -777600.000000         0.000000 |   1
 levels:   1
 diag# | name   |   ipt  |  iMate | kLev|   count |   mate.C|           
    23 |ETAN    |    447 |      0 |   1 |       0 |
    79 |oceFWflx|    448 |      0 |   1 |       0 |
------------------------------------------------------------------------
listId=    5 ; file name: etaInst
 nFlds, nActive,       freq     &     phase        , nLev               
    1  |    1  |   -777600.000000     86400.000000 |   1
 levels:   1
 diag# | name   |   ipt  |  iMate | kLev|   count |   mate.C|           
    23 |ETAN    |    449 |      0 |   1 |       0 |
------------------------------------------------------------------------
listId=    6 ; file name: dynInst
 nFlds, nActive,       freq     &     phase        , nLev               
    2  |    2  |   -777600.000000         0.000000 |  15
 levels:   1   2   3   4   5   6   7   8   9  10  11  12  13  14  15
 diag# | name   |   ipt  |  iMate | kLev|   count |   mate.C|           
    26 |THETA   |    450 |      0 |  15 |       0 |
    27 |SALT    |    465 |      0 |  15 |       0 |
------------------------------------------------------------------------
Global & Regional Statistics diagnostics: Number of lists:     4
------------------------------------------------------------------------
listId=   1 ; file name: dynStDiag
 nFlds, nActive,       freq     &     phase        |                    
    6  |    6  |    864000.000000         0.000000 |
 Regions:   0
 diag# | name   |   ipt  |  iMate |    Volume   |   mate-Vol. |         
    23 |ETAN    |      1 |      0 | 0.00000E+00 |
    24 |ETANSQ  |      2 |      0 | 0.00000E+00 |
    25 |DETADT2 |      3 |      0 | 0.00000E+00 |
    26 |THETA   |      4 |      0 | 0.00000E+00 |
    27 |SALT    |     19 |      0 | 0.00000E+00 |
    74 |CONVADJ |     34 |      0 | 0.00000E+00 |
------------------------------------------------------------------------
listId=   2 ; file name: surfStDiag
 nFlds, nActive,       freq     &     phase        |                    
   11  |   11  |    777600.000000     86400.000000 |
 Regions:   0
 diag# | name   |   ipt  |  iMate |    Volume   |   mate-Vol. |         
    75 |oceTAUX |     49 |      0 | 0.00000E+00 |
    76 |oceTAUY |     50 |      0 | 0.00000E+00 |
    84 |TRELAX  |     51 |      0 | 0.00000E+00 |
    85 |SRELAX  |     52 |      0 | 0.00000E+00 |
    86 |surForcT|     53 |      0 | 0.00000E+00 |
    87 |surForcS|     54 |      0 | 0.00000E+00 |
    88 |TFLUX   |     55 |      0 | 0.00000E+00 |
    89 |SFLUX   |     56 |      0 | 0.00000E+00 |
    81 |oceQnet |     57 |      0 | 0.00000E+00 |
    80 |oceSflux|     58 |      0 | 0.00000E+00 |
    79 |oceFWflx|     59 |      0 | 0.00000E+00 |
------------------------------------------------------------------------
listId=   3 ; file name: instStDiag
 nFlds, nActive,       freq     &     phase        |                    
    3  |    3  |   -777600.000000     86400.000000 |
 Regions:   0
 diag# | name   |   ipt  |  iMate |    Volume   |   mate-Vol. |         
    23 |ETAN    |     60 |      0 | 0.00000E+00 |
    26 |THETA   |     61 |      0 | 0.00000E+00 |
    27 |SALT    |     76 |      0 | 0.00000E+00 |
------------------------------------------------------------------------
listId=   4 ; file name: thSIceStDiag
 nFlds, nActive,       freq     &     phase        |                    
   16  |   17  |    864000.000000         0.000000 |
 Regions:   0  1  3
 diag# | name   |   ipt  |  iMate |    Volume   |   mate-Vol. |         
   192 |SI_Fract|     91 |      0 | 0.00000E+00 |
   193 |SI_Thick|     92 |     91 | 0.00000E+00 | 0.00000E+00 |
   194 |SI_SnowH|     93 |     91 | 0.00000E+00 | 0.00000E+00 |
   195 |SI_Tsrf |     94 |     91 | 0.00000E+00 | 0.00000E+00 |
   196 |SI_Tice1|     95 |     91 | 0.00000E+00 | 0.00000E+00 |
   197 |SI_Tice2|     96 |     91 | 0.00000E+00 | 0.00000E+00 |
   198 |SI_Qice1|     97 |     92 | 0.00000E+00 | 0.00000E+00 |
   199 |SI_Qice2|     98 |     92 | 0.00000E+00 | 0.00000E+00 |
   203 |SIsnwPrc|     99 |    100 | 0.00000E+00 | 0.00000E+00 |
   202 |SIalbedo|    101 |    100 | 0.00000E+00 | 0.00000E+00 |
   200 |SIsnwAge|    102 |      0 | 0.00000E+00 |
   206 |SIflx2oc|    103 |      0 | 0.00000E+00 |
   207 |SIfrw2oc|    104 |      0 | 0.00000E+00 |
   208 |SIsaltFx|    105 |      0 | 0.00000E+00 |
   204 |SIflxAtm|    106 |      0 | 0.00000E+00 |
   205 |SIfrwAtm|    107 |      0 | 0.00000E+00 |
   201 |SI_FrcFx|    100 |      0 | 0.00000E+00 |
------------------------------------------------------------------------
(PID.TID 0000.0001)  MDS_READ_FIELD: opening global file: pickup_ic.0000036000
(PID.TID 0000.0001)  MDS_READ_FIELD: opening global file: pickup_ic.0000036000
(PID.TID 0000.0001)  MDS_READ_FIELD: opening global file: pickup_ic.0000036000
(PID.TID 0000.0001)  MDS_READ_FIELD: opening global file: pickup_ic.0000036000
(PID.TID 0000.0001)  MDS_READ_FIELD: opening global file: pickup_ic.0000036000
(PID.TID 0000.0001)  MDS_READ_FIELD: opening global file: pickup_ic.0000036000
(PID.TID 0000.0001)  MDS_READ_FIELD: opening global file: pickup_ic.0000036000
(PID.TID 0000.0001)  MDS_READ_FIELD: opening global file: pickup_ic.0000036000
(PID.TID 0000.0001)  MDS_READ_FIELD: opening global file: pickup_ic.0000036000
(PID.TID 0000.0001) // =======================================================
(PID.TID 0000.0001) // Model current state
(PID.TID 0000.0001) // =======================================================
(PID.TID 0000.0001) 
(PID.TID 0000.0001) // =======================================================
(PID.TID 0000.0001) // Begin MONITOR dynamic field statistics
(PID.TID 0000.0001) // =======================================================
(PID.TID 0000.0001) %MON time_tsnumber                =                 36000
(PID.TID 0000.0001) %MON time_secondsf                =   3.1104000000000E+09
(PID.TID 0000.0001) %MON dynstat_eta_max              =   7.3500434503471E-01
(PID.TID 0000.0001) %MON dynstat_eta_min              =  -1.1986891348601E+01
(PID.TID 0000.0001) %MON dynstat_eta_mean             =  -5.8045564487853E-01
(PID.TID 0000.0001) %MON dynstat_eta_sd               =   1.6994311255501E+00
(PID.TID 0000.0001) %MON dynstat_eta_del2             =   9.6453306471101E-02
(PID.TID 0000.0001) %MON dynstat_uvel_max             =   1.7235154042170E-01
(PID.TID 0000.0001) %MON dynstat_uvel_min             =  -2.7145887709522E-01
(PID.TID 0000.0001) %MON dynstat_uvel_mean            =  -5.2887824837157E-04
(PID.TID 0000.0001) %MON dynstat_uvel_sd              =   1.2989468965472E-02
(PID.TID 0000.0001) %MON dynstat_uvel_del2            =   1.7920186340225E-03
(PID.TID 0000.0001) %MON dynstat_vvel_max             =   1.9306786753954E-01
(PID.TID 0000.0001) %MON dynstat_vvel_min             =  -2.1050631286072E-01
(PID.TID 0000.0001) %MON dynstat_vvel_mean            =  -4.2470116939793E-04
(PID.TID 0000.0001) %MON dynstat_vvel_sd              =   1.3472945317820E-02
(PID.TID 0000.0001) %MON dynstat_vvel_del2            =   1.8319026986974E-03
(PID.TID 0000.0001) %MON dynstat_wvel_max             =   8.3888727589247E-05
(PID.TID 0000.0001) %MON dynstat_wvel_min             =  -1.7681850941337E-04
(PID.TID 0000.0001) %MON dynstat_wvel_mean            =  -1.2631701181817E-09
(PID.TID 0000.0001) %MON dynstat_wvel_sd              =   4.6274614748344E-06
(PID.TID 0000.0001) %MON dynstat_wvel_del2            =   1.1378775396729E-06
(PID.TID 0000.0001) %MON dynstat_theta_max            =   3.0162021109834E+01
(PID.TID 0000.0001) %MON dynstat_theta_min            =  -5.5087736803077E+00
(PID.TID 0000.0001) %MON dynstat_theta_mean           =   3.5027154873320E+00
(PID.TID 0000.0001) %MON dynstat_theta_sd             =   4.7490175075967E+00
(PID.TID 0000.0001) %MON dynstat_theta_del2           =   9.5106365389722E-02
(PID.TID 0000.0001) %MON dynstat_salt_max             =   4.0815425249776E+01
(PID.TID 0000.0001) %MON dynstat_salt_min             =   1.8030178312691E+01
(PID.TID 0000.0001) %MON dynstat_salt_mean            =   3.4756092396968E+01
(PID.TID 0000.0001) %MON dynstat_salt_sd              =   5.1193688315107E-01
(PID.TID 0000.0001) %MON dynstat_salt_del2            =   2.0020089713970E-02
(PID.TID 0000.0001) %MON extforcing_qnet_max          =   0.0000000000000E+00
(PID.TID 0000.0001) %MON extforcing_qnet_min          =   0.0000000000000E+00
(PID.TID 0000.0001) %MON extforcing_qnet_mean         =   0.0000000000000E+00
(PID.TID 0000.0001) %MON extforcing_qnet_sd           =   0.0000000000000E+00
(PID.TID 0000.0001) %MON extforcing_qnet_del2         =   0.0000000000000E+00
(PID.TID 0000.0001) %MON extforcing_qsw_max           =   0.0000000000000E+00
(PID.TID 0000.0001) %MON extforcing_qsw_min           =   0.0000000000000E+00
(PID.TID 0000.0001) %MON extforcing_qsw_mean          =   0.0000000000000E+00
(PID.TID 0000.0001) %MON extforcing_qsw_sd            =   0.0000000000000E+00
(PID.TID 0000.0001) %MON extforcing_qsw_del2          =   0.0000000000000E+00
(PID.TID 0000.0001) %MON extforcing_empmr_max         =   0.0000000000000E+00
(PID.TID 0000.0001) %MON extforcing_empmr_min         =   0.0000000000000E+00
(PID.TID 0000.0001) %MON extforcing_empmr_mean        =   0.0000000000000E+00
(PID.TID 0000.0001) %MON extforcing_empmr_sd          =   0.0000000000000E+00
(PID.TID 0000.0001) %MON extforcing_empmr_del2        =   0.0000000000000E+00
(PID.TID 0000.0001) %MON advcfl_uvel_max              =   7.6990886762546E-02
(PID.TID 0000.0001) %MON advcfl_vvel_max              =   8.4155563479013E-02
(PID.TID 0000.0001) %MON advcfl_wvel_max              =   5.7649506465342E-02
(PID.TID 0000.0001) %MON advcfl_W_hf_max              =   6.5892167239956E-02
(PID.TID 0000.0001) %MON pe_b_mean                    =   4.2969665467446E-03
(PID.TID 0000.0001) %MON ke_max                       =   3.6920742855791E-02
(PID.TID 0000.0001) %MON ke_mean                      =   1.6194090277160E-04
(PID.TID 0000.0001) %MON ke_vol                       =   1.3395912415612E+18
(PID.TID 0000.0001) %MON vort_r_min                   =  -1.2103928619458E-06
(PID.TID 0000.0001) %MON vort_r_max                   =   1.3658356323918E-06
(PID.TID 0000.0001) %MON vort_a_mean                  =  -2.0549865324846E-05
(PID.TID 0000.0001) %MON vort_a_sd                    =   7.5259583459532E-05
(PID.TID 0000.0001) %MON vort_p_mean                  =  -2.4787190757548E-05
(PID.TID 0000.0001) %MON vort_p_sd                    =   1.2817278044840E-04
(PID.TID 0000.0001) %MON surfExpan_theta_mean         =   8.4664546923379E-08
(PID.TID 0000.0001) %MON surfExpan_salt_mean          =   2.0573162615946E-08
(PID.TID 0000.0001) // =======================================================
(PID.TID 0000.0001) // End MONITOR dynamic field statistics
(PID.TID 0000.0001) // =======================================================
(PID.TID 0000.0001) // =======================================================
(PID.TID 0000.0001) // Begin MONITOR Therm.SeaIce statistics
(PID.TID 0000.0001) // =======================================================
(PID.TID 0000.0001) %MON thSI_time_sec                =   3.1104000000000E+09
(PID.TID 0000.0001) %MON thSI_Ice_Area_G              =   2.4716044426698E+13
(PID.TID 0000.0001) %MON thSI_Ice_Area_S              =   1.2123515471256E+13
(PID.TID 0000.0001) %MON thSI_Ice_Area_N              =   1.2592528955442E+13
(PID.TID 0000.0001) %MON thSI_IceH_ave_G              =   4.5665991101486E+00
(PID.TID 0000.0001) %MON thSI_IceH_ave_S              =   5.6548113929333E+00
(PID.TID 0000.0001) %MON thSI_IceH_ave_N              =   3.5189177037341E+00
(PID.TID 0000.0001) %MON thSI_IceH_max_S              =   1.0000000000000E+01
(PID.TID 0000.0001) %MON thSI_IceH_max_N              =   1.0000000000000E+01
(PID.TID 0000.0001) %MON thSI_SnwH_ave_G              =   1.0642325960795E+00
(PID.TID 0000.0001) %MON thSI_SnwH_ave_S              =   1.8039252994821E+00
(PID.TID 0000.0001) %MON thSI_SnwH_ave_N              =   3.5209002603598E-01
(PID.TID 0000.0001) %MON thSI_SnwH_max_S              =   4.0920173287519E+00
(PID.TID 0000.0001) %MON thSI_SnwH_max_N              =   4.0933581672150E+00
(PID.TID 0000.0001) %MON thSI_TotEnerg_G              =  -3.7927617991529E+22
(PID.TID 0000.0001) %MON thSI_Tsrf_ave_G              =  -1.6644740861567E+01
(PID.TID 0000.0001) %MON thSI_Tsrf_ave_S              =  -1.2271804409750E-01
(PID.TID 0000.0001) %MON thSI_Tsrf_ave_N              =  -3.2551394715834E+01
(PID.TID 0000.0001) %MON thSI_Tsrf_min_S              =  -5.2879155123950E+00
(PID.TID 0000.0001) %MON thSI_Tsrf_min_N              =  -4.6099403861095E+01
(PID.TID 0000.0001) %MON thSI_Tsrf_max_S              =   0.0000000000000E+00
(PID.TID 0000.0001) %MON thSI_Tsrf_max_N              =  -1.7223298637424E+00
(PID.TID 0000.0001) %MON thSI_Tic1_ave_G              =  -8.3503593345479E+00
(PID.TID 0000.0001) %MON thSI_Tic1_ave_S              =  -5.1859254669298E+00
(PID.TID 0000.0001) %MON thSI_Tic1_ave_N              =  -1.3246125323351E+01
(PID.TID 0000.0001) %MON thSI_Tic1_min_S              =  -1.7372153208148E+01
(PID.TID 0000.0001) %MON thSI_Tic1_min_N              =  -2.0584120855350E+01
(PID.TID 0000.0001) %MON thSI_Tic1_max_S              =  -1.5363024655854E-01
(PID.TID 0000.0001) %MON thSI_Tic1_max_N              =  -5.8630083767312E-01
(PID.TID 0000.0001) %MON thSI_Tic2_ave_G              =  -3.7701031784537E+00
(PID.TID 0000.0001) %MON thSI_Tic2_ave_S              =  -3.1173552909385E+00
(PID.TID 0000.0001) %MON thSI_Tic2_ave_N              =  -4.7799839472262E+00
(PID.TID 0000.0001) %MON thSI_Tic2_min_S              =  -8.8326933331569E+00
(PID.TID 0000.0001) %MON thSI_Tic2_min_N              =  -7.3985906582730E+00
(PID.TID 0000.0001) %MON thSI_Tic2_max_S              =  -1.1778332319913E+00
(PID.TID 0000.0001) %MON thSI_Tic2_max_N              =  -1.1561961802541E+00
(PID.TID 0000.0001) // =======================================================
(PID.TID 0000.0001) // End MONITOR Therm.SeaIce statistics
(PID.TID 0000.0001) // =======================================================
S/R BULKF_FIELDS_LOAD: Reading new data:   12    1     36000  3.110400000000E+09
(PID.TID 0000.0001)  MDS_READ_FIELD: opening global file: ncep_tair_cs.bin
(PID.TID 0000.0001)  MDS_READ_FIELD: opening global file: ncep_tair_cs.bin
(PID.TID 0000.0001)  MDS_READ_FIELD: opening global file: ncep_qair_cs.bin
(PID.TID 0000.0001)  MDS_READ_FIELD: opening global file: ncep_qair_cs.bin
(PID.TID 0000.0001)  MDS_READ_FIELD: opening global file: ncep_downsolar_cs.bin
(PID.TID 0000.0001)  MDS_READ_FIELD: opening global file: ncep_downsolar_cs.bin
(PID.TID 0000.0001)  MDS_READ_FIELD: opening global file: ncep_downlw_cs.bin
(PID.TID 0000.0001)  MDS_READ_FIELD: opening global file: ncep_downlw_cs.bin
(PID.TID 0000.0001)  MDS_READ_FIELD: opening global file: ncep_windspeed_cs.bin
(PID.TID 0000.0001)  MDS_READ_FIELD: opening global file: ncep_windspeed_cs.bin
(PID.TID 0000.0001)  MDS_READ_FIELD: opening global file: ncep_pr_scal_cs.bin
(PID.TID 0000.0001)  MDS_READ_FIELD: opening global file: ncep_pr_scal_cs.bin
S/R EXTERNAL_FIELDS_LOAD: Reading new data:   12    1     36000  3.110400000000E+09
(PID.TID 0000.0001)  MDS_READ_FIELD: opening global file: trenberth_taux.bin
(PID.TID 0000.0001)  MDS_READ_FIELD: opening global file: trenberth_taux.bin
(PID.TID 0000.0001)  MDS_READ_FIELD: opening global file: trenberth_tauy.bin
(PID.TID 0000.0001)  MDS_READ_FIELD: opening global file: trenberth_tauy.bin
(PID.TID 0000.0001)  MDS_READ_FIELD: opening global file: lev_surfT_cs_12m.bin
(PID.TID 0000.0001)  MDS_READ_FIELD: opening global file: lev_surfT_cs_12m.bin
(PID.TID 0000.0001)  MDS_READ_FIELD: opening global file: lev_surfS_cs_12m.bin
(PID.TID 0000.0001)  MDS_READ_FIELD: opening global file: lev_surfS_cs_12m.bin
 cg2d: Sum(rhs),rhsMax =   3.91123171841600E+02  2.29216909151821E+02
(PID.TID 0000.0001)                    cg2d_init_res =    1.95242193209935E+01
(PID.TID 0000.0001)                       cg2d_iters =    72
(PID.TID 0000.0001)                         cg2d_res =    5.46408886398732E-07
(PID.TID 0000.0001) // =======================================================
(PID.TID 0000.0001) // Begin MONITOR dynamic field statistics
(PID.TID 0000.0001) // =======================================================
(PID.TID 0000.0001) %MON time_tsnumber                =                 36001
(PID.TID 0000.0001) %MON time_secondsf                =   3.1104864000000E+09
(PID.TID 0000.0001) %MON dynstat_eta_max              =   7.3388365064227E-01
(PID.TID 0000.0001) %MON dynstat_eta_min              =  -1.1986231184597E+01
(PID.TID 0000.0001) %MON dynstat_eta_mean             =  -5.8173432388293E-01
(PID.TID 0000.0001) %MON dynstat_eta_sd               =   1.7027393996681E+00
(PID.TID 0000.0001) %MON dynstat_eta_del2             =   9.7525310499946E-02
(PID.TID 0000.0001) %MON dynstat_uvel_max             =   1.7286116299088E-01
(PID.TID 0000.0001) %MON dynstat_uvel_min             =  -2.7114320697541E-01
(PID.TID 0000.0001) %MON dynstat_uvel_mean            =  -5.2865022965187E-04
(PID.TID 0000.0001) %MON dynstat_uvel_sd              =   1.2989393178518E-02
(PID.TID 0000.0001) %MON dynstat_uvel_del2            =   1.7921106192299E-03
(PID.TID 0000.0001) %MON dynstat_vvel_max             =   1.9356390916179E-01
(PID.TID 0000.0001) %MON dynstat_vvel_min             =  -2.1061335313895E-01
(PID.TID 0000.0001) %MON dynstat_vvel_mean            =  -4.2461259113623E-04
(PID.TID 0000.0001) %MON dynstat_vvel_sd              =   1.3474964755062E-02
(PID.TID 0000.0001) %MON dynstat_vvel_del2            =   1.8308491097629E-03
(PID.TID 0000.0001) %MON dynstat_wvel_max             =   8.3985212379618E-05
(PID.TID 0000.0001) %MON dynstat_wvel_min             =  -1.7706298341014E-04
(PID.TID 0000.0001) %MON dynstat_wvel_mean            =   1.7416098782924E-09
(PID.TID 0000.0001) %MON dynstat_wvel_sd              =   4.6302076880399E-06
(PID.TID 0000.0001) %MON dynstat_wvel_del2            =   1.1408661146420E-06
(PID.TID 0000.0001) %MON dynstat_theta_max            =   3.0143977320743E+01
(PID.TID 0000.0001) %MON dynstat_theta_min            =  -4.0278078229730E+00
(PID.TID 0000.0001) %MON dynstat_theta_mean           =   3.5028309605796E+00
(PID.TID 0000.0001) %MON dynstat_theta_sd             =   4.7489713229266E+00
(PID.TID 0000.0001) %MON dynstat_theta_del2           =   9.5138716674835E-02
(PID.TID 0000.0001) %MON dynstat_salt_max             =   4.0818099946521E+01
(PID.TID 0000.0001) %MON dynstat_salt_min             =   1.8030808815811E+01
(PID.TID 0000.0001) %MON dynstat_salt_mean            =   3.4756104174753E+01
(PID.TID 0000.0001) %MON dynstat_salt_sd              =   5.1189179655277E-01
(PID.TID 0000.0001) %MON dynstat_salt_del2            =   2.0064892203968E-02
(PID.TID 0000.0001) %MON extforcing_qnet_max          =   7.7549616936275E+02
(PID.TID 0000.0001) %MON extforcing_qnet_min          =  -8.9676147940171E+03
(PID.TID 0000.0001) %MON extforcing_qnet_mean         =  -1.4533423828233E+01
(PID.TID 0000.0001) %MON extforcing_qnet_sd           =   2.3414680962637E+02
(PID.TID 0000.0001) %MON extforcing_qnet_del2         =   2.1997419213374E+01
(PID.TID 0000.0001) %MON extforcing_qsw_max           =   0.0000000000000E+00
(PID.TID 0000.0001) %MON extforcing_qsw_min           =  -3.4195662119167E+02
(PID.TID 0000.0001) %MON extforcing_qsw_mean          =  -1.8643093634317E+02
(PID.TID 0000.0001) %MON extforcing_qsw_sd            =   8.0933736225501E+01
(PID.TID 0000.0001) %MON extforcing_qsw_del2          =   3.8957491043607E+00
(PID.TID 0000.0001) %MON extforcing_empmr_max         =   2.6554484665544E-02
(PID.TID 0000.0001) %MON extforcing_empmr_min         =  -4.0448513424106E-04
(PID.TID 0000.0001) %MON extforcing_empmr_mean        =   1.5317508906792E-05
(PID.TID 0000.0001) %MON extforcing_empmr_sd          =   5.1033105559495E-04
(PID.TID 0000.0001) %MON extforcing_empmr_del2        =   2.5821939710472E-05
(PID.TID 0000.0001) %MON advcfl_uvel_max              =   7.6901356728721E-02
(PID.TID 0000.0001) %MON advcfl_vvel_max              =   8.4371781033812E-02
(PID.TID 0000.0001) %MON advcfl_wvel_max              =   8.8668887926684E-02
(PID.TID 0000.0001) %MON advcfl_W_hf_max              =   6.5617758705099E-02
(PID.TID 0000.0001) %MON pe_b_mean                    =  -1.9285648876349E-03
(PID.TID 0000.0001) %MON ke_max                       =   3.6817140029557E-02
(PID.TID 0000.0001) %MON ke_mean                      =   1.6196509728825E-04
(PID.TID 0000.0001) %MON ke_vol                       =   1.3395912252519E+18
(PID.TID 0000.0001) %MON vort_r_min                   =  -1.2135568727371E-06
(PID.TID 0000.0001) %MON vort_r_max                   =   1.3680147037095E-06
(PID.TID 0000.0001) %MON vort_a_mean                  =  -2.0549865324846E-05
(PID.TID 0000.0001) %MON vort_a_sd                    =   7.5259583286529E-05
(PID.TID 0000.0001) %MON vort_p_mean                  =  -2.4787190486060E-05
(PID.TID 0000.0001) %MON vort_p_sd                    =   1.2817278636374E-04
(PID.TID 0000.0001) %MON surfExpan_theta_mean         =   3.7878597719767E-08
(PID.TID 0000.0001) %MON surfExpan_salt_mean          =   9.2604174719932E-10
(PID.TID 0000.0001) // =======================================================
(PID.TID 0000.0001) // End MONITOR dynamic field statistics
(PID.TID 0000.0001) // =======================================================
(PID.TID 0000.0001) // =======================================================
(PID.TID 0000.0001) // Begin MONITOR Therm.SeaIce statistics
(PID.TID 0000.0001) // =======================================================
(PID.TID 0000.0001) %MON thSI_time_sec                =   3.1104864000000E+09
(PID.TID 0000.0001) %MON thSI_Ice_Area_G              =   2.4738356411237E+13
(PID.TID 0000.0001) %MON thSI_Ice_Area_S              =   1.2042847194238E+13
(PID.TID 0000.0001) %MON thSI_Ice_Area_N              =   1.2695509216998E+13
(PID.TID 0000.0001) %MON thSI_IceH_ave_G              =   4.5846834480039E+00
(PID.TID 0000.0001) %MON thSI_IceH_ave_S              =   5.6904735119020E+00
(PID.TID 0000.0001) %MON thSI_IceH_ave_N              =   3.5357408226382E+00
(PID.TID 0000.0001) %MON thSI_IceH_max_S              =   1.0000000000000E+01
(PID.TID 0000.0001) %MON thSI_IceH_max_N              =   1.0000000000000E+01
(PID.TID 0000.0001) %MON thSI_SnwH_ave_G              =   1.0583997408712E+00
(PID.TID 0000.0001) %MON thSI_SnwH_ave_S              =   1.8029351955650E+00
(PID.TID 0000.0001) %MON thSI_SnwH_ave_N              =   3.5214002664359E-01
(PID.TID 0000.0001) %MON thSI_SnwH_max_S              =   4.0985942889861E+00
(PID.TID 0000.0001) %MON thSI_SnwH_max_N              =   4.1095075267918E+00
(PID.TID 0000.0001) %MON thSI_TotEnerg_G              =  -3.8086152333288E+22
(PID.TID 0000.0001) %MON thSI_Tsrf_ave_G              =  -1.6749297971996E+01
(PID.TID 0000.0001) %MON thSI_Tsrf_ave_S              =  -1.0618241809861E-01
(PID.TID 0000.0001) %MON thSI_Tsrf_ave_N              =  -3.2536809447570E+01
(PID.TID 0000.0001) %MON thSI_Tsrf_min_S              =  -5.3043441467213E+00
(PID.TID 0000.0001) %MON thSI_Tsrf_min_N              =  -4.6213990021686E+01
(PID.TID 0000.0001) %MON thSI_Tsrf_max_S              =   0.0000000000000E+00
(PID.TID 0000.0001) %MON thSI_Tsrf_max_N              =  -6.7474323125520E+00
(PID.TID 0000.0001) %MON thSI_Tic1_ave_G              =  -8.3521197353959E+00
(PID.TID 0000.0001) %MON thSI_Tic1_ave_S              =  -5.1622181897384E+00
(PID.TID 0000.0001) %MON thSI_Tic1_ave_N              =  -1.3222067613469E+01
(PID.TID 0000.0001) %MON thSI_Tic1_min_S              =  -1.7216897768510E+01
(PID.TID 0000.0001) %MON thSI_Tic1_min_N              =  -2.0666395739877E+01
(PID.TID 0000.0001) %MON thSI_Tic1_max_S              =  -2.1831092533945E-01
(PID.TID 0000.0001) %MON thSI_Tic1_max_N              =  -5.9497842414135E-01
(PID.TID 0000.0001) %MON thSI_Tic2_ave_G              =  -3.7741536126138E+00
(PID.TID 0000.0001) %MON thSI_Tic2_ave_S              =  -3.1128115907687E+00
(PID.TID 0000.0001) %MON thSI_Tic2_ave_N              =  -4.7838089671339E+00
(PID.TID 0000.0001) %MON thSI_Tic2_min_S              =  -8.8094598422842E+00
(PID.TID 0000.0001) %MON thSI_Tic2_min_N              =  -7.4380986141887E+00
(PID.TID 0000.0001) %MON thSI_Tic2_max_S              =  -1.1539915958877E+00
(PID.TID 0000.0001) %MON thSI_Tic2_max_N              =  -1.1753502729289E+00
(PID.TID 0000.0001) // =======================================================
(PID.TID 0000.0001) // End MONITOR Therm.SeaIce statistics
(PID.TID 0000.0001) // =======================================================
 Computing Diagnostic #     23  ETAN         Counter:       1   Parms: SM      M1      
 Computing Diagnostic #     79  oceFWflx     Counter:       1   Parms: SM      U1      
 Computing Diagnostic #     26  THETA        Counter:       1   Parms: SM      MR      
 Computing Diagnostic #     27  SALT         Counter:       1   Parms: SM      MR      
 Compute Stats, Diag. #     75  oceTAUX   vol(   0 ): 3.457E+14  Parms: UU      U1      
 Compute Stats, Diag. #     76  oceTAUY   vol(   0 ): 3.478E+14  Parms: VV      U1      
 Compute Stats, Diag. #     84  TRELAX    vol(   0 ): 3.639E+14  Parms: SM      U1      
 Compute Stats, Diag. #     85  SRELAX    vol(   0 ): 3.639E+14  Parms: SM      U1      
 Compute Stats, Diag. #     86  surForcT  vol(   0 ): 3.639E+14  Parms: SM      U1      
 Compute Stats, Diag. #     87  surForcS  vol(   0 ): 3.639E+14  Parms: SM      U1      
 Compute Stats, Diag. #     88  TFLUX     vol(   0 ): 3.639E+14  Parms: SM      U1      
 Compute Stats, Diag. #     89  SFLUX     vol(   0 ): 3.639E+14  Parms: SM      U1      
 Compute Stats, Diag. #     81  oceQnet   vol(   0 ): 3.639E+14  Parms: SM      U1      
 Compute Stats, Diag. #     80  oceSflux  vol(   0 ): 3.639E+14  Parms: SM      U1      
 Compute Stats, Diag. #     79  oceFWflx  vol(   0 ): 3.639E+14  Parms: SM      U1      
 cg2d: Sum(rhs),rhsMax =   3.91131921824901E+02  2.29255287241871E+02
(PID.TID 0000.0001)                    cg2d_init_res =    2.74856936056507E+00
(PID.TID 0000.0001)                       cg2d_iters =    69
(PID.TID 0000.0001)                         cg2d_res =    5.38174366906975E-07
(PID.TID 0000.0001) // =======================================================
(PID.TID 0000.0001) // Begin MONITOR dynamic field statistics
(PID.TID 0000.0001) // =======================================================
(PID.TID 0000.0001) %MON time_tsnumber                =                 36002
(PID.TID 0000.0001) %MON time_secondsf                =   3.1105728000000E+09
(PID.TID 0000.0001) %MON dynstat_eta_max              =   7.3253161004744E-01
(PID.TID 0000.0001) %MON dynstat_eta_min              =  -1.1985096656222E+01
(PID.TID 0000.0001) %MON dynstat_eta_mean             =  -5.8174733810961E-01
(PID.TID 0000.0001) %MON dynstat_eta_sd               =   1.7022747292739E+00
(PID.TID 0000.0001) %MON dynstat_eta_del2             =   9.7565582367462E-02
(PID.TID 0000.0001) %MON dynstat_uvel_max             =   1.7329420055447E-01
(PID.TID 0000.0001) %MON dynstat_uvel_min             =  -2.7081627038570E-01
(PID.TID 0000.0001) %MON dynstat_uvel_mean            =  -5.2836325739971E-04
(PID.TID 0000.0001) %MON dynstat_uvel_sd              =   1.2988528968031E-02
(PID.TID 0000.0001) %MON dynstat_uvel_del2            =   1.7921057189403E-03
(PID.TID 0000.0001) %MON dynstat_vvel_max             =   1.9398833968584E-01
(PID.TID 0000.0001) %MON dynstat_vvel_min             =  -2.1072375648724E-01
(PID.TID 0000.0001) %MON dynstat_vvel_mean            =  -4.2452102885344E-04
(PID.TID 0000.0001) %MON dynstat_vvel_sd              =   1.3476491636945E-02
(PID.TID 0000.0001) %MON dynstat_vvel_del2            =   1.8297039693013E-03
(PID.TID 0000.0001) %MON dynstat_wvel_max             =   8.3878461487960E-05
(PID.TID 0000.0001) %MON dynstat_wvel_min             =  -1.7741686258955E-04
(PID.TID 0000.0001) %MON dynstat_wvel_mean            =  -1.2005582788200E-09
(PID.TID 0000.0001) %MON dynstat_wvel_sd              =   4.6256908530211E-06
(PID.TID 0000.0001) %MON dynstat_wvel_del2            =   1.1370093689235E-06
(PID.TID 0000.0001) %MON dynstat_theta_max            =   3.0124603885991E+01
(PID.TID 0000.0001) %MON dynstat_theta_min            =  -3.3553040930762E+00
(PID.TID 0000.0001) %MON dynstat_theta_mean           =   3.5028877722369E+00
(PID.TID 0000.0001) %MON dynstat_theta_sd             =   4.7490129241142E+00
(PID.TID 0000.0001) %MON dynstat_theta_del2           =   9.5219481502749E-02
(PID.TID 0000.0001) %MON dynstat_salt_max             =   4.0820622830092E+01
(PID.TID 0000.0001) %MON dynstat_salt_min             =   1.8031424151899E+01
(PID.TID 0000.0001) %MON dynstat_salt_mean            =   3.4756104653073E+01
(PID.TID 0000.0001) %MON dynstat_salt_sd              =   5.1188354792970E-01
(PID.TID 0000.0001) %MON dynstat_salt_del2            =   2.0060739133775E-02
(PID.TID 0000.0001) %MON extforcing_qnet_max          =   7.7879139082093E+02
(PID.TID 0000.0001) %MON extforcing_qnet_min          =  -2.4011440766621E+02
(PID.TID 0000.0001) %MON extforcing_qnet_mean         =  -4.7129339282748E+00
(PID.TID 0000.0001) %MON extforcing_qnet_sd           =   1.2148791669876E+02
(PID.TID 0000.0001) %MON extforcing_qnet_del2         =   1.2341954605356E+01
(PID.TID 0000.0001) %MON extforcing_qsw_max           =   0.0000000000000E+00
(PID.TID 0000.0001) %MON extforcing_qsw_min           =  -3.4175257854448E+02
(PID.TID 0000.0001) %MON extforcing_qsw_mean          =  -1.8646518663948E+02
(PID.TID 0000.0001) %MON extforcing_qsw_sd            =   8.0799357798136E+01
(PID.TID 0000.0001) %MON extforcing_qsw_del2          =   3.9060221122063E+00
(PID.TID 0000.0001) %MON extforcing_empmr_max         =   5.9715672480450E-04
(PID.TID 0000.0001) %MON extforcing_empmr_min         =  -3.9950652419227E-04
(PID.TID 0000.0001) %MON extforcing_empmr_mean        =   1.5589959047400E-07
(PID.TID 0000.0001) %MON extforcing_empmr_sd          =   5.5506383120784E-05
(PID.TID 0000.0001) %MON extforcing_empmr_del2        =   8.8440361836304E-06
(PID.TID 0000.0001) %MON advcfl_uvel_max              =   7.6808631310320E-02
(PID.TID 0000.0001) %MON advcfl_vvel_max              =   8.4556784319777E-02
(PID.TID 0000.0001) %MON advcfl_wvel_max              =   5.7844592180140E-02
(PID.TID 0000.0001) %MON advcfl_W_hf_max              =   6.5305822431906E-02
(PID.TID 0000.0001) %MON pe_b_mean                    =  -1.9270086451602E-03
(PID.TID 0000.0001) %MON ke_max                       =   3.6710666120170E-02
(PID.TID 0000.0001) %MON ke_mean                      =   1.6197371246300E-04
(PID.TID 0000.0001) %MON ke_vol                       =   1.3395907599575E+18
(PID.TID 0000.0001) %MON vort_r_min                   =  -1.2170150075846E-06
(PID.TID 0000.0001) %MON vort_r_max                   =   1.3705352204397E-06
(PID.TID 0000.0001) %MON vort_a_mean                  =  -2.0549865324846E-05
(PID.TID 0000.0001) %MON vort_a_sd                    =   7.5259583113972E-05
(PID.TID 0000.0001) %MON vort_p_mean                  =  -2.4787196681009E-05
(PID.TID 0000.0001) %MON vort_p_sd                    =   1.2817293504035E-04
(PID.TID 0000.0001) %MON surfExpan_theta_mean         =   8.5120869171539E-08
(PID.TID 0000.0001) %MON surfExpan_salt_mean          =   1.8910280776581E-08
(PID.TID 0000.0001) // =======================================================
(PID.TID 0000.0001) // End MONITOR dynamic field statistics
(PID.TID 0000.0001) // =======================================================
(PID.TID 0000.0001) // =======================================================
(PID.TID 0000.0001) // Begin MONITOR Therm.SeaIce statistics
(PID.TID 0000.0001) // =======================================================
(PID.TID 0000.0001) %MON thSI_time_sec                =   3.1105728000000E+09
(PID.TID 0000.0001) %MON thSI_Ice_Area_G              =   2.4756287438067E+13
(PID.TID 0000.0001) %MON thSI_Ice_Area_S              =   1.1991786953098E+13
(PID.TID 0000.0001) %MON thSI_Ice_Area_N              =   1.2764500484969E+13
(PID.TID 0000.0001) %MON thSI_IceH_ave_G              =   4.5821668091277E+00
(PID.TID 0000.0001) %MON thSI_IceH_ave_S              =   5.7074957146614E+00
(PID.TID 0000.0001) %MON thSI_IceH_ave_N              =   3.5249609667828E+00
(PID.TID 0000.0001) %MON thSI_IceH_max_S              =   1.0000000000000E+01
(PID.TID 0000.0001) %MON thSI_IceH_max_N              =   1.0000000000000E+01
(PID.TID 0000.0001) %MON thSI_SnwH_ave_G              =   1.0529442325397E+00
(PID.TID 0000.0001) %MON thSI_SnwH_ave_S              =   1.7979823388207E+00
(PID.TID 0000.0001) %MON thSI_SnwH_ave_N              =   3.5300785406708E-01
(PID.TID 0000.0001) %MON thSI_SnwH_max_S              =   4.0952680525060E+00
(PID.TID 0000.0001) %MON thSI_SnwH_max_N              =   4.1020845310451E+00
(PID.TID 0000.0001) %MON thSI_TotEnerg_G              =  -3.8083632131948E+22
(PID.TID 0000.0001) %MON thSI_Tsrf_ave_G              =  -1.6871695084797E+01
(PID.TID 0000.0001) %MON thSI_Tsrf_ave_S              =  -1.2634335888252E-01
(PID.TID 0000.0001) %MON thSI_Tsrf_ave_N              =  -3.2603347928425E+01
(PID.TID 0000.0001) %MON thSI_Tsrf_min_S              =  -5.3207170352752E+00
(PID.TID 0000.0001) %MON thSI_Tsrf_min_N              =  -4.6355041687304E+01
(PID.TID 0000.0001) %MON thSI_Tsrf_max_S              =   0.0000000000000E+00
(PID.TID 0000.0001) %MON thSI_Tsrf_max_N              =  -7.6783592689093E+00
(PID.TID 0000.0001) %MON thSI_Tic1_ave_G              =  -8.3768872884349E+00
(PID.TID 0000.0001) %MON thSI_Tic1_ave_S              =  -5.1376630553904E+00
(PID.TID 0000.0001) %MON thSI_Tic1_ave_N              =  -1.3304225516661E+01
(PID.TID 0000.0001) %MON thSI_Tic1_min_S              =  -1.6689794567922E+01
(PID.TID 0000.0001) %MON thSI_Tic1_min_N              =  -2.0726706592963E+01
(PID.TID 0000.0001) %MON thSI_Tic1_max_S              =  -2.2651862665666E-01
(PID.TID 0000.0001) %MON thSI_Tic1_max_N              =  -6.4311679079621E-01
(PID.TID 0000.0001) %MON thSI_Tic2_ave_G              =  -3.7793621069394E+00
(PID.TID 0000.0001) %MON thSI_Tic2_ave_S              =  -3.1002033567845E+00
(PID.TID 0000.0001) %MON thSI_Tic2_ave_N              =  -4.8124628223929E+00
(PID.TID 0000.0001) %MON thSI_Tic2_min_S              =  -8.7485368036072E+00
(PID.TID 0000.0001) %MON thSI_Tic2_min_N              =  -7.4594173056918E+00
(PID.TID 0000.0001) %MON thSI_Tic2_max_S              =  -1.1905054593224E+00
(PID.TID 0000.0001) %MON thSI_Tic2_max_N              =  -1.1847736548613E+00
(PID.TID 0000.0001) // =======================================================
(PID.TID 0000.0001) // End MONITOR Therm.SeaIce statistics
(PID.TID 0000.0001) // =======================================================
 Computing Diagnostic #     23  ETAN         Counter:       1   Parms: SM      M1      
 Compute Stats, Diag. #     23  ETAN      vol(   0 ): 3.639E+14  Parms: SM      M1      
 Compute Stats, Diag. #     26  THETA     vol(   0 ): 1.340E+18  Parms: SM      MR      
 Compute Stats, Diag. #     27  SALT      vol(   0 ): 1.340E+18  Parms: SM      MR      
 cg2d: Sum(rhs),rhsMax =   3.91306457346054E+02  2.29299174390992E+02
(PID.TID 0000.0001)                    cg2d_init_res =    6.05881510165768E+00
(PID.TID 0000.0001)                       cg2d_iters =    69
(PID.TID 0000.0001)                         cg2d_res =    5.26814302068653E-07
(PID.TID 0000.0001) // =======================================================
(PID.TID 0000.0001) // Begin MONITOR dynamic field statistics
(PID.TID 0000.0001) // =======================================================
(PID.TID 0000.0001) %MON time_tsnumber                =                 36003
(PID.TID 0000.0001) %MON time_secondsf                =   3.1106592000000E+09
(PID.TID 0000.0001) %MON dynstat_eta_max              =   7.3125883441869E-01
(PID.TID 0000.0001) %MON dynstat_eta_min              =  -1.1983414707441E+01
(PID.TID 0000.0001) %MON dynstat_eta_mean             =  -5.8200693230065E-01
(PID.TID 0000.0001) %MON dynstat_eta_sd               =   1.7027138668921E+00
(PID.TID 0000.0001) %MON dynstat_eta_del2             =   9.7832935525319E-02
(PID.TID 0000.0001) %MON dynstat_uvel_max             =   1.7366837431578E-01
(PID.TID 0000.0001) %MON dynstat_uvel_min             =  -2.7047805389613E-01
(PID.TID 0000.0001) %MON dynstat_uvel_mean            =  -5.2788824696042E-04
(PID.TID 0000.0001) %MON dynstat_uvel_sd              =   1.2987419729418E-02
(PID.TID 0000.0001) %MON dynstat_uvel_del2            =   1.7920290416663E-03
(PID.TID 0000.0001) %MON dynstat_vvel_max             =   1.9435149230719E-01
(PID.TID 0000.0001) %MON dynstat_vvel_min             =  -2.1082634112719E-01
(PID.TID 0000.0001) %MON dynstat_vvel_mean            =  -4.2436193635437E-04
(PID.TID 0000.0001) %MON dynstat_vvel_sd              =   1.3478041093806E-02
(PID.TID 0000.0001) %MON dynstat_vvel_del2            =   1.8285466696638E-03
(PID.TID 0000.0001) %MON dynstat_wvel_max             =   8.3856395721711E-05
(PID.TID 0000.0001) %MON dynstat_wvel_min             =  -1.7771419054995E-04
(PID.TID 0000.0001) %MON dynstat_wvel_mean            =  -6.4725927470625E-10
(PID.TID 0000.0001) %MON dynstat_wvel_sd              =   4.6253268016134E-06
(PID.TID 0000.0001) %MON dynstat_wvel_del2            =   1.1376051947112E-06
(PID.TID 0000.0001) %MON dynstat_theta_max            =   3.0104705418707E+01
(PID.TID 0000.0001) %MON dynstat_theta_min            =  -3.3518898952525E+00
(PID.TID 0000.0001) %MON dynstat_theta_mean           =   3.5029533029649E+00
(PID.TID 0000.0001) %MON dynstat_theta_sd             =   4.7490564681977E+00
(PID.TID 0000.0001) %MON dynstat_theta_del2           =   9.5270383929555E-02
(PID.TID 0000.0001) %MON dynstat_salt_max             =   4.0822995279711E+01
(PID.TID 0000.0001) %MON dynstat_salt_min             =   1.8032025269688E+01
(PID.TID 0000.0001) %MON dynstat_salt_mean            =   3.4756107660119E+01
(PID.TID 0000.0001) %MON dynstat_salt_sd              =   5.1186958124562E-01
(PID.TID 0000.0001) %MON dynstat_salt_del2            =   2.0073209968460E-02
(PID.TID 0000.0001) %MON extforcing_qnet_max          =   7.8157109865382E+02
(PID.TID 0000.0001) %MON extforcing_qnet_min          =  -3.0899300248230E+03
(PID.TID 0000.0001) %MON extforcing_qnet_mean         =  -5.9485355753480E+00
(PID.TID 0000.0001) %MON extforcing_qnet_sd           =   1.3220597839519E+02
(PID.TID 0000.0001) %MON extforcing_qnet_del2         =   1.3489903447031E+01
(PID.TID 0000.0001) %MON extforcing_qsw_max           =   0.0000000000000E+00
(PID.TID 0000.0001) %MON extforcing_qsw_min           =  -3.4154853589728E+02
(PID.TID 0000.0001) %MON extforcing_qsw_mean          =  -1.8648590881988E+02
(PID.TID 0000.0001) %MON extforcing_qsw_sd            =   8.0655748839898E+01
(PID.TID 0000.0001) %MON extforcing_qsw_del2          =   3.9083765495151E+00
(PID.TID 0000.0001) %MON extforcing_empmr_max         =   9.1468978679474E-03
(PID.TID 0000.0001) %MON extforcing_empmr_min         =  -3.9320165846904E-04
(PID.TID 0000.0001) %MON extforcing_empmr_mean        =   3.1097220801836E-06
(PID.TID 0000.0001) %MON extforcing_empmr_sd          =   1.6474651367041E-04
(PID.TID 0000.0001) %MON extforcing_empmr_del2        =   1.2220697761046E-05
(PID.TID 0000.0001) %MON advcfl_uvel_max              =   7.6712706698355E-02
(PID.TID 0000.0001) %MON advcfl_vvel_max              =   8.4715077431254E-02
(PID.TID 0000.0001) %MON advcfl_wvel_max              =   5.7941532315152E-02
(PID.TID 0000.0001) %MON advcfl_W_hf_max              =   6.4957855679919E-02
(PID.TID 0000.0001) %MON pe_b_mean                    =  -1.9300197281496E-03
(PID.TID 0000.0001) %MON ke_max                       =   3.6601520276967E-02
(PID.TID 0000.0001) %MON ke_mean                      =   1.6197956136980E-04
(PID.TID 0000.0001) %MON ke_vol                       =   1.3395907552218E+18
(PID.TID 0000.0001) %MON vort_r_min                   =  -1.2207759524161E-06
(PID.TID 0000.0001) %MON vort_r_max                   =   1.3733169678091E-06
(PID.TID 0000.0001) %MON vort_a_mean                  =  -2.0549865324846E-05
(PID.TID 0000.0001) %MON vort_a_sd                    =   7.5259582970957E-05
(PID.TID 0000.0001) %MON vort_p_mean                  =  -2.4787196249296E-05
(PID.TID 0000.0001) %MON vort_p_sd                    =   1.2817294256821E-04
(PID.TID 0000.0001) %MON surfExpan_theta_mean         =   7.0416070395591E-08
(PID.TID 0000.0001) %MON surfExpan_salt_mean          =   1.4810448162523E-08
(PID.TID 0000.0001) // =======================================================
(PID.TID 0000.0001) // End MONITOR dynamic field statistics
(PID.TID 0000.0001) // =======================================================
(PID.TID 0000.0001) // =======================================================
(PID.TID 0000.0001) // Begin MONITOR Therm.SeaIce statistics
(PID.TID 0000.0001) // =======================================================
(PID.TID 0000.0001) %MON thSI_time_sec                =   3.1106592000000E+09
(PID.TID 0000.0001) %MON thSI_Ice_Area_G              =   2.4763719524513E+13
(PID.TID 0000.0001) %MON thSI_Ice_Area_S              =   1.1938341959016E+13
(PID.TID 0000.0001) %MON thSI_Ice_Area_N              =   1.2825377565497E+13
(PID.TID 0000.0001) %MON thSI_IceH_ave_G              =   4.5857489324108E+00
(PID.TID 0000.0001) %MON thSI_IceH_ave_S              =   5.7260539931246E+00
(PID.TID 0000.0001) %MON thSI_IceH_ave_N              =   3.5243102587440E+00
(PID.TID 0000.0001) %MON thSI_IceH_max_S              =   1.0000000000000E+01
(PID.TID 0000.0001) %MON thSI_IceH_max_N              =   1.0000000000000E+01
(PID.TID 0000.0001) %MON thSI_SnwH_ave_G              =   1.0481637465851E+00
(PID.TID 0000.0001) %MON thSI_SnwH_ave_S              =   1.7937021430004E+00
(PID.TID 0000.0001) %MON thSI_SnwH_ave_N              =   3.5418867454315E-01
(PID.TID 0000.0001) %MON thSI_SnwH_max_S              =   4.0939885903343E+00
(PID.TID 0000.0001) %MON thSI_SnwH_max_N              =   4.1023289726386E+00
(PID.TID 0000.0001) %MON thSI_TotEnerg_G              =  -3.8112830614008E+22
(PID.TID 0000.0001) %MON thSI_Tsrf_ave_G              =  -1.6948698403331E+01
(PID.TID 0000.0001) %MON thSI_Tsrf_ave_S              =  -1.0911650583509E-01
(PID.TID 0000.0001) %MON thSI_Tsrf_ave_N              =  -3.2623612152459E+01
(PID.TID 0000.0001) %MON thSI_Tsrf_min_S              =  -5.3370576572150E+00
(PID.TID 0000.0001) %MON thSI_Tsrf_min_N              =  -4.6469445795717E+01
(PID.TID 0000.0001) %MON thSI_Tsrf_max_S              =   0.0000000000000E+00
(PID.TID 0000.0001) %MON thSI_Tsrf_max_N              =  -1.8310283794974E+00
(PID.TID 0000.0001) %MON thSI_Tic1_ave_G              =  -8.3963071664474E+00
(PID.TID 0000.0001) %MON thSI_Tic1_ave_S              =  -5.1158340062506E+00
(PID.TID 0000.0001) %MON thSI_Tic1_ave_N              =  -1.3357563302437E+01
(PID.TID 0000.0001) %MON thSI_Tic1_min_S              =  -1.6541939746011E+01
(PID.TID 0000.0001) %MON thSI_Tic1_min_N              =  -2.0804072998682E+01
(PID.TID 0000.0001) %MON thSI_Tic1_max_S              =  -2.2966489128983E-01
(PID.TID 0000.0001) %MON thSI_Tic1_max_N              =  -6.5768702938312E-01
(PID.TID 0000.0001) %MON thSI_Tic2_ave_G              =  -3.7898206475238E+00
(PID.TID 0000.0001) %MON thSI_Tic2_ave_S              =  -3.0964921608905E+00
(PID.TID 0000.0001) %MON thSI_Tic2_ave_N              =  -4.8383828641887E+00
(PID.TID 0000.0001) %MON thSI_Tic2_min_S              =  -8.7237674416984E+00
(PID.TID 0000.0001) %MON thSI_Tic2_min_N              =  -7.4973446069327E+00
(PID.TID 0000.0001) %MON thSI_Tic2_max_S              =  -1.1903014865868E+00
(PID.TID 0000.0001) %MON thSI_Tic2_max_N              =  -1.1960830313249E+00
(PID.TID 0000.0001) // =======================================================
(PID.TID 0000.0001) // End MONITOR Therm.SeaIce statistics
(PID.TID 0000.0001) // =======================================================
 cg2d: Sum(rhs),rhsMax =   3.91399720621184E+02  2.29353133798265E+02
(PID.TID 0000.0001)                    cg2d_init_res =    4.24480993420289E+00
(PID.TID 0000.0001)                       cg2d_iters =    68
(PID.TID 0000.0001)                         cg2d_res =    5.39090248187395E-07
(PID.TID 0000.0001) // =======================================================
(PID.TID 0000.0001) // Begin MONITOR dynamic field statistics
(PID.TID 0000.0001) // =======================================================
(PID.TID 0000.0001) %MON time_tsnumber                =                 36004
(PID.TID 0000.0001) %MON time_secondsf                =   3.1107456000000E+09
(PID.TID 0000.0001) %MON dynstat_eta_max              =   7.3006737311667E-01
(PID.TID 0000.0001) %MON dynstat_eta_min              =  -1.1981545912129E+01
(PID.TID 0000.0001) %MON dynstat_eta_mean             =  -5.8214564678296E-01
(PID.TID 0000.0001) %MON dynstat_eta_sd               =   1.7027252387751E+00
(PID.TID 0000.0001) %MON dynstat_eta_del2             =   9.8024130399067E-02
(PID.TID 0000.0001) %MON dynstat_uvel_max             =   1.7397922711916E-01
(PID.TID 0000.0001) %MON dynstat_uvel_min             =  -2.7012825552055E-01
(PID.TID 0000.0001) %MON dynstat_uvel_mean            =  -5.2730296896225E-04
(PID.TID 0000.0001) %MON dynstat_uvel_sd              =   1.2985995044547E-02
(PID.TID 0000.0001) %MON dynstat_uvel_del2            =   1.7918563740885E-03
(PID.TID 0000.0001) %MON dynstat_vvel_max             =   1.9465091945878E-01
(PID.TID 0000.0001) %MON dynstat_vvel_min             =  -2.1092134413270E-01
(PID.TID 0000.0001) %MON dynstat_vvel_mean            =  -4.2414751614732E-04
(PID.TID 0000.0001) %MON dynstat_vvel_sd              =   1.3479393260626E-02
(PID.TID 0000.0001) %MON dynstat_vvel_del2            =   1.8274933641899E-03
(PID.TID 0000.0001) %MON dynstat_wvel_max             =   8.3910409654923E-05
(PID.TID 0000.0001) %MON dynstat_wvel_min             =  -1.7794292282195E-04
(PID.TID 0000.0001) %MON dynstat_wvel_mean            =  -8.6206715803650E-10
(PID.TID 0000.0001) %MON dynstat_wvel_sd              =   4.6243834885155E-06
(PID.TID 0000.0001) %MON dynstat_wvel_del2            =   1.1369772415396E-06
(PID.TID 0000.0001) %MON dynstat_theta_max            =   3.0084398517504E+01
(PID.TID 0000.0001) %MON dynstat_theta_min            =  -3.3484357320152E+00
(PID.TID 0000.0001) %MON dynstat_theta_mean           =   3.5030174963342E+00
(PID.TID 0000.0001) %MON dynstat_theta_sd             =   4.7491143511024E+00
(PID.TID 0000.0001) %MON dynstat_theta_del2           =   9.5262447549796E-02
(PID.TID 0000.0001) %MON dynstat_salt_max             =   4.0825218754642E+01
(PID.TID 0000.0001) %MON dynstat_salt_min             =   1.8032613372407E+01
(PID.TID 0000.0001) %MON dynstat_salt_mean            =   3.4756109580461E+01
(PID.TID 0000.0001) %MON dynstat_salt_sd              =   5.1185921136418E-01
(PID.TID 0000.0001) %MON dynstat_salt_del2            =   2.0069683311826E-02
(PID.TID 0000.0001) %MON extforcing_qnet_max          =   7.8344427724576E+02
(PID.TID 0000.0001) %MON extforcing_qnet_min          =  -1.7555182421169E+03
(PID.TID 0000.0001) %MON extforcing_qnet_mean         =  -5.6787932740412E+00
(PID.TID 0000.0001) %MON extforcing_qnet_sd           =   1.2476616820801E+02
(PID.TID 0000.0001) %MON extforcing_qnet_del2         =   1.3056256948428E+01
(PID.TID 0000.0001) %MON extforcing_qsw_max           =   0.0000000000000E+00
(PID.TID 0000.0001) %MON extforcing_qsw_min           =  -3.4134449325008E+02
(PID.TID 0000.0001) %MON extforcing_qsw_mean          =  -1.8650863912069E+02
(PID.TID 0000.0001) %MON extforcing_qsw_sd            =   8.0514169106021E+01
(PID.TID 0000.0001) %MON extforcing_qsw_del2          =   3.9141272916304E+00
(PID.TID 0000.0001) %MON extforcing_empmr_max         =   5.1962660632803E-03
(PID.TID 0000.0001) %MON extforcing_empmr_min         =  -3.8540752337728E-04
(PID.TID 0000.0001) %MON extforcing_empmr_mean        =   1.6616839026437E-06
(PID.TID 0000.0001) %MON extforcing_empmr_sd          =   1.0272102136835E-04
(PID.TID 0000.0001) %MON extforcing_empmr_del2        =   1.0664996134929E-05
(PID.TID 0000.0001) %MON advcfl_uvel_max              =   7.6613497243826E-02
(PID.TID 0000.0001) %MON advcfl_vvel_max              =   8.4845593508239E-02
(PID.TID 0000.0001) %MON advcfl_wvel_max              =   5.8016107667232E-02
(PID.TID 0000.0001) %MON advcfl_W_hf_max              =   6.4574733432051E-02
(PID.TID 0000.0001) %MON pe_b_mean                    =  -1.9314028368718E-03
(PID.TID 0000.0001) %MON ke_max                       =   3.6489692672233E-02
(PID.TID 0000.0001) %MON ke_mean                      =   1.6197911219741E-04
(PID.TID 0000.0001) %MON ke_vol                       =   1.3395906607590E+18
(PID.TID 0000.0001) %MON vort_r_min                   =  -1.2247993313622E-06
(PID.TID 0000.0001) %MON vort_r_max                   =   1.3763189804090E-06
(PID.TID 0000.0001) %MON vort_a_mean                  =  -2.0549865324846E-05
(PID.TID 0000.0001) %MON vort_a_sd                    =   7.5259582848045E-05
(PID.TID 0000.0001) %MON vort_p_mean                  =  -2.4787197131553E-05
(PID.TID 0000.0001) %MON vort_p_sd                    =   1.2817297555102E-04
(PID.TID 0000.0001) %MON surfExpan_theta_mean         =   7.5113978574512E-08
(PID.TID 0000.0001) %MON surfExpan_salt_mean          =   1.6693583640459E-08
(PID.TID 0000.0001) // =======================================================
(PID.TID 0000.0001) // End MONITOR dynamic field statistics
(PID.TID 0000.0001) // =======================================================
(PID.TID 0000.0001) // =======================================================
(PID.TID 0000.0001) // Begin MONITOR Therm.SeaIce statistics
(PID.TID 0000.0001) // =======================================================
(PID.TID 0000.0001) %MON thSI_time_sec                =   3.1107456000000E+09
(PID.TID 0000.0001) %MON thSI_Ice_Area_G              =   2.4781217199052E+13
(PID.TID 0000.0001) %MON thSI_Ice_Area_S              =   1.1893663130374E+13
(PID.TID 0000.0001) %MON thSI_Ice_Area_N              =   1.2887554068679E+13
(PID.TID 0000.0001) %MON thSI_IceH_ave_G              =   4.5854417016638E+00
(PID.TID 0000.0001) %MON thSI_IceH_ave_S              =   5.7406892656971E+00
(PID.TID 0000.0001) %MON thSI_IceH_ave_N              =   3.5192870779412E+00
(PID.TID 0000.0001) %MON thSI_IceH_max_S              =   1.0000000000000E+01
(PID.TID 0000.0001) %MON thSI_IceH_max_N              =   1.0000000000000E+01
(PID.TID 0000.0001) %MON thSI_SnwH_ave_G              =   1.0430865724462E+00
(PID.TID 0000.0001) %MON thSI_SnwH_ave_S              =   1.7882918453006E+00
(PID.TID 0000.0001) %MON thSI_SnwH_ave_N              =   3.5535169032064E-01
(PID.TID 0000.0001) %MON thSI_SnwH_max_S              =   4.0939945053619E+00
(PID.TID 0000.0001) %MON thSI_SnwH_max_N              =   4.1021821694680E+00
(PID.TID 0000.0001) %MON thSI_TotEnerg_G              =  -3.8126519073522E+22
(PID.TID 0000.0001) %MON thSI_Tsrf_ave_G              =  -1.7035508854471E+01
(PID.TID 0000.0001) %MON thSI_Tsrf_ave_S              =  -1.2969658283238E-01
(PID.TID 0000.0001) %MON thSI_Tsrf_ave_N              =  -3.2637541251983E+01
(PID.TID 0000.0001) %MON thSI_Tsrf_min_S              =  -5.3533619611988E+00
(PID.TID 0000.0001) %MON thSI_Tsrf_min_N              =  -4.6583877671418E+01
(PID.TID 0000.0001) %MON thSI_Tsrf_max_S              =   0.0000000000000E+00
(PID.TID 0000.0001) %MON thSI_Tsrf_max_N              =  -5.8003993671647E+00
(PID.TID 0000.0001) %MON thSI_Tic1_ave_G              =  -8.4161535679757E+00
(PID.TID 0000.0001) %MON thSI_Tic1_ave_S              =  -5.0890570018039E+00
(PID.TID 0000.0001) %MON thSI_Tic1_ave_N              =  -1.3424794338045E+01
(PID.TID 0000.0001) %MON thSI_Tic1_min_S              =  -1.6056755004740E+01
(PID.TID 0000.0001) %MON thSI_Tic1_min_N              =  -2.0878819418818E+01
(PID.TID 0000.0001) %MON thSI_Tic1_max_S              =  -2.1348011767140E-01
(PID.TID 0000.0001) %MON thSI_Tic1_max_N              =  -6.7286382857875E-01
(PID.TID 0000.0001) %MON thSI_Tic2_ave_G              =  -3.8013073592858E+00
(PID.TID 0000.0001) %MON thSI_Tic2_ave_S              =  -3.0927039031999E+00
(PID.TID 0000.0001) %MON thSI_Tic2_ave_N              =  -4.8680453061339E+00
(PID.TID 0000.0001) %MON thSI_Tic2_min_S              =  -8.6974973247319E+00
(PID.TID 0000.0001) %MON thSI_Tic2_min_N              =  -7.5341002436414E+00
(PID.TID 0000.0001) %MON thSI_Tic2_max_S              =  -1.1883317490209E+00
(PID.TID 0000.0001) %MON thSI_Tic2_max_N              =  -1.2098003000351E+00
(PID.TID 0000.0001) // =======================================================
(PID.TID 0000.0001) // End MONITOR Therm.SeaIce statistics
(PID.TID 0000.0001) // =======================================================
 cg2d: Sum(rhs),rhsMax =   3.91464684335295E+02  2.29415843069655E+02
(PID.TID 0000.0001)                    cg2d_init_res =    3.32097632158456E+00
(PID.TID 0000.0001)                       cg2d_iters =    67
(PID.TID 0000.0001)                         cg2d_res =    5.58497137829929E-07
(PID.TID 0000.0001) // =======================================================
(PID.TID 0000.0001) // Begin MONITOR dynamic field statistics
(PID.TID 0000.0001) // =======================================================
(PID.TID 0000.0001) %MON time_tsnumber                =                 36005
(PID.TID 0000.0001) %MON time_secondsf                =   3.1108320000000E+09
(PID.TID 0000.0001) %MON dynstat_eta_max              =   7.2890681292832E-01
(PID.TID 0000.0001) %MON dynstat_eta_min              =  -1.1979604066711E+01
(PID.TID 0000.0001) %MON dynstat_eta_mean             =  -5.8224227011041E-01
(PID.TID 0000.0001) %MON dynstat_eta_sd               =   1.7024609847232E+00
(PID.TID 0000.0001) %MON dynstat_eta_del2             =   9.8104608060150E-02
(PID.TID 0000.0001) %MON dynstat_uvel_max             =   1.7422409787437E-01
(PID.TID 0000.0001) %MON dynstat_uvel_min             =  -2.6976679326141E-01
(PID.TID 0000.0001) %MON dynstat_uvel_mean            =  -5.2669522207979E-04
(PID.TID 0000.0001) %MON dynstat_uvel_sd              =   1.2984314315091E-02
(PID.TID 0000.0001) %MON dynstat_uvel_del2            =   1.7916315445638E-03
(PID.TID 0000.0001) %MON dynstat_vvel_max             =   1.9488639024523E-01
(PID.TID 0000.0001) %MON dynstat_vvel_min             =  -2.1100894209752E-01
(PID.TID 0000.0001) %MON dynstat_vvel_mean            =  -4.2379919086146E-04
(PID.TID 0000.0001) %MON dynstat_vvel_sd              =   1.3480489249256E-02
(PID.TID 0000.0001) %MON dynstat_vvel_del2            =   1.8264743524961E-03
(PID.TID 0000.0001) %MON dynstat_wvel_max             =   8.4614302458595E-05
(PID.TID 0000.0001) %MON dynstat_wvel_min             =  -1.7810860499616E-04
(PID.TID 0000.0001) %MON dynstat_wvel_mean            =  -9.8426246302214E-10
(PID.TID 0000.0001) %MON dynstat_wvel_sd              =   4.6236585157973E-06
(PID.TID 0000.0001) %MON dynstat_wvel_del2            =   1.1365771319286E-06
(PID.TID 0000.0001) %MON dynstat_theta_max            =   3.0063765078577E+01
(PID.TID 0000.0001) %MON dynstat_theta_min            =  -3.3449481143791E+00
(PID.TID 0000.0001) %MON dynstat_theta_mean           =   3.5030821840118E+00
(PID.TID 0000.0001) %MON dynstat_theta_sd             =   4.7491821750900E+00
(PID.TID 0000.0001) %MON dynstat_theta_del2           =   9.5264376394473E-02
(PID.TID 0000.0001) %MON dynstat_salt_max             =   4.0827295711163E+01
(PID.TID 0000.0001) %MON dynstat_salt_min             =   1.8033189969194E+01
(PID.TID 0000.0001) %MON dynstat_salt_mean            =   3.4756111156155E+01
(PID.TID 0000.0001) %MON dynstat_salt_sd              =   5.1184894347070E-01
(PID.TID 0000.0001) %MON dynstat_salt_del2            =   2.0055625724122E-02
(PID.TID 0000.0001) %MON extforcing_qnet_max          =   7.8364482968596E+02
(PID.TID 0000.0001) %MON extforcing_qnet_min          =  -1.0231698430124E+03
(PID.TID 0000.0001) %MON extforcing_qnet_mean         =  -5.6995938755398E+00
(PID.TID 0000.0001) %MON extforcing_qnet_sd           =   1.2200946387545E+02
(PID.TID 0000.0001) %MON extforcing_qnet_del2         =   1.2755338856925E+01
(PID.TID 0000.0001) %MON extforcing_qsw_max           =   0.0000000000000E+00
(PID.TID 0000.0001) %MON extforcing_qsw_min           =  -3.4114045060289E+02
(PID.TID 0000.0001) %MON extforcing_qsw_mean          =  -1.8652562702427E+02
(PID.TID 0000.0001) %MON extforcing_qsw_sd            =   8.0373065954905E+01
(PID.TID 0000.0001) %MON extforcing_qsw_del2          =   3.9157008012706E+00
(PID.TID 0000.0001) %MON extforcing_empmr_max         =   3.0282769027326E-03
(PID.TID 0000.0001) %MON extforcing_empmr_min         =  -3.7599814481955E-04
(PID.TID 0000.0001) %MON extforcing_empmr_mean        =   1.1574669433871E-06
(PID.TID 0000.0001) %MON extforcing_empmr_sd          =   7.5102876184340E-05
(PID.TID 0000.0001) %MON extforcing_empmr_del2        =   1.0019676550377E-05
(PID.TID 0000.0001) %MON advcfl_uvel_max              =   7.6510979690670E-02
(PID.TID 0000.0001) %MON advcfl_vvel_max              =   8.4948231906689E-02
(PID.TID 0000.0001) %MON advcfl_wvel_max              =   5.8070126308182E-02
(PID.TID 0000.0001) %MON advcfl_W_hf_max              =   6.4157333978932E-02
(PID.TID 0000.0001) %MON pe_b_mean                    =  -1.9317608591369E-03
(PID.TID 0000.0001) %MON ke_max                       =   3.6375236009242E-02
(PID.TID 0000.0001) %MON ke_mean                      =   1.6197234534277E-04
(PID.TID 0000.0001) %MON ke_vol                       =   1.3395906102826E+18
(PID.TID 0000.0001) %MON vort_r_min                   =  -1.2290590376695E-06
(PID.TID 0000.0001) %MON vort_r_max                   =   1.3795013517681E-06
(PID.TID 0000.0001) %MON vort_a_mean                  =  -2.0549865324846E-05
(PID.TID 0000.0001) %MON vort_a_sd                    =   7.5259582744004E-05
(PID.TID 0000.0001) %MON vort_p_mean                  =  -2.4787197416595E-05
(PID.TID 0000.0001) %MON vort_p_sd                    =   1.2817299350069E-04
(PID.TID 0000.0001) %MON surfExpan_theta_mean         =   7.7332195291468E-08
(PID.TID 0000.0001) %MON surfExpan_salt_mean          =   1.7649090150654E-08
(PID.TID 0000.0001) // =======================================================
(PID.TID 0000.0001) // End MONITOR dynamic field statistics
(PID.TID 0000.0001) // =======================================================
(PID.TID 0000.0001) // =======================================================
(PID.TID 0000.0001) // Begin MONITOR Therm.SeaIce statistics
(PID.TID 0000.0001) // =======================================================
(PID.TID 0000.0001) %MON thSI_time_sec                =   3.1108320000000E+09
(PID.TID 0000.0001) %MON thSI_Ice_Area_G              =   2.4859276171218E+13
(PID.TID 0000.0001) %MON thSI_Ice_Area_S              =   1.1854624848917E+13
(PID.TID 0000.0001) %MON thSI_Ice_Area_N              =   1.3004651322301E+13
(PID.TID 0000.0001) %MON thSI_IceH_ave_G              =   4.5732841767010E+00
(PID.TID 0000.0001) %MON thSI_IceH_ave_S              =   5.7528419385475E+00
(PID.TID 0000.0001) %MON thSI_IceH_ave_N              =   3.4980369895397E+00
(PID.TID 0000.0001) %MON thSI_IceH_max_S              =   1.0000000000000E+01
(PID.TID 0000.0001) %MON thSI_IceH_max_N              =   1.0000000000000E+01
(PID.TID 0000.0001) %MON thSI_SnwH_ave_G              =   1.0355494735673E+00
(PID.TID 0000.0001) %MON thSI_SnwH_ave_S              =   1.7820857324742E+00
(PID.TID 0000.0001) %MON thSI_SnwH_ave_N              =   3.5503086017863E-01
(PID.TID 0000.0001) %MON thSI_SnwH_max_S              =   4.0938710026367E+00
(PID.TID 0000.0001) %MON thSI_SnwH_max_N              =   4.1023372307863E+00
(PID.TID 0000.0001) %MON thSI_TotEnerg_G              =  -3.8135387687117E+22
(PID.TID 0000.0001) %MON thSI_Tsrf_ave_G              =  -1.7061749178626E+01
(PID.TID 0000.0001) %MON thSI_Tsrf_ave_S              =  -1.1189327896784E-01
(PID.TID 0000.0001) %MON thSI_Tsrf_ave_N              =  -3.2512696532291E+01
(PID.TID 0000.0001) %MON thSI_Tsrf_min_S              =  -5.3696273356682E+00
(PID.TID 0000.0001) %MON thSI_Tsrf_min_N              =  -4.6698372852912E+01
(PID.TID 0000.0001) %MON thSI_Tsrf_max_S              =   0.0000000000000E+00
(PID.TID 0000.0001) %MON thSI_Tsrf_max_N              =  -1.6927925648048E+00
(PID.TID 0000.0001) %MON thSI_Tic1_ave_G              =  -8.4392077805074E+00
(PID.TID 0000.0001) %MON thSI_Tic1_ave_S              =  -5.0679038527199E+00
(PID.TID 0000.0001) %MON thSI_Tic1_ave_N              =  -1.3493322008164E+01
(PID.TID 0000.0001) %MON thSI_Tic1_min_S              =  -1.5909889479423E+01
(PID.TID 0000.0001) %MON thSI_Tic1_min_N              =  -2.0951035713673E+01
(PID.TID 0000.0001) %MON thSI_Tic1_max_S              =  -2.0069592765175E-01
(PID.TID 0000.0001) %MON thSI_Tic1_max_N              =  -6.8868211525855E-01
(PID.TID 0000.0001) %MON thSI_Tic2_ave_G              =  -3.8125609439511E+00
(PID.TID 0000.0001) %MON thSI_Tic2_ave_S              =  -3.0888481624763E+00
(PID.TID 0000.0001) %MON thSI_Tic2_ave_N              =  -4.8975201003891E+00
(PID.TID 0000.0001) %MON thSI_Tic2_min_S              =  -8.6709856290093E+00
(PID.TID 0000.0001) %MON thSI_Tic2_min_N              =  -7.5697097301817E+00
(PID.TID 0000.0001) %MON thSI_Tic2_max_S              =  -1.1884072020683E+00
(PID.TID 0000.0001) %MON thSI_Tic2_max_N              =  -1.2242243277759E+00
(PID.TID 0000.0001) // =======================================================
(PID.TID 0000.0001) // End MONITOR Therm.SeaIce statistics
(PID.TID 0000.0001) // =======================================================
 cg2d: Sum(rhs),rhsMax =   3.91499407619138E+02  2.29487198217081E+02
(PID.TID 0000.0001)                    cg2d_init_res =    2.92897091827713E+00
(PID.TID 0000.0001)                       cg2d_iters =    67
(PID.TID 0000.0001)                         cg2d_res =    5.52939184771500E-07
(PID.TID 0000.0001) // =======================================================
(PID.TID 0000.0001) // Begin MONITOR dynamic field statistics
(PID.TID 0000.0001) // =======================================================
(PID.TID 0000.0001) %MON time_tsnumber                =                 36006
(PID.TID 0000.0001) %MON time_secondsf                =   3.1109184000000E+09
(PID.TID 0000.0001) %MON dynstat_eta_max              =   7.2774338669191E-01
(PID.TID 0000.0001) %MON dynstat_eta_min              =  -1.1977591659911E+01
(PID.TID 0000.0001) %MON dynstat_eta_mean             =  -5.8229391554464E-01
(PID.TID 0000.0001) %MON dynstat_eta_sd               =   1.7020417777614E+00
(PID.TID 0000.0001) %MON dynstat_eta_del2             =   9.8164272322282E-02
(PID.TID 0000.0001) %MON dynstat_uvel_max             =   1.7440136310915E-01
(PID.TID 0000.0001) %MON dynstat_uvel_min             =  -2.6939362810532E-01
(PID.TID 0000.0001) %MON dynstat_uvel_mean            =  -5.2611418104001E-04
(PID.TID 0000.0001) %MON dynstat_uvel_sd              =   1.2982438731041E-02
(PID.TID 0000.0001) %MON dynstat_uvel_del2            =   1.7913440660074E-03
(PID.TID 0000.0001) %MON dynstat_vvel_max             =   1.9505814597241E-01
(PID.TID 0000.0001) %MON dynstat_vvel_min             =  -2.1108931301267E-01
(PID.TID 0000.0001) %MON dynstat_vvel_mean            =  -4.2330017164139E-04
(PID.TID 0000.0001) %MON dynstat_vvel_sd              =   1.3481279915117E-02
(PID.TID 0000.0001) %MON dynstat_vvel_del2            =   1.8254254788719E-03
(PID.TID 0000.0001) %MON dynstat_wvel_max             =   8.5348942330832E-05
(PID.TID 0000.0001) %MON dynstat_wvel_min             =  -1.7821510534711E-04
(PID.TID 0000.0001) %MON dynstat_wvel_mean            =  -1.0976019199480E-09
(PID.TID 0000.0001) %MON dynstat_wvel_sd              =   4.6230663056737E-06
(PID.TID 0000.0001) %MON dynstat_wvel_del2            =   1.1363090156587E-06
(PID.TID 0000.0001) %MON dynstat_theta_max            =   3.0042876824198E+01
(PID.TID 0000.0001) %MON dynstat_theta_min            =  -3.3414282692797E+00
(PID.TID 0000.0001) %MON dynstat_theta_mean           =   3.5031477057031E+00
(PID.TID 0000.0001) %MON dynstat_theta_sd             =   4.7492600702086E+00
(PID.TID 0000.0001) %MON dynstat_theta_del2           =   9.5287413431666E-02
(PID.TID 0000.0001) %MON dynstat_salt_max             =   4.0829229743325E+01
(PID.TID 0000.0001) %MON dynstat_salt_min             =   1.8033757051013E+01
(PID.TID 0000.0001) %MON dynstat_salt_mean            =   3.4756112400988E+01
(PID.TID 0000.0001) %MON dynstat_salt_sd              =   5.1183999739759E-01
(PID.TID 0000.0001) %MON dynstat_salt_del2            =   2.0052783512534E-02
(PID.TID 0000.0001) %MON extforcing_qnet_max          =   7.8711925866962E+02
(PID.TID 0000.0001) %MON extforcing_qnet_min          =  -6.0486493769289E+02
(PID.TID 0000.0001) %MON extforcing_qnet_mean         =  -5.7670352416780E+00
(PID.TID 0000.0001) %MON extforcing_qnet_sd           =   1.2106228163651E+02
(PID.TID 0000.0001) %MON extforcing_qnet_del2         =   1.2659506329630E+01
(PID.TID 0000.0001) %MON extforcing_qsw_max           =   0.0000000000000E+00
(PID.TID 0000.0001) %MON extforcing_qsw_min           =  -3.4093640795569E+02
(PID.TID 0000.0001) %MON extforcing_qsw_mean          =  -1.8653698843333E+02
(PID.TID 0000.0001) %MON extforcing_qsw_sd            =   8.0234998735537E+01
(PID.TID 0000.0001) %MON extforcing_qsw_del2          =   3.9111967932864E+00
(PID.TID 0000.0001) %MON extforcing_empmr_max         =   1.7900213910895E-03
(PID.TID 0000.0001) %MON extforcing_empmr_min         =  -3.6484175422775E-04
(PID.TID 0000.0001) %MON extforcing_empmr_mean        =   6.1866926428702E-07
(PID.TID 0000.0001) %MON extforcing_empmr_sd          =   6.2707843279673E-05
(PID.TID 0000.0001) %MON extforcing_empmr_del2        =   9.4369925732441E-06
(PID.TID 0000.0001) %MON advcfl_uvel_max              =   7.6405142973949E-02
(PID.TID 0000.0001) %MON advcfl_vvel_max              =   8.5023097808433E-02
(PID.TID 0000.0001) %MON advcfl_wvel_max              =   5.8104849441473E-02
(PID.TID 0000.0001) %MON advcfl_W_hf_max              =   6.4189491076934E-02
(PID.TID 0000.0001) %MON pe_b_mean                    =  -1.9315100138419E-03
(PID.TID 0000.0001) %MON ke_max                       =   3.6258217139795E-02
(PID.TID 0000.0001) %MON ke_mean                      =   1.6195939414723E-04
(PID.TID 0000.0001) %MON ke_vol                       =   1.3395905751226E+18
(PID.TID 0000.0001) %MON vort_r_min                   =  -1.2335297853377E-06
(PID.TID 0000.0001) %MON vort_r_max                   =   1.3828222797322E-06
(PID.TID 0000.0001) %MON vort_a_mean                  =  -2.0549865324846E-05
(PID.TID 0000.0001) %MON vort_a_sd                    =   7.5259582657991E-05
(PID.TID 0000.0001) %MON vort_p_mean                  =  -2.4787197542056E-05
(PID.TID 0000.0001) %MON vort_p_sd                    =   1.2817300431838E-04
(PID.TID 0000.0001) %MON surfExpan_theta_mean         =   7.8574529527796E-08
(PID.TID 0000.0001) %MON surfExpan_salt_mean          =   1.8270703064193E-08
(PID.TID 0000.0001) // =======================================================
(PID.TID 0000.0001) // End MONITOR dynamic field statistics
(PID.TID 0000.0001) // =======================================================
(PID.TID 0000.0001) // =======================================================
(PID.TID 0000.0001) // Begin MONITOR Therm.SeaIce statistics
(PID.TID 0000.0001) // =======================================================
(PID.TID 0000.0001) %MON thSI_time_sec                =   3.1109184000000E+09
(PID.TID 0000.0001) %MON thSI_Ice_Area_G              =   2.4886508325357E+13
(PID.TID 0000.0001) %MON thSI_Ice_Area_S              =   1.1812503707860E+13
(PID.TID 0000.0001) %MON thSI_Ice_Area_N              =   1.3074004617496E+13
(PID.TID 0000.0001) %MON thSI_IceH_ave_G              =   4.5697963412322E+00
(PID.TID 0000.0001) %MON thSI_IceH_ave_S              =   5.7665676927055E+00
(PID.TID 0000.0001) %MON thSI_IceH_ave_N              =   3.4885005607626E+00
(PID.TID 0000.0001) %MON thSI_IceH_max_S              =   1.0000000000000E+01
(PID.TID 0000.0001) %MON thSI_IceH_max_N              =   1.0000000000000E+01
(PID.TID 0000.0001) %MON thSI_SnwH_ave_G              =   1.0302349545799E+00
(PID.TID 0000.0001) %MON thSI_SnwH_ave_S              =   1.7764038244594E+00
(PID.TID 0000.0001) %MON thSI_SnwH_ave_N              =   3.5606335987609E-01
(PID.TID 0000.0001) %MON thSI_SnwH_max_S              =   4.0937744614570E+00
(PID.TID 0000.0001) %MON thSI_SnwH_max_N              =   4.1025407763647E+00
(PID.TID 0000.0001) %MON thSI_TotEnerg_G              =  -3.8138775025645E+22
(PID.TID 0000.0001) %MON thSI_Tsrf_ave_G              =  -1.7163466506097E+01
(PID.TID 0000.0001) %MON thSI_Tsrf_ave_S              =  -1.3314523146233E-01
(PID.TID 0000.0001) %MON thSI_Tsrf_ave_N              =  -3.2550544841181E+01
(PID.TID 0000.0001) %MON thSI_Tsrf_min_S              =  -5.3858531482056E+00
(PID.TID 0000.0001) %MON thSI_Tsrf_min_N              =  -4.6813002184244E+01
(PID.TID 0000.0001) %MON thSI_Tsrf_max_S              =   0.0000000000000E+00
(PID.TID 0000.0001) %MON thSI_Tsrf_max_N              =  -7.3479178896988E+00
(PID.TID 0000.0001) %MON thSI_Tic1_ave_G              =  -8.4607719405607E+00
(PID.TID 0000.0001) %MON thSI_Tic1_ave_S              =  -5.0419380194221E+00
(PID.TID 0000.0001) %MON thSI_Tic1_ave_N              =  -1.3566879107207E+01
(PID.TID 0000.0001) %MON thSI_Tic1_min_S              =  -1.5764668044556E+01
(PID.TID 0000.0001) %MON thSI_Tic1_min_N              =  -2.1020816476159E+01
(PID.TID 0000.0001) %MON thSI_Tic1_max_S              =  -1.9066091984354E-01
(PID.TID 0000.0001) %MON thSI_Tic1_max_N              =  -7.0517891315355E-01
(PID.TID 0000.0001) %MON thSI_Tic2_ave_G              =  -3.8241901021069E+00
(PID.TID 0000.0001) %MON thSI_Tic2_ave_S              =  -3.0850023138389E+00
(PID.TID 0000.0001) %MON thSI_Tic2_ave_N              =  -4.9281840808244E+00
(PID.TID 0000.0001) %MON thSI_Tic2_min_S              =  -8.6430485045721E+00
(PID.TID 0000.0001) %MON thSI_Tic2_min_N              =  -7.6042061906688E+00
(PID.TID 0000.0001) %MON thSI_Tic2_max_S              =  -1.1904793155134E+00
(PID.TID 0000.0001) %MON thSI_Tic2_max_N              =  -1.2394023823757E+00
(PID.TID 0000.0001) // =======================================================
(PID.TID 0000.0001) // End MONITOR Therm.SeaIce statistics
(PID.TID 0000.0001) // =======================================================
 cg2d: Sum(rhs),rhsMax =   3.91509297223111E+02  2.29566698430123E+02
(PID.TID 0000.0001)                    cg2d_init_res =    2.77965884911395E+00
(PID.TID 0000.0001)                       cg2d_iters =    68
(PID.TID 0000.0001)                         cg2d_res =    5.36088830022062E-07
(PID.TID 0000.0001) // =======================================================
(PID.TID 0000.0001) // Begin MONITOR dynamic field statistics
(PID.TID 0000.0001) // =======================================================
(PID.TID 0000.0001) %MON time_tsnumber                =                 36007
(PID.TID 0000.0001) %MON time_secondsf                =   3.1110048000000E+09
(PID.TID 0000.0001) %MON dynstat_eta_max              =   7.2655174601333E-01
(PID.TID 0000.0001) %MON dynstat_eta_min              =  -1.1975499478976E+01
(PID.TID 0000.0001) %MON dynstat_eta_mean             =  -5.8230862477819E-01
(PID.TID 0000.0001) %MON dynstat_eta_sd               =   1.7015447107646E+00
(PID.TID 0000.0001) %MON dynstat_eta_del2             =   9.8218687848313E-02
(PID.TID 0000.0001) %MON dynstat_uvel_max             =   1.7451052652465E-01
(PID.TID 0000.0001) %MON dynstat_uvel_min             =  -2.6900862111963E-01
(PID.TID 0000.0001) %MON dynstat_uvel_mean            =  -5.2557746617433E-04
(PID.TID 0000.0001) %MON dynstat_uvel_sd              =   1.2980438384365E-02
(PID.TID 0000.0001) %MON dynstat_uvel_del2            =   1.7909663696137E-03
(PID.TID 0000.0001) %MON dynstat_vvel_max             =   1.9516646725869E-01
(PID.TID 0000.0001) %MON dynstat_vvel_min             =  -2.1116269833283E-01
(PID.TID 0000.0001) %MON dynstat_vvel_mean            =  -4.2266492485889E-04
(PID.TID 0000.0001) %MON dynstat_vvel_sd              =   1.3481722312011E-02
(PID.TID 0000.0001) %MON dynstat_vvel_del2            =   1.8242949623340E-03
(PID.TID 0000.0001) %MON dynstat_wvel_max             =   8.6107233909634E-05
(PID.TID 0000.0001) %MON dynstat_wvel_min             =  -1.7826799941973E-04
(PID.TID 0000.0001) %MON dynstat_wvel_mean            =  -1.1668819688846E-09
(PID.TID 0000.0001) %MON dynstat_wvel_sd              =   4.6225102263577E-06
(PID.TID 0000.0001) %MON dynstat_wvel_del2            =   1.1359897435732E-06
(PID.TID 0000.0001) %MON dynstat_theta_max            =   3.0021802048879E+01
(PID.TID 0000.0001) %MON dynstat_theta_min            =  -3.3488689733355E+00
(PID.TID 0000.0001) %MON dynstat_theta_mean           =   3.5032138058376E+00
(PID.TID 0000.0001) %MON dynstat_theta_sd             =   4.7493469843201E+00
(PID.TID 0000.0001) %MON dynstat_theta_del2           =   9.5303169989553E-02
(PID.TID 0000.0001) %MON dynstat_salt_max             =   4.0831024834176E+01
(PID.TID 0000.0001) %MON dynstat_salt_min             =   1.8034317400091E+01
(PID.TID 0000.0001) %MON dynstat_salt_mean            =   3.4756113372676E+01
(PID.TID 0000.0001) %MON dynstat_salt_sd              =   5.1183253054358E-01
(PID.TID 0000.0001) %MON dynstat_salt_del2            =   2.0048883652779E-02
(PID.TID 0000.0001) %MON extforcing_qnet_max          =   7.9038456668655E+02
(PID.TID 0000.0001) %MON extforcing_qnet_min          =  -3.6658224186915E+02
(PID.TID 0000.0001) %MON extforcing_qnet_mean         =  -5.8071040258287E+00
(PID.TID 0000.0001) %MON extforcing_qnet_sd           =   1.2059615685432E+02
(PID.TID 0000.0001) %MON extforcing_qnet_del2         =   1.2528868570333E+01
(PID.TID 0000.0001) %MON extforcing_qsw_max           =   0.0000000000000E+00
(PID.TID 0000.0001) %MON extforcing_qsw_min           =  -3.4073236530849E+02
(PID.TID 0000.0001) %MON extforcing_qsw_mean          =  -1.8655107526620E+02
(PID.TID 0000.0001) %MON extforcing_qsw_sd            =   8.0098441968893E+01
(PID.TID 0000.0001) %MON extforcing_qsw_del2          =   3.9101607475972E+00
(PID.TID 0000.0001) %MON extforcing_empmr_max         =   1.0846852335446E-03
(PID.TID 0000.0001) %MON extforcing_empmr_min         =  -3.5175627072880E-04
(PID.TID 0000.0001) %MON extforcing_empmr_mean        =   1.7620436022004E-07
(PID.TID 0000.0001) %MON extforcing_empmr_sd          =   5.5235346002833E-05
(PID.TID 0000.0001) %MON extforcing_empmr_del2        =   8.8769648857080E-06
(PID.TID 0000.0001) %MON advcfl_uvel_max              =   7.6295947689731E-02
(PID.TID 0000.0001) %MON advcfl_vvel_max              =   8.5070313531067E-02
(PID.TID 0000.0001) %MON advcfl_wvel_max              =   5.8122094905150E-02
(PID.TID 0000.0001) %MON advcfl_W_hf_max              =   6.4208557283343E-02
(PID.TID 0000.0001) %MON pe_b_mean                    =  -1.9308648057306E-03
(PID.TID 0000.0001) %MON ke_max                       =   3.6138673439946E-02
(PID.TID 0000.0001) %MON ke_mean                      =   1.6194057222906E-04
(PID.TID 0000.0001) %MON ke_vol                       =   1.3395905563296E+18
(PID.TID 0000.0001) %MON vort_r_min                   =  -1.2381845512427E-06
(PID.TID 0000.0001) %MON vort_r_max                   =   1.3862365782033E-06
(PID.TID 0000.0001) %MON vort_a_mean                  =  -2.0549865324846E-05
(PID.TID 0000.0001) %MON vort_a_sd                    =   7.5259582585218E-05
(PID.TID 0000.0001) %MON vort_p_mean                  =  -2.4787197428633E-05
(PID.TID 0000.0001) %MON vort_p_sd                    =   1.2817300951655E-04
(PID.TID 0000.0001) %MON surfExpan_theta_mean         =   7.9593287227825E-08
(PID.TID 0000.0001) %MON surfExpan_salt_mean          =   1.8724823263867E-08
(PID.TID 0000.0001) // =======================================================
(PID.TID 0000.0001) // End MONITOR dynamic field statistics
(PID.TID 0000.0001) // =======================================================
(PID.TID 0000.0001) // =======================================================
(PID.TID 0000.0001) // Begin MONITOR Therm.SeaIce statistics
(PID.TID 0000.0001) // =======================================================
(PID.TID 0000.0001) %MON thSI_time_sec                =   3.1110048000000E+09
(PID.TID 0000.0001) %MON thSI_Ice_Area_G              =   2.4923227519715E+13
(PID.TID 0000.0001) %MON thSI_Ice_Area_S              =   1.1771753835252E+13
(PID.TID 0000.0001) %MON thSI_Ice_Area_N              =   1.3151473684463E+13
(PID.TID 0000.0001) %MON thSI_IceH_ave_G              =   4.5639506409618E+00
(PID.TID 0000.0001) %MON thSI_IceH_ave_S              =   5.7796910955863E+00
(PID.TID 0000.0001) %MON thSI_IceH_ave_N              =   3.4757534014157E+00
(PID.TID 0000.0001) %MON thSI_IceH_max_S              =   1.0000000000000E+01
(PID.TID 0000.0001) %MON thSI_IceH_max_N              =   1.0000000000000E+01
(PID.TID 0000.0001) %MON thSI_SnwH_ave_G              =   1.0246882514876E+00
(PID.TID 0000.0001) %MON thSI_SnwH_ave_S              =   1.7707514266463E+00
(PID.TID 0000.0001) %MON thSI_SnwH_ave_N              =   3.5689449283910E-01
(PID.TID 0000.0001) %MON thSI_SnwH_max_S              =   4.0936809948724E+00
(PID.TID 0000.0001) %MON thSI_SnwH_max_N              =   4.1027637677104E+00
(PID.TID 0000.0001) %MON thSI_TotEnerg_G              =  -3.8137948908008E+22
(PID.TID 0000.0001) %MON thSI_Tsrf_ave_G              =  -1.7216886154114E+01
(PID.TID 0000.0001) %MON thSI_Tsrf_ave_S              =  -1.1521197797157E-01
(PID.TID 0000.0001) %MON thSI_Tsrf_ave_N              =  -3.2524425324425E+01
(PID.TID 0000.0001) %MON thSI_Tsrf_min_S              =  -5.4020394711953E+00
(PID.TID 0000.0001) %MON thSI_Tsrf_min_N              =  -4.6927730881621E+01
(PID.TID 0000.0001) %MON thSI_Tsrf_max_S              =   0.0000000000000E+00
(PID.TID 0000.0001) %MON thSI_Tsrf_max_N              =  -1.8883339903316E+00
(PID.TID 0000.0001) %MON thSI_Tic1_ave_G              =  -8.4847451545488E+00
(PID.TID 0000.0001) %MON thSI_Tic1_ave_S              =  -5.0214278644361E+00
(PID.TID 0000.0001) %MON thSI_Tic1_ave_N              =  -1.3639579383096E+01
(PID.TID 0000.0001) %MON thSI_Tic1_min_S              =  -1.5621093584117E+01
(PID.TID 0000.0001) %MON thSI_Tic1_min_N              =  -2.1088252258166E+01
(PID.TID 0000.0001) %MON thSI_Tic1_max_S              =  -1.8291420747778E-01
(PID.TID 0000.0001) %MON thSI_Tic1_max_N              =  -7.2239286793594E-01
(PID.TID 0000.0001) %MON thSI_Tic2_ave_G              =  -3.8354810112368E+00
(PID.TID 0000.0001) %MON thSI_Tic2_ave_S              =  -3.0811513533867E+00
(PID.TID 0000.0001) %MON thSI_Tic2_ave_N              =  -4.9582324123270E+00
(PID.TID 0000.0001) %MON thSI_Tic2_min_S              =  -8.6149136366392E+00
(PID.TID 0000.0001) %MON thSI_Tic2_min_N              =  -7.6376221830648E+00
(PID.TID 0000.0001) %MON thSI_Tic2_max_S              =  -1.1941113592877E+00
(PID.TID 0000.0001) %MON thSI_Tic2_max_N              =  -1.2550510991444E+00
(PID.TID 0000.0001) // =======================================================
(PID.TID 0000.0001) // End MONITOR Therm.SeaIce statistics
(PID.TID 0000.0001) // =======================================================
 cg2d: Sum(rhs),rhsMax =   3.91503768623884E+02  2.29653736900119E+02
(PID.TID 0000.0001)                    cg2d_init_res =    2.70203148502853E+00
(PID.TID 0000.0001)                       cg2d_iters =    69
(PID.TID 0000.0001)                         cg2d_res =    5.11577336481650E-07
(PID.TID 0000.0001) // =======================================================
(PID.TID 0000.0001) // Begin MONITOR dynamic field statistics
(PID.TID 0000.0001) // =======================================================
(PID.TID 0000.0001) %MON time_tsnumber                =                 36008
(PID.TID 0000.0001) %MON time_secondsf                =   3.1110912000000E+09
(PID.TID 0000.0001) %MON dynstat_eta_max              =   7.2531873118504E-01
(PID.TID 0000.0001) %MON dynstat_eta_min              =  -1.1973319578344E+01
(PID.TID 0000.0001) %MON dynstat_eta_mean             =  -5.8230040185466E-01
(PID.TID 0000.0001) %MON dynstat_eta_sd               =   1.7010267589621E+00
(PID.TID 0000.0001) %MON dynstat_eta_del2             =   9.8268380187131E-02
(PID.TID 0000.0001) %MON dynstat_uvel_max             =   1.7455221937553E-01
(PID.TID 0000.0001) %MON dynstat_uvel_min             =  -2.6861149336029E-01
(PID.TID 0000.0001) %MON dynstat_uvel_mean            =  -5.2508413735075E-04
(PID.TID 0000.0001) %MON dynstat_uvel_sd              =   1.2978388120682E-02
(PID.TID 0000.0001) %MON dynstat_uvel_del2            =   1.7904670564116E-03
(PID.TID 0000.0001) %MON dynstat_vvel_max             =   1.9521111920796E-01
(PID.TID 0000.0001) %MON dynstat_vvel_min             =  -2.1122941163269E-01
(PID.TID 0000.0001) %MON dynstat_vvel_mean            =  -4.2193417761501E-04
(PID.TID 0000.0001) %MON dynstat_vvel_sd              =   1.3481775601670E-02
(PID.TID 0000.0001) %MON dynstat_vvel_del2            =   1.8231308092405E-03
(PID.TID 0000.0001) %MON dynstat_wvel_max             =   8.6876977669104E-05
(PID.TID 0000.0001) %MON dynstat_wvel_min             =  -1.7827057529018E-04
(PID.TID 0000.0001) %MON dynstat_wvel_mean            =  -1.1946867482734E-09
(PID.TID 0000.0001) %MON dynstat_wvel_sd              =   4.6220873878838E-06
(PID.TID 0000.0001) %MON dynstat_wvel_del2            =   1.1358377876533E-06
(PID.TID 0000.0001) %MON dynstat_theta_max            =   3.0000605634386E+01
(PID.TID 0000.0001) %MON dynstat_theta_min            =  -3.3670710277112E+00
(PID.TID 0000.0001) %MON dynstat_theta_mean           =   3.5032806756359E+00
(PID.TID 0000.0001) %MON dynstat_theta_sd             =   4.7494424964169E+00
(PID.TID 0000.0001) %MON dynstat_theta_del2           =   9.5348131750141E-02
(PID.TID 0000.0001) %MON dynstat_salt_max             =   4.0832684299105E+01
(PID.TID 0000.0001) %MON dynstat_salt_min             =   1.8034875180377E+01
(PID.TID 0000.0001) %MON dynstat_salt_mean            =   3.4756114166606E+01
(PID.TID 0000.0001) %MON dynstat_salt_sd              =   5.1182559672503E-01
(PID.TID 0000.0001) %MON dynstat_salt_del2            =   2.0047626976218E-02
(PID.TID 0000.0001) %MON extforcing_qnet_max          =   7.9361545319760E+02
(PID.TID 0000.0001) %MON extforcing_qnet_min          =  -2.3631242929670E+02
(PID.TID 0000.0001) %MON extforcing_qnet_mean         =  -5.8817586572673E+00
(PID.TID 0000.0001) %MON extforcing_qnet_sd           =   1.2044935518385E+02
(PID.TID 0000.0001) %MON extforcing_qnet_del2         =   1.2523111962220E+01
(PID.TID 0000.0001) %MON extforcing_qsw_max           =   0.0000000000000E+00
(PID.TID 0000.0001) %MON extforcing_qsw_min           =  -3.4052832266130E+02
(PID.TID 0000.0001) %MON extforcing_qsw_mean          =  -1.8656786752218E+02
(PID.TID 0000.0001) %MON extforcing_qsw_sd            =   7.9956857982176E+01
(PID.TID 0000.0001) %MON extforcing_qsw_del2          =   3.9047524990371E+00
(PID.TID 0000.0001) %MON extforcing_empmr_max         =   7.7364662397366E-04
(PID.TID 0000.0001) %MON extforcing_empmr_min         =  -3.3749339523675E-04
(PID.TID 0000.0001) %MON extforcing_empmr_mean        =  -9.8503771469153E-08
(PID.TID 0000.0001) %MON extforcing_empmr_sd          =   5.2342343065904E-05
(PID.TID 0000.0001) %MON extforcing_empmr_del2        =   8.5682355199364E-06
(PID.TID 0000.0001) %MON advcfl_uvel_max              =   7.6183314724191E-02
(PID.TID 0000.0001) %MON advcfl_vvel_max              =   8.5089776686688E-02
(PID.TID 0000.0001) %MON advcfl_wvel_max              =   5.8122934736118E-02
(PID.TID 0000.0001) %MON advcfl_W_hf_max              =   6.4209496264110E-02
(PID.TID 0000.0001) %MON pe_b_mean                    =  -1.9300326567690E-03
(PID.TID 0000.0001) %MON ke_max                       =   3.6016599334835E-02
(PID.TID 0000.0001) %MON ke_mean                      =   1.6191627730202E-04
(PID.TID 0000.0001) %MON ke_vol                       =   1.3395905509771E+18
(PID.TID 0000.0001) %MON vort_r_min                   =  -1.2429946925026E-06
(PID.TID 0000.0001) %MON vort_r_max                   =   1.3896997107873E-06
(PID.TID 0000.0001) %MON vort_a_mean                  =  -2.0549865324846E-05
(PID.TID 0000.0001) %MON vort_a_sd                    =   7.5259582519369E-05
(PID.TID 0000.0001) %MON vort_p_mean                  =  -2.4787197077809E-05
(PID.TID 0000.0001) %MON vort_p_sd                    =   1.2817301200150E-04
(PID.TID 0000.0001) %MON surfExpan_theta_mean         =   8.0187474816418E-08
(PID.TID 0000.0001) %MON surfExpan_salt_mean          =   1.9004918477871E-08
(PID.TID 0000.0001) // =======================================================
(PID.TID 0000.0001) // End MONITOR dynamic field statistics
(PID.TID 0000.0001) // =======================================================
(PID.TID 0000.0001) // =======================================================
(PID.TID 0000.0001) // Begin MONITOR Therm.SeaIce statistics
(PID.TID 0000.0001) // =======================================================
(PID.TID 0000.0001) %MON thSI_time_sec                =   3.1110912000000E+09
(PID.TID 0000.0001) %MON thSI_Ice_Area_G              =   2.4935860689093E+13
(PID.TID 0000.0001) %MON thSI_Ice_Area_S              =   1.1733827298842E+13
(PID.TID 0000.0001) %MON thSI_Ice_Area_N              =   1.3202033390251E+13
(PID.TID 0000.0001) %MON thSI_IceH_ave_G              =   4.5620651410973E+00
(PID.TID 0000.0001) %MON thSI_IceH_ave_S              =   5.7915136848161E+00
(PID.TID 0000.0001) %MON thSI_IceH_ave_N              =   3.4693443110271E+00
(PID.TID 0000.0001) %MON thSI_IceH_max_S              =   1.0000000000000E+01
(PID.TID 0000.0001) %MON thSI_IceH_max_N              =   1.0000000000000E+01
(PID.TID 0000.0001) %MON thSI_SnwH_ave_G              =   1.0204766358473E+00
(PID.TID 0000.0001) %MON thSI_SnwH_ave_S              =   1.7653451700664E+00
(PID.TID 0000.0001) %MON thSI_SnwH_ave_N              =   3.5844538031931E-01
(PID.TID 0000.0001) %MON thSI_SnwH_max_S              =   4.0935945630532E+00
(PID.TID 0000.0001) %MON thSI_SnwH_max_N              =   4.1030063895761E+00
(PID.TID 0000.0001) %MON thSI_TotEnerg_G              =  -3.8133872537135E+22
(PID.TID 0000.0001) %MON thSI_Tsrf_ave_G              =  -1.7309541283242E+01
(PID.TID 0000.0001) %MON thSI_Tsrf_ave_S              =  -1.3696061292064E-01
(PID.TID 0000.0001) %MON thSI_Tsrf_ave_N              =  -3.2572348905725E+01
(PID.TID 0000.0001) %MON thSI_Tsrf_min_S              =  -5.4181865571577E+00
(PID.TID 0000.0001) %MON thSI_Tsrf_min_N              =  -4.7042517882980E+01
(PID.TID 0000.0001) %MON thSI_Tsrf_max_S              =   0.0000000000000E+00
(PID.TID 0000.0001) %MON thSI_Tsrf_max_N              =  -8.1883374957074E+00
(PID.TID 0000.0001) %MON thSI_Tic1_ave_G              =  -8.5056499049344E+00
(PID.TID 0000.0001) %MON thSI_Tic1_ave_S              =  -4.9956413723480E+00
(PID.TID 0000.0001) %MON thSI_Tic1_ave_N              =  -1.3713419013368E+01
(PID.TID 0000.0001) %MON thSI_Tic1_min_S              =  -1.5479148947696E+01
(PID.TID 0000.0001) %MON thSI_Tic1_min_N              =  -2.1153429795544E+01
(PID.TID 0000.0001) %MON thSI_Tic1_max_S              =  -1.9879481326206E-01
(PID.TID 0000.0001) %MON thSI_Tic1_max_N              =  -7.4036438429128E-01
(PID.TID 0000.0001) %MON thSI_Tic2_ave_G              =  -3.8467265731306E+00
(PID.TID 0000.0001) %MON thSI_Tic2_ave_S              =  -3.0772609830291E+00
(PID.TID 0000.0001) %MON thSI_Tic2_ave_N              =  -4.9883759716808E+00
(PID.TID 0000.0001) %MON thSI_Tic2_min_S              =  -8.5854002809849E+00
(PID.TID 0000.0001) %MON thSI_Tic2_min_N              =  -7.6699896764508E+00
(PID.TID 0000.0001) %MON thSI_Tic2_max_S              =  -1.2009693750292E+00
(PID.TID 0000.0001) %MON thSI_Tic2_max_N              =  -1.2709268243837E+00
(PID.TID 0000.0001) // =======================================================
(PID.TID 0000.0001) // End MONITOR Therm.SeaIce statistics
(PID.TID 0000.0001) // =======================================================
 cg2d: Sum(rhs),rhsMax =   3.91486139872352E+02  2.29746963060207E+02
(PID.TID 0000.0001)                    cg2d_init_res =    2.67156784250222E+00
(PID.TID 0000.0001)                       cg2d_iters =    69
(PID.TID 0000.0001)                         cg2d_res =    5.44418241057509E-07
(PID.TID 0000.0001) // =======================================================
(PID.TID 0000.0001) // Begin MONITOR dynamic field statistics
(PID.TID 0000.0001) // =======================================================
(PID.TID 0000.0001) %MON time_tsnumber                =                 36009
(PID.TID 0000.0001) %MON time_secondsf                =   3.1111776000000E+09
(PID.TID 0000.0001) %MON dynstat_eta_max              =   7.2403424935700E-01
(PID.TID 0000.0001) %MON dynstat_eta_min              =  -1.1971042154528E+01
(PID.TID 0000.0001) %MON dynstat_eta_mean             =  -5.8227418185392E-01
(PID.TID 0000.0001) %MON dynstat_eta_sd               =   1.7005245530019E+00
(PID.TID 0000.0001) %MON dynstat_eta_del2             =   9.8309106748201E-02
(PID.TID 0000.0001) %MON dynstat_uvel_max             =   1.7452811878669E-01
(PID.TID 0000.0001) %MON dynstat_uvel_min             =  -2.6820187944106E-01
(PID.TID 0000.0001) %MON dynstat_uvel_mean            =  -5.2461895251579E-04
(PID.TID 0000.0001) %MON dynstat_uvel_sd              =   1.2976354693890E-02
(PID.TID 0000.0001) %MON dynstat_uvel_del2            =   1.7899762909145E-03
(PID.TID 0000.0001) %MON dynstat_vvel_max             =   1.9519195365315E-01
(PID.TID 0000.0001) %MON dynstat_vvel_min             =  -2.1128980936853E-01
(PID.TID 0000.0001) %MON dynstat_vvel_mean            =  -4.2116387204682E-04
(PID.TID 0000.0001) %MON dynstat_vvel_sd              =   1.3481408306787E-02
(PID.TID 0000.0001) %MON dynstat_vvel_del2            =   1.8220035656244E-03
(PID.TID 0000.0001) %MON dynstat_wvel_max             =   8.7646784032057E-05
(PID.TID 0000.0001) %MON dynstat_wvel_min             =  -1.7822554338375E-04
(PID.TID 0000.0001) %MON dynstat_wvel_mean            =  -1.2228266201769E-09
(PID.TID 0000.0001) %MON dynstat_wvel_sd              =   4.6218065611356E-06
(PID.TID 0000.0001) %MON dynstat_wvel_del2            =   1.1358137428261E-06
(PID.TID 0000.0001) %MON dynstat_theta_max            =   2.9979348113693E+01
(PID.TID 0000.0001) %MON dynstat_theta_min            =  -3.3852753974119E+00
(PID.TID 0000.0001) %MON dynstat_theta_mean           =   3.5033482231082E+00
(PID.TID 0000.0001) %MON dynstat_theta_sd             =   4.7495464031440E+00
(PID.TID 0000.0001) %MON dynstat_theta_del2           =   9.5354304403160E-02
(PID.TID 0000.0001) %MON dynstat_salt_max             =   4.0834210162556E+01
(PID.TID 0000.0001) %MON dynstat_salt_min             =   1.8035437163549E+01
(PID.TID 0000.0001) %MON dynstat_salt_mean            =   3.4756114830703E+01
(PID.TID 0000.0001) %MON dynstat_salt_sd              =   5.1181887113967E-01
(PID.TID 0000.0001) %MON dynstat_salt_del2            =   2.0041794487126E-02
(PID.TID 0000.0001) %MON extforcing_qnet_max          =   7.9679638952922E+02
(PID.TID 0000.0001) %MON extforcing_qnet_min          =  -2.3593040361623E+02
(PID.TID 0000.0001) %MON extforcing_qnet_mean         =  -5.9424603488842E+00
(PID.TID 0000.0001) %MON extforcing_qnet_sd           =   1.2037409410363E+02
(PID.TID 0000.0001) %MON extforcing_qnet_del2         =   1.2530333100546E+01
(PID.TID 0000.0001) %MON extforcing_qsw_max           =   0.0000000000000E+00
(PID.TID 0000.0001) %MON extforcing_qsw_min           =  -3.4032428001410E+02
(PID.TID 0000.0001) %MON extforcing_qsw_mean          =  -1.8658003475051E+02
(PID.TID 0000.0001) %MON extforcing_qsw_sd            =   7.9818066520030E+01
(PID.TID 0000.0001) %MON extforcing_qsw_del2          =   3.9012468694301E+00
(PID.TID 0000.0001) %MON extforcing_empmr_max         =   5.1402201507390E-04
(PID.TID 0000.0001) %MON extforcing_empmr_min         =  -3.0316831191290E-04
(PID.TID 0000.0001) %MON extforcing_empmr_mean        =  -3.1409375882674E-07
(PID.TID 0000.0001) %MON extforcing_empmr_sd          =   4.9947911784376E-05
(PID.TID 0000.0001) %MON extforcing_empmr_del2        =   8.3059890475435E-06
(PID.TID 0000.0001) %MON advcfl_uvel_max              =   7.6067140446858E-02
(PID.TID 0000.0001) %MON advcfl_vvel_max              =   8.5081422691355E-02
(PID.TID 0000.0001) %MON advcfl_wvel_max              =   5.8108252635305E-02
(PID.TID 0000.0001) %MON advcfl_W_hf_max              =   6.4193288440924E-02
(PID.TID 0000.0001) %MON pe_b_mean                    =  -1.9291659710240E-03
(PID.TID 0000.0001) %MON ke_max                       =   3.5891962052554E-02
(PID.TID 0000.0001) %MON ke_mean                      =   1.6188692597221E-04
(PID.TID 0000.0001) %MON ke_vol                       =   1.3395905539693E+18
(PID.TID 0000.0001) %MON vort_r_min                   =  -1.2479308338482E-06
(PID.TID 0000.0001) %MON vort_r_max                   =   1.3931643427030E-06
(PID.TID 0000.0001) %MON vort_a_mean                  =  -2.0549865324846E-05
(PID.TID 0000.0001) %MON vort_a_sd                    =   7.5259582455302E-05
(PID.TID 0000.0001) %MON vort_p_mean                  =  -2.4787196613584E-05
(PID.TID 0000.0001) %MON vort_p_sd                    =   1.2817301297664E-04
(PID.TID 0000.0001) %MON surfExpan_theta_mean         =   8.0356881236977E-08
(PID.TID 0000.0001) %MON surfExpan_salt_mean          =   1.9156129487809E-08
(PID.TID 0000.0001) // =======================================================
(PID.TID 0000.0001) // End MONITOR dynamic field statistics
(PID.TID 0000.0001) // =======================================================
(PID.TID 0000.0001) // =======================================================
(PID.TID 0000.0001) // Begin MONITOR Therm.SeaIce statistics
(PID.TID 0000.0001) // =======================================================
(PID.TID 0000.0001) %MON thSI_time_sec                =   3.1111776000000E+09
(PID.TID 0000.0001) %MON thSI_Ice_Area_G              =   2.4936097025741E+13
(PID.TID 0000.0001) %MON thSI_Ice_Area_S              =   1.1697662257206E+13
(PID.TID 0000.0001) %MON thSI_Ice_Area_N              =   1.3238434768536E+13
(PID.TID 0000.0001) %MON thSI_IceH_ave_G              =   4.5621145950435E+00
(PID.TID 0000.0001) %MON thSI_IceH_ave_S              =   5.8026409531845E+00
(PID.TID 0000.0001) %MON thSI_IceH_ave_N              =   3.4659685164162E+00
(PID.TID 0000.0001) %MON thSI_IceH_max_S              =   1.0000000000000E+01
(PID.TID 0000.0001) %MON thSI_IceH_max_N              =   1.0000000000000E+01
(PID.TID 0000.0001) %MON thSI_SnwH_ave_G              =   1.0169709263064E+00
(PID.TID 0000.0001) %MON thSI_SnwH_ave_S              =   1.7600374256242E+00
(PID.TID 0000.0001) %MON thSI_SnwH_ave_N              =   3.6038719147366E-01
(PID.TID 0000.0001) %MON thSI_SnwH_max_S              =   4.0935139510642E+00
(PID.TID 0000.0001) %MON thSI_SnwH_max_N              =   4.1032675033491E+00
(PID.TID 0000.0001) %MON thSI_TotEnerg_G              =  -3.8127734852097E+22
(PID.TID 0000.0001) %MON thSI_Tsrf_ave_G              =  -1.7380510653838E+01
(PID.TID 0000.0001) %MON thSI_Tsrf_ave_S              =  -1.1853595928950E-01
(PID.TID 0000.0001) %MON thSI_Tsrf_ave_N              =  -3.2633427890638E+01
(PID.TID 0000.0001) %MON thSI_Tsrf_min_S              =  -5.4342947033983E+00
(PID.TID 0000.0001) %MON thSI_Tsrf_min_N              =  -4.7157365161857E+01
(PID.TID 0000.0001) %MON thSI_Tsrf_max_S              =   0.0000000000000E+00
(PID.TID 0000.0001) %MON thSI_Tsrf_max_N              =  -9.3208502018755E+00
(PID.TID 0000.0001) %MON thSI_Tic1_ave_G              =  -8.5284872789773E+00
(PID.TID 0000.0001) %MON thSI_Tic1_ave_S              =  -4.9739267874145E+00
(PID.TID 0000.0001) %MON thSI_Tic1_ave_N              =  -1.3786836591891E+01
(PID.TID 0000.0001) %MON thSI_Tic1_min_S              =  -1.5338817169792E+01
(PID.TID 0000.0001) %MON thSI_Tic1_min_N              =  -2.1216432195976E+01
(PID.TID 0000.0001) %MON thSI_Tic1_max_S              =  -1.9135531500084E-01
(PID.TID 0000.0001) %MON thSI_Tic1_max_N              =  -7.5913577645878E-01
(PID.TID 0000.0001) %MON thSI_Tic2_ave_G              =  -3.8577655603188E+00
(PID.TID 0000.0001) %MON thSI_Tic2_ave_S              =  -3.0733285962608E+00
(PID.TID 0000.0001) %MON thSI_Tic2_ave_N              =  -5.0182025765885E+00
(PID.TID 0000.0001) %MON thSI_Tic2_min_S              =  -8.5557358843100E+00
(PID.TID 0000.0001) %MON thSI_Tic2_min_N              =  -7.7013400135742E+00
(PID.TID 0000.0001) %MON thSI_Tic2_max_S              =  -1.1586810844113E+00
(PID.TID 0000.0001) %MON thSI_Tic2_max_N              =  -1.2868269809476E+00
(PID.TID 0000.0001) // =======================================================
(PID.TID 0000.0001) // End MONITOR Therm.SeaIce statistics
(PID.TID 0000.0001) // =======================================================
 cg2d: Sum(rhs),rhsMax =   3.91457886687305E+02  2.29845851768280E+02
(PID.TID 0000.0001)                    cg2d_init_res =    2.66058318186170E+00
(PID.TID 0000.0001)                       cg2d_iters =    69
(PID.TID 0000.0001)                         cg2d_res =    5.50267762670112E-07
(PID.TID 0000.0001) // =======================================================
(PID.TID 0000.0001) // Begin MONITOR dynamic field statistics
(PID.TID 0000.0001) // =======================================================
(PID.TID 0000.0001) %MON time_tsnumber                =                 36010
(PID.TID 0000.0001) %MON time_secondsf                =   3.1112640000000E+09
(PID.TID 0000.0001) %MON dynstat_eta_max              =   7.2270180666173E-01
(PID.TID 0000.0001) %MON dynstat_eta_min              =  -1.1968648953261E+01
(PID.TID 0000.0001) %MON dynstat_eta_mean             =  -5.8223215967604E-01
(PID.TID 0000.0001) %MON dynstat_eta_sd               =   1.7000282875396E+00
(PID.TID 0000.0001) %MON dynstat_eta_del2             =   9.8344611354913E-02
(PID.TID 0000.0001) %MON dynstat_uvel_max             =   1.7444086311148E-01
(PID.TID 0000.0001) %MON dynstat_uvel_min             =  -2.6777942682886E-01
(PID.TID 0000.0001) %MON dynstat_uvel_mean            =  -5.2415701289098E-04
(PID.TID 0000.0001) %MON dynstat_uvel_sd              =   1.2974398571166E-02
(PID.TID 0000.0001) %MON dynstat_uvel_del2            =   1.7895551591952E-03
(PID.TID 0000.0001) %MON dynstat_vvel_max             =   1.9510920879700E-01
(PID.TID 0000.0001) %MON dynstat_vvel_min             =  -2.1134425245368E-01
(PID.TID 0000.0001) %MON dynstat_vvel_mean            =  -4.2040491682997E-04
(PID.TID 0000.0001) %MON dynstat_vvel_sd              =   1.3480602028705E-02
(PID.TID 0000.0001) %MON dynstat_vvel_del2            =   1.8209325261247E-03
(PID.TID 0000.0001) %MON dynstat_wvel_max             =   8.8405828655287E-05
(PID.TID 0000.0001) %MON dynstat_wvel_min             =  -1.7813644398368E-04
(PID.TID 0000.0001) %MON dynstat_wvel_mean            =  -1.2451958020206E-09
(PID.TID 0000.0001) %MON dynstat_wvel_sd              =   4.6215060670550E-06
(PID.TID 0000.0001) %MON dynstat_wvel_del2            =   1.1357297688849E-06
(PID.TID 0000.0001) %MON dynstat_theta_max            =   2.9958085669908E+01
(PID.TID 0000.0001) %MON dynstat_theta_min            =  -3.4034792315778E+00
(PID.TID 0000.0001) %MON dynstat_theta_mean           =   3.5034163342799E+00
(PID.TID 0000.0001) %MON dynstat_theta_sd             =   4.7496576528986E+00
(PID.TID 0000.0001) %MON dynstat_theta_del2           =   9.5401382538206E-02
(PID.TID 0000.0001) %MON dynstat_salt_max             =   4.0835603214248E+01
(PID.TID 0000.0001) %MON dynstat_salt_min             =   1.8036015600309E+01
(PID.TID 0000.0001) %MON dynstat_salt_mean            =   3.4756115375757E+01
(PID.TID 0000.0001) %MON dynstat_salt_sd              =   5.1181206760149E-01
(PID.TID 0000.0001) %MON dynstat_salt_del2            =   2.0041262853247E-02
(PID.TID 0000.0001) %MON extforcing_qnet_max          =   7.9995369355768E+02
(PID.TID 0000.0001) %MON extforcing_qnet_min          =  -2.3555036982618E+02
(PID.TID 0000.0001) %MON extforcing_qnet_mean         =  -5.9980071962126E+00
(PID.TID 0000.0001) %MON extforcing_qnet_sd           =   1.2037486174401E+02
(PID.TID 0000.0001) %MON extforcing_qnet_del2         =   1.2552190484030E+01
(PID.TID 0000.0001) %MON extforcing_qsw_max           =   0.0000000000000E+00
(PID.TID 0000.0001) %MON extforcing_qsw_min           =  -3.4012023736691E+02
(PID.TID 0000.0001) %MON extforcing_qsw_mean          =  -1.8659203231847E+02
(PID.TID 0000.0001) %MON extforcing_qsw_sd            =   7.9680836636754E+01
(PID.TID 0000.0001) %MON extforcing_qsw_del2          =   3.8985446030575E+00
(PID.TID 0000.0001) %MON extforcing_empmr_max         =   3.9430549916436E-04
(PID.TID 0000.0001) %MON extforcing_empmr_min         =  -3.0800471656075E-04
(PID.TID 0000.0001) %MON extforcing_empmr_mean        =  -5.0339067253023E-07
(PID.TID 0000.0001) %MON extforcing_empmr_sd          =   4.9099688884449E-05
(PID.TID 0000.0001) %MON extforcing_empmr_del2        =   8.2586575833136E-06
(PID.TID 0000.0001) %MON advcfl_uvel_max              =   7.5947324872668E-02
(PID.TID 0000.0001) %MON advcfl_vvel_max              =   8.5045355374289E-02
(PID.TID 0000.0001) %MON advcfl_wvel_max              =   5.8079202868641E-02
(PID.TID 0000.0001) %MON advcfl_W_hf_max              =   6.4161211752735E-02
(PID.TID 0000.0001) %MON pe_b_mean                    =  -1.9282423423895E-03
(PID.TID 0000.0001) %MON ke_max                       =   3.5764730831725E-02
(PID.TID 0000.0001) %MON ke_mean                      =   1.6185301693978E-04
(PID.TID 0000.0001) %MON ke_vol                       =   1.3395905635104E+18
(PID.TID 0000.0001) %MON vort_r_min                   =  -1.2529636027579E-06
(PID.TID 0000.0001) %MON vort_r_max                   =   1.3965864716740E-06
(PID.TID 0000.0001) %MON vort_a_mean                  =  -2.0549865324846E-05
(PID.TID 0000.0001) %MON vort_a_sd                    =   7.5259582389684E-05
(PID.TID 0000.0001) %MON vort_p_mean                  =  -2.4787196075333E-05
(PID.TID 0000.0001) %MON vort_p_sd                    =   1.2817301306510E-04
(PID.TID 0000.0001) %MON surfExpan_theta_mean         =   8.0271970342735E-08
(PID.TID 0000.0001) %MON surfExpan_salt_mean          =   1.9360707203107E-08
(PID.TID 0000.0001) // =======================================================
(PID.TID 0000.0001) // End MONITOR dynamic field statistics
(PID.TID 0000.0001) // =======================================================
(PID.TID 0000.0001) // =======================================================
(PID.TID 0000.0001) // Begin MONITOR Therm.SeaIce statistics
(PID.TID 0000.0001) // =======================================================
(PID.TID 0000.0001) %MON thSI_time_sec                =   3.1112640000000E+09
(PID.TID 0000.0001) %MON thSI_Ice_Area_G              =   2.4933334474533E+13
(PID.TID 0000.0001) %MON thSI_Ice_Area_S              =   1.1661567817736E+13
(PID.TID 0000.0001) %MON thSI_Ice_Area_N              =   1.3271766656797E+13
(PID.TID 0000.0001) %MON thSI_IceH_ave_G              =   4.5624565985444E+00
(PID.TID 0000.0001) %MON thSI_IceH_ave_S              =   5.8137967110179E+00
(PID.TID 0000.0001) %MON thSI_IceH_ave_N              =   3.4629354901628E+00
(PID.TID 0000.0001) %MON thSI_IceH_max_S              =   1.0000000000000E+01
(PID.TID 0000.0001) %MON thSI_IceH_max_N              =   1.0000000000000E+01
(PID.TID 0000.0001) %MON thSI_SnwH_ave_G              =   1.0136527236210E+00
(PID.TID 0000.0001) %MON thSI_SnwH_ave_S              =   1.7548152975661E+00
(PID.TID 0000.0001) %MON thSI_SnwH_ave_N              =   3.6241179665652E-01
(PID.TID 0000.0001) %MON thSI_SnwH_max_S              =   4.0934390103815E+00
(PID.TID 0000.0001) %MON thSI_SnwH_max_N              =   4.1035579774681E+00
(PID.TID 0000.0001) %MON thSI_TotEnerg_G              =  -3.8119454367892E+22
(PID.TID 0000.0001) %MON thSI_Tsrf_ave_G              =  -1.7468587361152E+01
(PID.TID 0000.0001) %MON thSI_Tsrf_ave_S              =  -1.4074777959790E-01
(PID.TID 0000.0001) %MON thSI_Tsrf_ave_N              =  -3.2694124521396E+01
(PID.TID 0000.0001) %MON thSI_Tsrf_min_S              =  -5.4503642188648E+00
(PID.TID 0000.0001) %MON thSI_Tsrf_min_N              =  -4.7272274114218E+01
(PID.TID 0000.0001) %MON thSI_Tsrf_max_S              =   0.0000000000000E+00
(PID.TID 0000.0001) %MON thSI_Tsrf_max_N              =  -1.7599484834694E+00
(PID.TID 0000.0001) %MON thSI_Tic1_ave_G              =  -8.5482646131113E+00
(PID.TID 0000.0001) %MON thSI_Tic1_ave_S              =  -4.9478315413642E+00
(PID.TID 0000.0001) %MON thSI_Tic1_ave_N              =  -1.3859534714258E+01
(PID.TID 0000.0001) %MON thSI_Tic1_min_S              =  -1.5200081374345E+01
(PID.TID 0000.0001) %MON thSI_Tic1_min_N              =  -2.1277339115160E+01
(PID.TID 0000.0001) %MON thSI_Tic1_max_S              =  -1.8443013286274E-01
(PID.TID 0000.0001) %MON thSI_Tic1_max_N              =  -7.7875142816111E-01
(PID.TID 0000.0001) %MON thSI_Tic2_ave_G              =  -3.8686243647900E+00
(PID.TID 0000.0001) %MON thSI_Tic2_ave_S              =  -3.0693656039099E+00
(PID.TID 0000.0001) %MON thSI_Tic2_ave_N              =  -5.0476711836444E+00
(PID.TID 0000.0001) %MON thSI_Tic2_min_S              =  -8.5247449637041E+00
(PID.TID 0000.0001) %MON thSI_Tic2_min_N              =  -7.7317038800202E+00
(PID.TID 0000.0001) %MON thSI_Tic2_max_S              =  -1.1198491503236E+00
(PID.TID 0000.0001) %MON thSI_Tic2_max_N              =  -1.3025899887582E+00
(PID.TID 0000.0001) // =======================================================
(PID.TID 0000.0001) // End MONITOR Therm.SeaIce statistics
(PID.TID 0000.0001) // =======================================================
 Computing Diagnostic #     23  ETAN         Counter:       1   Parms: SM      M1      
 Computing Diagnostic #     79  oceFWflx     Counter:       1   Parms: SM      U1      
 Computing Diagnostic #     26  THETA        Counter:       1   Parms: SM      MR      
 Computing Diagnostic #     27  SALT         Counter:       1   Parms: SM      MR      
 Compute Stats, Diag. #     23  ETAN      vol(   0 ): 3.639E+15  Parms: SM      M1      
 Compute Stats, Diag. #     24  ETANSQ    vol(   0 ): 3.639E+15  Parms: SM P    M1      
 Compute Stats, Diag. #     25  DETADT2   vol(   0 ): 3.639E+15  Parms: SM      M1      
 Compute Stats, Diag. #     26  THETA     vol(   0 ): 1.340E+19  Parms: SM      MR      
 Compute Stats, Diag. #     27  SALT      vol(   0 ): 1.340E+19  Parms: SM      MR      
 Compute Stats, Diag. #     74  CONVADJ   vol(   0 ): 1.315E+19  Parms: SM      LR      
 Compute Stats, Diag. #     75  oceTAUX   vol(   0 ): 3.111E+15  Parms: UU      U1      
 Compute Stats, Diag. #     76  oceTAUY   vol(   0 ): 3.130E+15  Parms: VV      U1      
 Compute Stats, Diag. #     84  TRELAX    vol(   0 ): 3.275E+15  Parms: SM      U1      
 Compute Stats, Diag. #     85  SRELAX    vol(   0 ): 3.275E+15  Parms: SM      U1      
 Compute Stats, Diag. #     86  surForcT  vol(   0 ): 3.275E+15  Parms: SM      U1      
 Compute Stats, Diag. #     87  surForcS  vol(   0 ): 3.275E+15  Parms: SM      U1      
 Compute Stats, Diag. #     88  TFLUX     vol(   0 ): 3.275E+15  Parms: SM      U1      
 Compute Stats, Diag. #     89  SFLUX     vol(   0 ): 3.275E+15  Parms: SM      U1      
 Compute Stats, Diag. #     81  oceQnet   vol(   0 ): 3.275E+15  Parms: SM      U1      
 Compute Stats, Diag. #     80  oceSflux  vol(   0 ): 3.275E+15  Parms: SM      U1      
 Compute Stats, Diag. #     79  oceFWflx  vol(   0 ): 3.275E+15  Parms: SM      U1      
 Compute Stats, Diag. #    192  SI_Fract  vol(   0 ): 3.639E+15  Parms: SM P    M1      
 Compute Stats, Diag. #    192  SI_Fract  vol(   1 ): 1.289E+15  Parms: SM P    M1      
 Compute Stats, Diag. #    192  SI_Fract  vol(   3 ): 7.935E+14  Parms: SM P    M1      
 Compute Stats, Diag. #    193  SI_Thick  vol(   0 ): 2.483E+14  Parms: SM PC   M1      
    use Counter Mate  #    192  SI_Fract  vol(   0 ): 3.639E+15 integral 2.483E+14
 Compute Stats, Diag. #    193  SI_Thick  vol(   1 ): 1.189E+14  Parms: SM PC   M1      
    use Counter Mate  #    192  SI_Fract  vol(   1 ): 1.289E+15 integral 1.189E+14
 Compute Stats, Diag. #    193  SI_Thick  vol(   3 ): 1.294E+14  Parms: SM PC   M1      
    use Counter Mate  #    192  SI_Fract  vol(   3 ): 7.935E+14 integral 1.294E+14
 Compute Stats, Diag. #    194  SI_SnowH  vol(   0 ): 2.483E+14  Parms: SM PC   M1      
    use Counter Mate  #    192  SI_Fract  vol(   0 ): 3.639E+15 integral 2.483E+14
 Compute Stats, Diag. #    194  SI_SnowH  vol(   1 ): 1.189E+14  Parms: SM PC   M1      
    use Counter Mate  #    192  SI_Fract  vol(   1 ): 1.289E+15 integral 1.189E+14
 Compute Stats, Diag. #    194  SI_SnowH  vol(   3 ): 1.294E+14  Parms: SM PC   M1      
    use Counter Mate  #    192  SI_Fract  vol(   3 ): 7.935E+14 integral 1.294E+14
 Compute Stats, Diag. #    195  SI_Tsrf   vol(   0 ): 2.483E+14  Parms: SM  C   M1      
    use Counter Mate  #    192  SI_Fract  vol(   0 ): 3.639E+15 integral 2.483E+14
 Compute Stats, Diag. #    195  SI_Tsrf   vol(   1 ): 1.189E+14  Parms: SM  C   M1      
    use Counter Mate  #    192  SI_Fract  vol(   1 ): 1.289E+15 integral 1.189E+14
 Compute Stats, Diag. #    195  SI_Tsrf   vol(   3 ): 1.294E+14  Parms: SM  C   M1      
    use Counter Mate  #    192  SI_Fract  vol(   3 ): 7.935E+14 integral 1.294E+14
 Compute Stats, Diag. #    196  SI_Tice1  vol(   0 ): 2.483E+14  Parms: SM  C   M1      
    use Counter Mate  #    192  SI_Fract  vol(   0 ): 3.639E+15 integral 2.483E+14
 Compute Stats, Diag. #    196  SI_Tice1  vol(   1 ): 1.189E+14  Parms: SM  C   M1      
    use Counter Mate  #    192  SI_Fract  vol(   1 ): 1.289E+15 integral 1.189E+14
 Compute Stats, Diag. #    196  SI_Tice1  vol(   3 ): 1.294E+14  Parms: SM  C   M1      
    use Counter Mate  #    192  SI_Fract  vol(   3 ): 7.935E+14 integral 1.294E+14
 Compute Stats, Diag. #    197  SI_Tice2  vol(   0 ): 2.483E+14  Parms: SM  C   M1      
    use Counter Mate  #    192  SI_Fract  vol(   0 ): 3.639E+15 integral 2.483E+14
 Compute Stats, Diag. #    197  SI_Tice2  vol(   1 ): 1.189E+14  Parms: SM  C   M1      
    use Counter Mate  #    192  SI_Fract  vol(   1 ): 1.289E+15 integral 1.189E+14
 Compute Stats, Diag. #    197  SI_Tice2  vol(   3 ): 1.294E+14  Parms: SM  C   M1      
    use Counter Mate  #    192  SI_Fract  vol(   3 ): 7.935E+14 integral 1.294E+14
 Compute Stats, Diag. #    198  SI_Qice1  vol(   0 ): 1.136E+15  Parms: SM  C   M1      
    use Counter Mate  #    193  SI_Thick  vol(   0 ): 2.483E+14 integral 1.136E+15
 Compute Stats, Diag. #    198  SI_Qice1  vol(   1 ): 6.824E+14  Parms: SM  C   M1      
    use Counter Mate  #    193  SI_Thick  vol(   1 ): 1.189E+14 integral 6.824E+14
 Compute Stats, Diag. #    198  SI_Qice1  vol(   3 ): 4.532E+14  Parms: SM  C   M1      
    use Counter Mate  #    193  SI_Thick  vol(   3 ): 1.294E+14 integral 4.532E+14
 Compute Stats, Diag. #    199  SI_Qice2  vol(   0 ): 1.136E+15  Parms: SM  C   M1      
    use Counter Mate  #    193  SI_Thick  vol(   0 ): 2.483E+14 integral 1.136E+15
 Compute Stats, Diag. #    199  SI_Qice2  vol(   1 ): 6.824E+14  Parms: SM  C   M1      
    use Counter Mate  #    193  SI_Thick  vol(   1 ): 1.189E+14 integral 6.824E+14
 Compute Stats, Diag. #    199  SI_Qice2  vol(   3 ): 4.532E+14  Parms: SM  C   M1      
    use Counter Mate  #    193  SI_Thick  vol(   3 ): 1.294E+14 integral 4.532E+14
 Compute Stats, Diag. #    203  SIsnwPrc  vol(   0 ): 2.483E+14  Parms: SM  C   M1      
    use Counter Mate  #    201  SI_FrcFx  vol(   0 ): 3.639E+15 integral 2.483E+14
 Compute Stats, Diag. #    203  SIsnwPrc  vol(   1 ): 1.189E+14  Parms: SM  C   M1      
    use Counter Mate  #    201  SI_FrcFx  vol(   1 ): 1.289E+15 integral 1.189E+14
 Compute Stats, Diag. #    203  SIsnwPrc  vol(   3 ): 1.294E+14  Parms: SM  C   M1      
    use Counter Mate  #    201  SI_FrcFx  vol(   3 ): 7.935E+14 integral 1.294E+14
 Compute Stats, Diag. #    202  SIalbedo  vol(   0 ): 2.483E+14  Parms: SM PC   M1      
    use Counter Mate  #    201  SI_FrcFx  vol(   0 ): 3.639E+15 integral 2.483E+14
 Compute Stats, Diag. #    202  SIalbedo  vol(   1 ): 1.189E+14  Parms: SM PC   M1      
    use Counter Mate  #    201  SI_FrcFx  vol(   1 ): 1.289E+15 integral 1.189E+14
 Compute Stats, Diag. #    202  SIalbedo  vol(   3 ): 1.294E+14  Parms: SM PC   M1      
    use Counter Mate  #    201  SI_FrcFx  vol(   3 ): 7.935E+14 integral 1.294E+14
 Compute Stats, Diag. #    200  SIsnwAge  vol(   0 ): 3.639E+15  Parms: SM P    M1      
 Compute Stats, Diag. #    200  SIsnwAge  vol(   1 ): 1.289E+15  Parms: SM P    M1      
 Compute Stats, Diag. #    200  SIsnwAge  vol(   3 ): 7.935E+14  Parms: SM P    M1      
 Compute Stats, Diag. #    206  SIflx2oc  vol(   0 ): 3.639E+15  Parms: SM      M1      
 Compute Stats, Diag. #    206  SIflx2oc  vol(   1 ): 1.289E+15  Parms: SM      M1      
 Compute Stats, Diag. #    206  SIflx2oc  vol(   3 ): 7.935E+14  Parms: SM      M1      
 Compute Stats, Diag. #    207  SIfrw2oc  vol(   0 ): 3.639E+15  Parms: SM      M1      
 Compute Stats, Diag. #    207  SIfrw2oc  vol(   1 ): 1.289E+15  Parms: SM      M1      
 Compute Stats, Diag. #    207  SIfrw2oc  vol(   3 ): 7.935E+14  Parms: SM      M1      
 Compute Stats, Diag. #    208  SIsaltFx  vol(   0 ): 3.639E+15  Parms: SM      M1      
 Compute Stats, Diag. #    208  SIsaltFx  vol(   1 ): 1.289E+15  Parms: SM      M1      
 Compute Stats, Diag. #    208  SIsaltFx  vol(   3 ): 7.935E+14  Parms: SM      M1      
 Compute Stats, Diag. #    204  SIflxAtm  vol(   0 ): 3.639E+15  Parms: SM      M1      
 Compute Stats, Diag. #    204  SIflxAtm  vol(   1 ): 1.289E+15  Parms: SM      M1      
 Compute Stats, Diag. #    204  SIflxAtm  vol(   3 ): 7.935E+14  Parms: SM      M1      
 Compute Stats, Diag. #    205  SIfrwAtm  vol(   0 ): 3.639E+15  Parms: SM      M1      
 Compute Stats, Diag. #    205  SIfrwAtm  vol(   1 ): 1.289E+15  Parms: SM      M1      
 Compute Stats, Diag. #    205  SIfrwAtm  vol(   3 ): 7.935E+14  Parms: SM      M1      
 cg2d: Sum(rhs),rhsMax =   3.91430150859796E+02  2.29949386799048E+02
(PID.TID 0000.0001)                    cg2d_init_res =    2.65469956457465E+00
(PID.TID 0000.0001)                       cg2d_iters =    69
(PID.TID 0000.0001)                         cg2d_res =    5.65998378451472E-07
(PID.TID 0000.0001) // =======================================================
(PID.TID 0000.0001) // Begin MONITOR dynamic field statistics
(PID.TID 0000.0001) // =======================================================
(PID.TID 0000.0001) %MON time_tsnumber                =                 36011
(PID.TID 0000.0001) %MON time_secondsf                =   3.1113504000000E+09
(PID.TID 0000.0001) %MON dynstat_eta_max              =   7.2134361014946E-01
(PID.TID 0000.0001) %MON dynstat_eta_min              =  -1.1966126084826E+01
(PID.TID 0000.0001) %MON dynstat_eta_mean             =  -5.8219090698629E-01
(PID.TID 0000.0001) %MON dynstat_eta_sd               =   1.6995361429999E+00
(PID.TID 0000.0001) %MON dynstat_eta_del2             =   9.8352466734821E-02
(PID.TID 0000.0001) %MON dynstat_uvel_max             =   1.7429397309513E-01
(PID.TID 0000.0001) %MON dynstat_uvel_min             =  -2.6734385730237E-01
(PID.TID 0000.0001) %MON dynstat_uvel_mean            =  -5.2366642835318E-04
(PID.TID 0000.0001) %MON dynstat_uvel_sd              =   1.2972570391501E-02
(PID.TID 0000.0001) %MON dynstat_uvel_del2            =   1.7892401276751E-03
(PID.TID 0000.0001) %MON dynstat_vvel_max             =   1.9496409467570E-01
(PID.TID 0000.0001) %MON dynstat_vvel_min             =  -2.1139307616161E-01
(PID.TID 0000.0001) %MON dynstat_vvel_mean            =  -4.1969329645842E-04
(PID.TID 0000.0001) %MON dynstat_vvel_sd              =   1.3479353123245E-02
(PID.TID 0000.0001) %MON dynstat_vvel_del2            =   1.8199013648622E-03
(PID.TID 0000.0001) %MON dynstat_wvel_max             =   8.9147430895802E-05
(PID.TID 0000.0001) %MON dynstat_wvel_min             =  -1.7800718770003E-04
(PID.TID 0000.0001) %MON dynstat_wvel_mean            =  -1.2146281961048E-09
(PID.TID 0000.0001) %MON dynstat_wvel_sd              =   4.6213071088475E-06
(PID.TID 0000.0001) %MON dynstat_wvel_del2            =   1.1356770111030E-06
(PID.TID 0000.0001) %MON dynstat_theta_max            =   2.9936870413805E+01
(PID.TID 0000.0001) %MON dynstat_theta_min            =  -3.4216752708135E+00
(PID.TID 0000.0001) %MON dynstat_theta_mean           =   3.5034854158595E+00
(PID.TID 0000.0001) %MON dynstat_theta_sd             =   4.7497764225122E+00
(PID.TID 0000.0001) %MON dynstat_theta_del2           =   9.5445995787339E-02
(PID.TID 0000.0001) %MON dynstat_salt_max             =   4.0836863540121E+01
(PID.TID 0000.0001) %MON dynstat_salt_min             =   1.8036636154289E+01
(PID.TID 0000.0001) %MON dynstat_salt_mean            =   3.4756115946852E+01
(PID.TID 0000.0001) %MON dynstat_salt_sd              =   5.1180506899607E-01
(PID.TID 0000.0001) %MON dynstat_salt_del2            =   2.0045820578374E-02
(PID.TID 0000.0001) %MON extforcing_qnet_max          =   8.0308307135372E+02
(PID.TID 0000.0001) %MON extforcing_qnet_min          =  -2.3517228105114E+02
(PID.TID 0000.0001) %MON extforcing_qnet_mean         =  -6.1221141456108E+00
(PID.TID 0000.0001) %MON extforcing_qnet_sd           =   1.2034715145543E+02
(PID.TID 0000.0001) %MON extforcing_qnet_del2         =   1.2603045984048E+01
(PID.TID 0000.0001) %MON extforcing_qsw_max           =   0.0000000000000E+00
(PID.TID 0000.0001) %MON extforcing_qsw_min           =  -3.3991619471971E+02
(PID.TID 0000.0001) %MON extforcing_qsw_mean          =  -1.8660428158667E+02
(PID.TID 0000.0001) %MON extforcing_qsw_sd            =   7.9542889466383E+01
(PID.TID 0000.0001) %MON extforcing_qsw_del2          =   3.8905165954015E+00
(PID.TID 0000.0001) %MON extforcing_empmr_max         =   7.5874665797381E-04
(PID.TID 0000.0001) %MON extforcing_empmr_min         =  -3.1398312635953E-04
(PID.TID 0000.0001) %MON extforcing_empmr_mean        =  -4.9417284601716E-07
(PID.TID 0000.0001) %MON extforcing_empmr_sd          =   4.9699306822682E-05
(PID.TID 0000.0001) %MON extforcing_empmr_del2        =   8.3426713153607E-06
(PID.TID 0000.0001) %MON advcfl_uvel_max              =   7.5823789092774E-02
(PID.TID 0000.0001) %MON advcfl_vvel_max              =   8.4982102173211E-02
(PID.TID 0000.0001) %MON advcfl_wvel_max              =   5.8037060442575E-02
(PID.TID 0000.0001) %MON advcfl_W_hf_max              =   6.4114675933794E-02
(PID.TID 0000.0001) %MON pe_b_mean                    =  -1.9272640480141E-03
(PID.TID 0000.0001) %MON ke_max                       =   3.5634894025264E-02
(PID.TID 0000.0001) %MON ke_mean                      =   1.6181510726792E-04
(PID.TID 0000.0001) %MON ke_vol                       =   1.3395905788017E+18
(PID.TID 0000.0001) %MON vort_r_min                   =  -1.2580641306407E-06
(PID.TID 0000.0001) %MON vort_r_max                   =   1.3999207920375E-06
(PID.TID 0000.0001) %MON vort_a_mean                  =  -2.0549865324846E-05
(PID.TID 0000.0001) %MON vort_a_sd                    =   7.5259582321038E-05
(PID.TID 0000.0001) %MON vort_p_mean                  =  -2.4787195461354E-05
(PID.TID 0000.0001) %MON vort_p_sd                    =   1.2817301277590E-04
(PID.TID 0000.0001) %MON surfExpan_theta_mean         =   7.9380565280857E-08
(PID.TID 0000.0001) %MON surfExpan_salt_mean          =   1.9276035063955E-08
(PID.TID 0000.0001) // =======================================================
(PID.TID 0000.0001) // End MONITOR dynamic field statistics
(PID.TID 0000.0001) // =======================================================
(PID.TID 0000.0001) // =======================================================
(PID.TID 0000.0001) // Begin MONITOR Therm.SeaIce statistics
(PID.TID 0000.0001) // =======================================================
(PID.TID 0000.0001) %MON thSI_time_sec                =   3.1113504000000E+09
(PID.TID 0000.0001) %MON thSI_Ice_Area_G              =   2.4960666663387E+13
(PID.TID 0000.0001) %MON thSI_Ice_Area_S              =   1.1630147127789E+13
(PID.TID 0000.0001) %MON thSI_Ice_Area_N              =   1.3330519535598E+13
(PID.TID 0000.0001) %MON thSI_IceH_ave_G              =   4.5572972214553E+00
(PID.TID 0000.0001) %MON thSI_IceH_ave_S              =   5.8227225091688E+00
(PID.TID 0000.0001) %MON thSI_IceH_ave_N              =   3.4532830653654E+00
(PID.TID 0000.0001) %MON thSI_IceH_max_S              =   1.0000000000000E+01
(PID.TID 0000.0001) %MON thSI_IceH_max_N              =   1.0000000000000E+01
(PID.TID 0000.0001) %MON thSI_SnwH_ave_G              =   1.0092426099008E+00
(PID.TID 0000.0001) %MON thSI_SnwH_ave_S              =   1.7491204718868E+00
(PID.TID 0000.0001) %MON thSI_SnwH_ave_N              =   3.6373975695395E-01
(PID.TID 0000.0001) %MON thSI_SnwH_max_S              =   4.0933689960321E+00
(PID.TID 0000.0001) %MON thSI_SnwH_max_N              =   4.1039029140640E+00
(PID.TID 0000.0001) %MON thSI_TotEnerg_G              =  -3.8111690801581E+22
(PID.TID 0000.0001) %MON thSI_Tsrf_ave_G              =  -1.7519341586917E+01
(PID.TID 0000.0001) %MON thSI_Tsrf_ave_S              =  -1.2181569594729E-01
(PID.TID 0000.0001) %MON thSI_Tsrf_ave_N              =  -3.2697728688123E+01
(PID.TID 0000.0001) %MON thSI_Tsrf_min_S              =  -5.4663954164839E+00
(PID.TID 0000.0001) %MON thSI_Tsrf_min_N              =  -4.7387246031355E+01
(PID.TID 0000.0001) %MON thSI_Tsrf_max_S              =   0.0000000000000E+00
(PID.TID 0000.0001) %MON thSI_Tsrf_max_N              =  -4.6893100324327E+00
(PID.TID 0000.0001) %MON thSI_Tic1_ave_G              =  -8.5706459339256E+00
(PID.TID 0000.0001) %MON thSI_Tic1_ave_S              =  -4.9273122956170E+00
(PID.TID 0000.0001) %MON thSI_Tic1_ave_N              =  -1.3930228817347E+01
(PID.TID 0000.0001) %MON thSI_Tic1_min_S              =  -1.5062924637922E+01
(PID.TID 0000.0001) %MON thSI_Tic1_min_N              =  -2.1336226922048E+01
(PID.TID 0000.0001) %MON thSI_Tic1_max_S              =  -1.7796760933890E-01
(PID.TID 0000.0001) %MON thSI_Tic1_max_N              =  -7.9925795599279E-01
(PID.TID 0000.0001) %MON thSI_Tic2_ave_G              =  -3.8792216800459E+00
(PID.TID 0000.0001) %MON thSI_Tic2_ave_S              =  -3.0653745464447E+00
(PID.TID 0000.0001) %MON thSI_Tic2_ave_N              =  -5.0764442240114E+00
(PID.TID 0000.0001) %MON thSI_Tic2_min_S              =  -8.4936461777966E+00
(PID.TID 0000.0001) %MON thSI_Tic2_min_N              =  -7.7611112791860E+00
(PID.TID 0000.0001) %MON thSI_Tic2_max_S              =  -1.0860952583059E+00
(PID.TID 0000.0001) %MON thSI_Tic2_max_N              =  -1.3180933112568E+00
(PID.TID 0000.0001) // =======================================================
(PID.TID 0000.0001) // End MONITOR Therm.SeaIce statistics
(PID.TID 0000.0001) // =======================================================
 Computing Diagnostic #     23  ETAN         Counter:       1   Parms: SM      M1      
 Compute Stats, Diag. #     23  ETAN      vol(   0 ): 3.639E+14  Parms: SM      M1      
 Compute Stats, Diag. #     26  THETA     vol(   0 ): 1.340E+18  Parms: SM      MR      
 Compute Stats, Diag. #     27  SALT      vol(   0 ): 1.340E+18  Parms: SM      MR      
 cg2d: Sum(rhs),rhsMax =   3.91394363528029E+02  2.30056289531224E+02
(PID.TID 0000.0001)                    cg2d_init_res =    2.65157687522304E+00
(PID.TID 0000.0001)                       cg2d_iters =    69
(PID.TID 0000.0001)                         cg2d_res =    5.67356832876176E-07
(PID.TID 0000.0001) // =======================================================
(PID.TID 0000.0001) // Begin MONITOR dynamic field statistics
(PID.TID 0000.0001) // =======================================================
(PID.TID 0000.0001) %MON time_tsnumber                =                 36012
(PID.TID 0000.0001) %MON time_secondsf                =   3.1114368000000E+09
(PID.TID 0000.0001) %MON dynstat_eta_max              =   7.1998491745507E-01
(PID.TID 0000.0001) %MON dynstat_eta_min              =  -1.1963458820623E+01
(PID.TID 0000.0001) %MON dynstat_eta_mean             =  -5.8213767894779E-01
(PID.TID 0000.0001) %MON dynstat_eta_sd               =   1.6990481496253E+00
(PID.TID 0000.0001) %MON dynstat_eta_del2             =   9.8372607085609E-02
(PID.TID 0000.0001) %MON dynstat_uvel_max             =   1.7409176188118E-01
(PID.TID 0000.0001) %MON dynstat_uvel_min             =  -2.6689498520932E-01
(PID.TID 0000.0001) %MON dynstat_uvel_mean            =  -5.2311896000974E-04
(PID.TID 0000.0001) %MON dynstat_uvel_sd              =   1.2970908625051E-02
(PID.TID 0000.0001) %MON dynstat_uvel_del2            =   1.7890163884957E-03
(PID.TID 0000.0001) %MON dynstat_vvel_max             =   1.9475928032105E-01
(PID.TID 0000.0001) %MON dynstat_vvel_min             =  -2.1143657391301E-01
(PID.TID 0000.0001) %MON dynstat_vvel_mean            =  -4.1904277143122E-04
(PID.TID 0000.0001) %MON dynstat_vvel_sd              =   1.3477673202935E-02
(PID.TID 0000.0001) %MON dynstat_vvel_del2            =   1.8189168902438E-03
(PID.TID 0000.0001) %MON dynstat_wvel_max             =   8.9861083579739E-05
(PID.TID 0000.0001) %MON dynstat_wvel_min             =  -1.7784243895158E-04
(PID.TID 0000.0001) %MON dynstat_wvel_mean            =  -1.2395274155390E-09
(PID.TID 0000.0001) %MON dynstat_wvel_sd              =   4.6212218443037E-06
(PID.TID 0000.0001) %MON dynstat_wvel_del2            =   1.1356159096842E-06
(PID.TID 0000.0001) %MON dynstat_theta_max            =   2.9915750600608E+01
(PID.TID 0000.0001) %MON dynstat_theta_min            =  -3.4398629181247E+00
(PID.TID 0000.0001) %MON dynstat_theta_mean           =   3.5035551049227E+00
(PID.TID 0000.0001) %MON dynstat_theta_sd             =   4.7499009700212E+00
(PID.TID 0000.0001) %MON dynstat_theta_del2           =   9.5450431491555E-02
(PID.TID 0000.0001) %MON dynstat_salt_max             =   4.0837991161728E+01
(PID.TID 0000.0001) %MON dynstat_salt_min             =   1.8037366081844E+01
(PID.TID 0000.0001) %MON dynstat_salt_mean            =   3.4756116432199E+01
(PID.TID 0000.0001) %MON dynstat_salt_sd              =   5.1179759251747E-01
(PID.TID 0000.0001) %MON dynstat_salt_del2            =   2.0034569620105E-02
(PID.TID 0000.0001) %MON extforcing_qnet_max          =   8.0618610184591E+02
(PID.TID 0000.0001) %MON extforcing_qnet_min          =  -2.3479608753022E+02
(PID.TID 0000.0001) %MON extforcing_qnet_mean         =  -6.1971365656022E+00
(PID.TID 0000.0001) %MON extforcing_qnet_sd           =   1.2039635647979E+02
(PID.TID 0000.0001) %MON extforcing_qnet_del2         =   1.2690587263380E+01
(PID.TID 0000.0001) %MON extforcing_qsw_max           =   0.0000000000000E+00
(PID.TID 0000.0001) %MON extforcing_qsw_min           =  -3.3971215207251E+02
(PID.TID 0000.0001) %MON extforcing_qsw_mean          =  -1.8660841105981E+02
(PID.TID 0000.0001) %MON extforcing_qsw_sd            =   7.9414220044590E+01
(PID.TID 0000.0001) %MON extforcing_qsw_del2          =   3.8815884089861E+00
(PID.TID 0000.0001) %MON extforcing_empmr_max         =   7.4979533962421E-04
(PID.TID 0000.0001) %MON extforcing_empmr_min         =  -3.1808628197263E-04
(PID.TID 0000.0001) %MON extforcing_empmr_mean        =  -6.3762754452731E-07
(PID.TID 0000.0001) %MON extforcing_empmr_sd          =   4.9425833555358E-05
(PID.TID 0000.0001) %MON extforcing_empmr_del2        =   8.2997329319563E-06
(PID.TID 0000.0001) %MON advcfl_uvel_max              =   7.5696480452670E-02
(PID.TID 0000.0001) %MON advcfl_vvel_max              =   8.4892826481489E-02
(PID.TID 0000.0001) %MON advcfl_wvel_max              =   5.7983346133648E-02
(PID.TID 0000.0001) %MON advcfl_W_hf_max              =   6.4055361383947E-02
(PID.TID 0000.0001) %MON pe_b_mean                    =  -1.9262743252307E-03
(PID.TID 0000.0001) %MON ke_max                       =   3.5502464042261E-02
(PID.TID 0000.0001) %MON ke_mean                      =   1.6177379298923E-04
(PID.TID 0000.0001) %MON ke_vol                       =   1.3395905938130E+18
(PID.TID 0000.0001) %MON vort_r_min                   =  -1.2632044223484E-06
(PID.TID 0000.0001) %MON vort_r_max                   =   1.4031229235981E-06
(PID.TID 0000.0001) %MON vort_a_mean                  =  -2.0549865324846E-05
(PID.TID 0000.0001) %MON vort_a_sd                    =   7.5259582249562E-05
(PID.TID 0000.0001) %MON vort_p_mean                  =  -2.4787194883184E-05
(PID.TID 0000.0001) %MON vort_p_sd                    =   1.2817301417921E-04
(PID.TID 0000.0001) %MON surfExpan_theta_mean         =   7.8714156117222E-08
(PID.TID 0000.0001) %MON surfExpan_salt_mean          =   1.9411253971955E-08
(PID.TID 0000.0001) // =======================================================
(PID.TID 0000.0001) // End MONITOR dynamic field statistics
(PID.TID 0000.0001) // =======================================================
(PID.TID 0000.0001) // =======================================================
(PID.TID 0000.0001) // Begin MONITOR Therm.SeaIce statistics
(PID.TID 0000.0001) // =======================================================
(PID.TID 0000.0001) %MON thSI_time_sec                =   3.1114368000000E+09
(PID.TID 0000.0001) %MON thSI_Ice_Area_G              =   2.4959633153909E+13
(PID.TID 0000.0001) %MON thSI_Ice_Area_S              =   1.1597619463565E+13
(PID.TID 0000.0001) %MON thSI_Ice_Area_N              =   1.3362013690344E+13
(PID.TID 0000.0001) %MON thSI_IceH_ave_G              =   4.5571289725058E+00
(PID.TID 0000.0001) %MON thSI_IceH_ave_S              =   5.8321987778237E+00
(PID.TID 0000.0001) %MON thSI_IceH_ave_N              =   3.4504264399193E+00
(PID.TID 0000.0001) %MON thSI_IceH_max_S              =   1.0000000000000E+01
(PID.TID 0000.0001) %MON thSI_IceH_max_N              =   1.0000000000000E+01
(PID.TID 0000.0001) %MON thSI_SnwH_ave_G              =   1.0060595118961E+00
(PID.TID 0000.0001) %MON thSI_SnwH_ave_S              =   1.7436920831314E+00
(PID.TID 0000.0001) %MON thSI_SnwH_ave_N              =   3.6582802707892E-01
(PID.TID 0000.0001) %MON thSI_SnwH_max_S              =   4.0933033599976E+00
(PID.TID 0000.0001) %MON thSI_SnwH_max_N              =   4.1042562139888E+00
(PID.TID 0000.0001) %MON thSI_TotEnerg_G              =  -3.8102319294547E+22
(PID.TID 0000.0001) %MON thSI_Tsrf_ave_G              =  -1.7605552938502E+01
(PID.TID 0000.0001) %MON thSI_Tsrf_ave_S              =  -1.4447212194046E-01
(PID.TID 0000.0001) %MON thSI_Tsrf_ave_N              =  -3.2760976022627E+01
(PID.TID 0000.0001) %MON thSI_Tsrf_min_S              =  -5.4823886114740E+00
(PID.TID 0000.0001) %MON thSI_Tsrf_min_N              =  -4.7502281930565E+01
(PID.TID 0000.0001) %MON thSI_Tsrf_max_S              =   0.0000000000000E+00
(PID.TID 0000.0001) %MON thSI_Tsrf_max_N              =  -6.2637870797569E+00
(PID.TID 0000.0001) %MON thSI_Tic1_ave_G              =  -8.5900242075080E+00
(PID.TID 0000.0001) %MON thSI_Tic1_ave_S              =  -4.9023026967613E+00
(PID.TID 0000.0001) %MON thSI_Tic1_ave_N              =  -1.4000240195079E+01
(PID.TID 0000.0001) %MON thSI_Tic1_min_S              =  -1.4927330021996E+01
(PID.TID 0000.0001) %MON thSI_Tic1_min_N              =  -2.1393168853907E+01
(PID.TID 0000.0001) %MON thSI_Tic1_max_S              =  -1.7192321319615E-01
(PID.TID 0000.0001) %MON thSI_Tic1_max_N              =  -8.2070437008736E-01
(PID.TID 0000.0001) %MON thSI_Tic2_ave_G              =  -3.8897182750545E+00
(PID.TID 0000.0001) %MON thSI_Tic2_ave_S              =  -3.0614198759490E+00
(PID.TID 0000.0001) %MON thSI_Tic2_ave_N              =  -5.1049058178939E+00
(PID.TID 0000.0001) %MON thSI_Tic2_min_S              =  -8.4612722882858E+00
(PID.TID 0000.0001) %MON thSI_Tic2_min_N              =  -7.7895915123693E+00
(PID.TID 0000.0001) %MON thSI_Tic2_max_S              =  -1.0567670800110E+00
(PID.TID 0000.0001) %MON thSI_Tic2_max_N              =  -1.3332500863418E+00
(PID.TID 0000.0001) // =======================================================
(PID.TID 0000.0001) // End MONITOR Therm.SeaIce statistics
(PID.TID 0000.0001) // =======================================================
 cg2d: Sum(rhs),rhsMax =   3.91348280745595E+02  2.30165112012920E+02
(PID.TID 0000.0001)                    cg2d_init_res =    2.62880540569632E+00
(PID.TID 0000.0001)                       cg2d_iters =    69
(PID.TID 0000.0001)                         cg2d_res =    5.60159325562007E-07
(PID.TID 0000.0001) // =======================================================
(PID.TID 0000.0001) // Begin MONITOR dynamic field statistics
(PID.TID 0000.0001) // =======================================================
(PID.TID 0000.0001) %MON time_tsnumber                =                 36013
(PID.TID 0000.0001) %MON time_secondsf                =   3.1115232000000E+09
(PID.TID 0000.0001) %MON dynstat_eta_max              =   7.1867492709692E-01
(PID.TID 0000.0001) %MON dynstat_eta_min              =  -1.1960638945426E+01
(PID.TID 0000.0001) %MON dynstat_eta_mean             =  -5.8206913804249E-01
(PID.TID 0000.0001) %MON dynstat_eta_sd               =   1.6985631424218E+00
(PID.TID 0000.0001) %MON dynstat_eta_del2             =   9.8396312607816E-02
(PID.TID 0000.0001) %MON dynstat_uvel_max             =   1.7383923997957E-01
(PID.TID 0000.0001) %MON dynstat_uvel_min             =  -2.6643270121653E-01
(PID.TID 0000.0001) %MON dynstat_uvel_mean            =  -5.2249828403690E-04
(PID.TID 0000.0001) %MON dynstat_uvel_sd              =   1.2969437724761E-02
(PID.TID 0000.0001) %MON dynstat_uvel_del2            =   1.7889346926844E-03
(PID.TID 0000.0001) %MON dynstat_vvel_max             =   1.9449490032690E-01
(PID.TID 0000.0001) %MON dynstat_vvel_min             =  -2.1147499747561E-01
(PID.TID 0000.0001) %MON dynstat_vvel_mean            =  -4.1845205516327E-04
(PID.TID 0000.0001) %MON dynstat_vvel_sd              =   1.3475589763591E-02
(PID.TID 0000.0001) %MON dynstat_vvel_del2            =   1.8180311222077E-03
(PID.TID 0000.0001) %MON dynstat_wvel_max             =   9.0537526277641E-05
(PID.TID 0000.0001) %MON dynstat_wvel_min             =  -1.7764753324987E-04
(PID.TID 0000.0001) %MON dynstat_wvel_mean            =  -1.2710409284718E-09
(PID.TID 0000.0001) %MON dynstat_wvel_sd              =   4.6212245335607E-06
(PID.TID 0000.0001) %MON dynstat_wvel_del2            =   1.1355584971113E-06
(PID.TID 0000.0001) %MON dynstat_theta_max            =   2.9894770907353E+01
(PID.TID 0000.0001) %MON dynstat_theta_min            =  -3.4580265526268E+00
(PID.TID 0000.0001) %MON dynstat_theta_mean           =   3.5036251061238E+00
(PID.TID 0000.0001) %MON dynstat_theta_sd             =   4.7500311300657E+00
(PID.TID 0000.0001) %MON dynstat_theta_del2           =   9.5487557287615E-02
(PID.TID 0000.0001) %MON dynstat_salt_max             =   4.0838986490969E+01
(PID.TID 0000.0001) %MON dynstat_salt_min             =   1.8038470005665E+01
(PID.TID 0000.0001) %MON dynstat_salt_mean            =   3.4756116802659E+01
(PID.TID 0000.0001) %MON dynstat_salt_sd              =   5.1178903999060E-01
(PID.TID 0000.0001) %MON dynstat_salt_del2            =   2.0029966774437E-02
(PID.TID 0000.0001) %MON extforcing_qnet_max          =   8.0926481943972E+02
(PID.TID 0000.0001) %MON extforcing_qnet_min          =  -2.3442174029796E+02
(PID.TID 0000.0001) %MON extforcing_qnet_mean         =  -6.2280625290466E+00
(PID.TID 0000.0001) %MON extforcing_qnet_sd           =   1.2045340657851E+02
(PID.TID 0000.0001) %MON extforcing_qnet_del2         =   1.2700607495034E+01
(PID.TID 0000.0001) %MON extforcing_qsw_max           =   0.0000000000000E+00
(PID.TID 0000.0001) %MON extforcing_qsw_min           =  -3.3950810942532E+02
(PID.TID 0000.0001) %MON extforcing_qsw_mean          =  -1.8661640031249E+02
(PID.TID 0000.0001) %MON extforcing_qsw_sd            =   7.9280798173688E+01
(PID.TID 0000.0001) %MON extforcing_qsw_del2          =   3.8819019497070E+00
(PID.TID 0000.0001) %MON extforcing_empmr_max         =   4.0677668802012E-04
(PID.TID 0000.0001) %MON extforcing_empmr_min         =  -3.2063164614012E-04
(PID.TID 0000.0001) %MON extforcing_empmr_mean        =  -8.2106292806508E-07
(PID.TID 0000.0001) %MON extforcing_empmr_sd          =   4.8530127303178E-05
(PID.TID 0000.0001) %MON extforcing_empmr_del2        =   8.1598542894205E-06
(PID.TID 0000.0001) %MON advcfl_uvel_max              =   7.5565367943395E-02
(PID.TID 0000.0001) %MON advcfl_vvel_max              =   8.4777586966680E-02
(PID.TID 0000.0001) %MON advcfl_wvel_max              =   5.7919799519958E-02
(PID.TID 0000.0001) %MON advcfl_W_hf_max              =   6.3985189134428E-02
(PID.TID 0000.0001) %MON pe_b_mean                    =  -1.9252927369957E-03
(PID.TID 0000.0001) %MON ke_max                       =   3.5367472025238E-02
(PID.TID 0000.0001) %MON ke_mean                      =   1.6172970201003E-04
(PID.TID 0000.0001) %MON ke_vol                       =   1.3395906131820E+18
(PID.TID 0000.0001) %MON vort_r_min                   =  -1.2683575705840E-06
(PID.TID 0000.0001) %MON vort_r_max                   =   1.4061523610236E-06
(PID.TID 0000.0001) %MON vort_a_mean                  =  -2.0549865324846E-05
(PID.TID 0000.0001) %MON vort_a_sd                    =   7.5259582175931E-05
(PID.TID 0000.0001) %MON vort_p_mean                  =  -2.4787194241417E-05
(PID.TID 0000.0001) %MON vort_p_sd                    =   1.2817301510240E-04
(PID.TID 0000.0001) %MON surfExpan_theta_mean         =   7.7982344128763E-08
(PID.TID 0000.0001) %MON surfExpan_salt_mean          =   1.9600821614692E-08
(PID.TID 0000.0001) // =======================================================
(PID.TID 0000.0001) // End MONITOR dynamic field statistics
(PID.TID 0000.0001) // =======================================================
(PID.TID 0000.0001) // =======================================================
(PID.TID 0000.0001) // Begin MONITOR Therm.SeaIce statistics
(PID.TID 0000.0001) // =======================================================
(PID.TID 0000.0001) %MON thSI_time_sec                =   3.1115232000000E+09
(PID.TID 0000.0001) %MON thSI_Ice_Area_G              =   2.4943681974204E+13
(PID.TID 0000.0001) %MON thSI_Ice_Area_S              =   1.1559719046343E+13
(PID.TID 0000.0001) %MON thSI_Ice_Area_N              =   1.3383962927861E+13
(PID.TID 0000.0001) %MON thSI_IceH_ave_G              =   4.5594637887317E+00
(PID.TID 0000.0001) %MON thSI_IceH_ave_S              =   5.8444166745055E+00
(PID.TID 0000.0001) %MON thSI_IceH_ave_N              =   3.4496509158633E+00
(PID.TID 0000.0001) %MON thSI_IceH_max_S              =   1.0000000000000E+01
(PID.TID 0000.0001) %MON thSI_IceH_max_N              =   1.0000000000000E+01
(PID.TID 0000.0001) %MON thSI_SnwH_ave_G              =   1.0034548143141E+00
(PID.TID 0000.0001) %MON thSI_SnwH_ave_S              =   1.7389840735698E+00
(PID.TID 0000.0001) %MON thSI_SnwH_ave_N              =   3.6817872806152E-01
(PID.TID 0000.0001) %MON thSI_SnwH_max_S              =   4.0932415300035E+00
(PID.TID 0000.0001) %MON thSI_SnwH_max_N              =   4.1046204810814E+00
(PID.TID 0000.0001) %MON thSI_TotEnerg_G              =  -3.8091303328370E+22
(PID.TID 0000.0001) %MON thSI_Tsrf_ave_G              =  -1.7680968353963E+01
(PID.TID 0000.0001) %MON thSI_Tsrf_ave_S              =  -1.2888278058630E-01
(PID.TID 0000.0001) %MON thSI_Tsrf_ave_N              =  -3.2840691897670E+01
(PID.TID 0000.0001) %MON thSI_Tsrf_min_S              =  -5.4983441210189E+00
(PID.TID 0000.0001) %MON thSI_Tsrf_min_N              =  -4.7617382868677E+01
(PID.TID 0000.0001) %MON thSI_Tsrf_max_S              =   0.0000000000000E+00
(PID.TID 0000.0001) %MON thSI_Tsrf_max_N              =  -6.9934500783643E+00
(PID.TID 0000.0001) %MON thSI_Tic1_ave_G              =  -8.6112226913530E+00
(PID.TID 0000.0001) %MON thSI_Tic1_ave_S              =  -4.8810312458359E+00
(PID.TID 0000.0001) %MON thSI_Tic1_ave_N              =  -1.4069551545222E+01
(PID.TID 0000.0001) %MON thSI_Tic1_min_S              =  -1.4793280946170E+01
(PID.TID 0000.0001) %MON thSI_Tic1_min_N              =  -2.1448235162181E+01
(PID.TID 0000.0001) %MON thSI_Tic1_max_S              =  -1.6625832471242E-01
(PID.TID 0000.0001) %MON thSI_Tic1_max_N              =  -8.4314222705812E-01
(PID.TID 0000.0001) %MON thSI_Tic2_ave_G              =  -3.9000692525937E+00
(PID.TID 0000.0001) %MON thSI_Tic2_ave_S              =  -3.0574585080626E+00
(PID.TID 0000.0001) %MON thSI_Tic2_ave_N              =  -5.1330479365649E+00
(PID.TID 0000.0001) %MON thSI_Tic2_min_S              =  -8.4288319449578E+00
(PID.TID 0000.0001) %MON thSI_Tic2_min_N              =  -7.8171731636736E+00
(PID.TID 0000.0001) %MON thSI_Tic2_max_S              =  -1.0102451527883E+00
(PID.TID 0000.0001) %MON thSI_Tic2_max_N              =  -1.3480054741955E+00
(PID.TID 0000.0001) // =======================================================
(PID.TID 0000.0001) // End MONITOR Therm.SeaIce statistics
(PID.TID 0000.0001) // =======================================================
 cg2d: Sum(rhs),rhsMax =   3.91298853603657E+02  2.30274254068781E+02
(PID.TID 0000.0001)                    cg2d_init_res =    2.60691017162308E+00
(PID.TID 0000.0001)                       cg2d_iters =    69
(PID.TID 0000.0001)                         cg2d_res =    5.55449881791550E-07
(PID.TID 0000.0001) // =======================================================
(PID.TID 0000.0001) // Begin MONITOR dynamic field statistics
(PID.TID 0000.0001) // =======================================================
(PID.TID 0000.0001) %MON time_tsnumber                =                 36014
(PID.TID 0000.0001) %MON time_secondsf                =   3.1116096000000E+09
(PID.TID 0000.0001) %MON dynstat_eta_max              =   7.1737406658502E-01
(PID.TID 0000.0001) %MON dynstat_eta_min              =  -1.1957664827303E+01
(PID.TID 0000.0001) %MON dynstat_eta_mean             =  -5.8199562292739E-01
(PID.TID 0000.0001) %MON dynstat_eta_sd               =   1.6980787411109E+00
(PID.TID 0000.0001) %MON dynstat_eta_del2             =   9.8419659844859E-02
(PID.TID 0000.0001) %MON dynstat_uvel_max             =   1.7354201187257E-01
(PID.TID 0000.0001) %MON dynstat_uvel_min             =  -2.6595693345225E-01
(PID.TID 0000.0001) %MON dynstat_uvel_mean            =  -5.2179966154972E-04
(PID.TID 0000.0001) %MON dynstat_uvel_sd              =   1.2968171049948E-02
(PID.TID 0000.0001) %MON dynstat_uvel_del2            =   1.7890527844836E-03
(PID.TID 0000.0001) %MON dynstat_vvel_max             =   1.9417552573825E-01
(PID.TID 0000.0001) %MON dynstat_vvel_min             =  -2.1150857461708E-01
(PID.TID 0000.0001) %MON dynstat_vvel_mean            =  -4.1790641177431E-04
(PID.TID 0000.0001) %MON dynstat_vvel_sd              =   1.3473142215922E-02
(PID.TID 0000.0001) %MON dynstat_vvel_del2            =   1.8171164722917E-03
(PID.TID 0000.0001) %MON dynstat_wvel_max             =   9.1166675438459E-05
(PID.TID 0000.0001) %MON dynstat_wvel_min             =  -1.7742754454101E-04
(PID.TID 0000.0001) %MON dynstat_wvel_mean            =  -1.2779393567302E-09
(PID.TID 0000.0001) %MON dynstat_wvel_sd              =   4.6211943184064E-06
(PID.TID 0000.0001) %MON dynstat_wvel_del2            =   1.1354316825487E-06
(PID.TID 0000.0001) %MON dynstat_theta_max            =   2.9876343281867E+01
(PID.TID 0000.0001) %MON dynstat_theta_min            =  -3.4761606544431E+00
(PID.TID 0000.0001) %MON dynstat_theta_mean           =   3.5036957841195E+00
(PID.TID 0000.0001) %MON dynstat_theta_sd             =   4.7501710037999E+00
(PID.TID 0000.0001) %MON dynstat_theta_del2           =   9.5523750509321E-02
(PID.TID 0000.0001) %MON dynstat_salt_max             =   4.0839850493819E+01
(PID.TID 0000.0001) %MON dynstat_salt_min             =   1.8043033337697E+01
(PID.TID 0000.0001) %MON dynstat_salt_mean            =   3.4756117154598E+01
(PID.TID 0000.0001) %MON dynstat_salt_sd              =   5.1178212236335E-01
(PID.TID 0000.0001) %MON dynstat_salt_del2            =   2.0027937886621E-02
(PID.TID 0000.0001) %MON extforcing_qnet_max          =   8.1232886498829E+02
(PID.TID 0000.0001) %MON extforcing_qnet_min          =  -2.3404919253638E+02
(PID.TID 0000.0001) %MON extforcing_qnet_mean         =  -6.3145784423541E+00
(PID.TID 0000.0001) %MON extforcing_qnet_sd           =   1.2058917959981E+02
(PID.TID 0000.0001) %MON extforcing_qnet_del2         =   1.2787434605576E+01
(PID.TID 0000.0001) %MON extforcing_qsw_max           =   0.0000000000000E+00
(PID.TID 0000.0001) %MON extforcing_qsw_min           =  -3.3930406677812E+02
(PID.TID 0000.0001) %MON extforcing_qsw_mean          =  -1.8662910694238E+02
(PID.TID 0000.0001) %MON extforcing_qsw_sd            =   7.9150342108049E+01
(PID.TID 0000.0001) %MON extforcing_qsw_del2          =   3.8859764216879E+00
(PID.TID 0000.0001) %MON extforcing_empmr_max         =   3.0854991926621E-04
(PID.TID 0000.0001) %MON extforcing_empmr_min         =  -3.2186406145159E-04
(PID.TID 0000.0001) %MON extforcing_empmr_mean        =  -8.8064981633188E-07
(PID.TID 0000.0001) %MON extforcing_empmr_sd          =   4.8232302156214E-05
(PID.TID 0000.0001) %MON extforcing_empmr_del2        =   8.0928856046883E-06
(PID.TID 0000.0001) %MON advcfl_uvel_max              =   7.5430431180755E-02
(PID.TID 0000.0001) %MON advcfl_vvel_max              =   8.4638376082906E-02
(PID.TID 0000.0001) %MON advcfl_wvel_max              =   5.7848074899408E-02
(PID.TID 0000.0001) %MON advcfl_W_hf_max              =   6.3905985873364E-02
(PID.TID 0000.0001) %MON pe_b_mean                    =  -1.9243178654248E-03
(PID.TID 0000.0001) %MON ke_max                       =   3.5229955589599E-02
(PID.TID 0000.0001) %MON ke_mean                      =   1.6168347956034E-04
(PID.TID 0000.0001) %MON ke_vol                       =   1.3395906381231E+18
(PID.TID 0000.0001) %MON vort_r_min                   =  -1.2734979596032E-06
(PID.TID 0000.0001) %MON vort_r_max                   =   1.4089723554282E-06
(PID.TID 0000.0001) %MON vort_a_mean                  =  -2.0549865324846E-05
(PID.TID 0000.0001) %MON vort_a_sd                    =   7.5259582101505E-05
(PID.TID 0000.0001) %MON vort_p_mean                  =  -2.4787193509048E-05
(PID.TID 0000.0001) %MON vort_p_sd                    =   1.2817301427182E-04
(PID.TID 0000.0001) %MON surfExpan_theta_mean         =   7.7079819000353E-08
(PID.TID 0000.0001) %MON surfExpan_salt_mean          =   1.9614681895694E-08
(PID.TID 0000.0001) // =======================================================
(PID.TID 0000.0001) // End MONITOR dynamic field statistics
(PID.TID 0000.0001) // =======================================================
(PID.TID 0000.0001) // =======================================================
(PID.TID 0000.0001) // Begin MONITOR Therm.SeaIce statistics
(PID.TID 0000.0001) // =======================================================
(PID.TID 0000.0001) %MON thSI_time_sec                =   3.1116096000000E+09
(PID.TID 0000.0001) %MON thSI_Ice_Area_G              =   2.4930013382393E+13
(PID.TID 0000.0001) %MON thSI_Ice_Area_S              =   1.1527344318468E+13
(PID.TID 0000.0001) %MON thSI_Ice_Area_N              =   1.3402669063925E+13
(PID.TID 0000.0001) %MON thSI_IceH_ave_G              =   4.5613180653503E+00
(PID.TID 0000.0001) %MON thSI_IceH_ave_S              =   5.8540059755783E+00
(PID.TID 0000.0001) %MON thSI_IceH_ave_N              =   3.4495052938460E+00
(PID.TID 0000.0001) %MON thSI_IceH_max_S              =   1.0000000000000E+01
(PID.TID 0000.0001) %MON thSI_IceH_max_N              =   1.0000000000000E+01
(PID.TID 0000.0001) %MON thSI_SnwH_ave_G              =   1.0007954045180E+00
(PID.TID 0000.0001) %MON thSI_SnwH_ave_S              =   1.7335009815372E+00
(PID.TID 0000.0001) %MON thSI_SnwH_ave_N              =   3.7061126506950E-01
(PID.TID 0000.0001) %MON thSI_SnwH_max_S              =   4.0931829494980E+00
(PID.TID 0000.0001) %MON thSI_SnwH_max_N              =   4.1049930860985E+00
(PID.TID 0000.0001) %MON thSI_TotEnerg_G              =  -3.8079763240310E+22
(PID.TID 0000.0001) %MON thSI_Tsrf_ave_G              =  -1.7775516000779E+01
(PID.TID 0000.0001) %MON thSI_Tsrf_ave_S              =  -1.4831260848927E-01
(PID.TID 0000.0001) %MON thSI_Tsrf_ave_N              =  -3.2936290463344E+01
(PID.TID 0000.0001) %MON thSI_Tsrf_min_S              =  -5.5142622642460E+00
(PID.TID 0000.0001) %MON thSI_Tsrf_min_N              =  -4.7732550087572E+01
(PID.TID 0000.0001) %MON thSI_Tsrf_max_S              =   0.0000000000000E+00
(PID.TID 0000.0001) %MON thSI_Tsrf_max_N              =  -7.3680002154228E+00
(PID.TID 0000.0001) %MON thSI_Tic1_ave_G              =  -8.6303545688169E+00
(PID.TID 0000.0001) %MON thSI_Tic1_ave_S              =  -4.8569527436491E+00
(PID.TID 0000.0001) %MON thSI_Tic1_ave_N              =  -1.4138017736093E+01
(PID.TID 0000.0001) %MON thSI_Tic1_min_S              =  -1.4660760778607E+01
(PID.TID 0000.0001) %MON thSI_Tic1_min_N              =  -2.1501493250135E+01
(PID.TID 0000.0001) %MON thSI_Tic1_max_S              =  -1.6093929460678E-01
(PID.TID 0000.0001) %MON thSI_Tic1_max_N              =  -8.6662576935006E-01
(PID.TID 0000.0001) %MON thSI_Tic2_ave_G              =  -3.9102525212713E+00
(PID.TID 0000.0001) %MON thSI_Tic2_ave_S              =  -3.0534402067601E+00
(PID.TID 0000.0001) %MON thSI_Tic2_ave_N              =  -5.1608571068806E+00
(PID.TID 0000.0001) %MON thSI_Tic2_min_S              =  -8.3951639892979E+00
(PID.TID 0000.0001) %MON thSI_Tic2_min_N              =  -7.8438840895258E+00
(PID.TID 0000.0001) %MON thSI_Tic2_max_S              =  -9.6811706978954E-01
(PID.TID 0000.0001) %MON thSI_Tic2_max_N              =  -1.3623327669032E+00
(PID.TID 0000.0001) // =======================================================
(PID.TID 0000.0001) // End MONITOR Therm.SeaIce statistics
(PID.TID 0000.0001) // =======================================================
 cg2d: Sum(rhs),rhsMax =   3.91244729461190E+02  2.30381959125212E+02
(PID.TID 0000.0001)                    cg2d_init_res =    2.58048674655791E+00
(PID.TID 0000.0001)                       cg2d_iters =    69
(PID.TID 0000.0001)                         cg2d_res =    5.49118874731523E-07
(PID.TID 0000.0001) // =======================================================
(PID.TID 0000.0001) // Begin MONITOR dynamic field statistics
(PID.TID 0000.0001) // =======================================================
(PID.TID 0000.0001) %MON time_tsnumber                =                 36015
(PID.TID 0000.0001) %MON time_secondsf                =   3.1116960000000E+09
(PID.TID 0000.0001) %MON dynstat_eta_max              =   7.1611388842343E-01
(PID.TID 0000.0001) %MON dynstat_eta_min              =  -1.1954543683476E+01
(PID.TID 0000.0001) %MON dynstat_eta_mean             =  -5.8191512176128E-01
(PID.TID 0000.0001) %MON dynstat_eta_sd               =   1.6975911317105E+00
(PID.TID 0000.0001) %MON dynstat_eta_del2             =   9.8440647571627E-02
(PID.TID 0000.0001) %MON dynstat_uvel_max             =   1.7320618878937E-01
(PID.TID 0000.0001) %MON dynstat_uvel_min             =  -2.6546761818066E-01
(PID.TID 0000.0001) %MON dynstat_uvel_mean            =  -5.2103512992639E-04
(PID.TID 0000.0001) %MON dynstat_uvel_sd              =   1.2967109948063E-02
(PID.TID 0000.0001) %MON dynstat_uvel_del2            =   1.7891839371692E-03
(PID.TID 0000.0001) %MON dynstat_vvel_max             =   1.9380511498494E-01
(PID.TID 0000.0001) %MON dynstat_vvel_min             =  -2.1153750379228E-01
(PID.TID 0000.0001) %MON dynstat_vvel_mean            =  -4.1737971311224E-04
(PID.TID 0000.0001) %MON dynstat_vvel_sd              =   1.3470381798102E-02
(PID.TID 0000.0001) %MON dynstat_vvel_del2            =   1.8162085629697E-03
(PID.TID 0000.0001) %MON dynstat_wvel_max             =   9.1739669251895E-05
(PID.TID 0000.0001) %MON dynstat_wvel_min             =  -1.7718879980220E-04
(PID.TID 0000.0001) %MON dynstat_wvel_mean            =  -1.2817932394895E-09
(PID.TID 0000.0001) %MON dynstat_wvel_sd              =   4.6212282543158E-06
(PID.TID 0000.0001) %MON dynstat_wvel_del2            =   1.1353427428250E-06
(PID.TID 0000.0001) %MON dynstat_theta_max            =   2.9861539224635E+01
(PID.TID 0000.0001) %MON dynstat_theta_min            =  -3.4942552966540E+00
(PID.TID 0000.0001) %MON dynstat_theta_mean           =   3.5037669637976E+00
(PID.TID 0000.0001) %MON dynstat_theta_sd             =   4.7503177721063E+00
(PID.TID 0000.0001) %MON dynstat_theta_del2           =   9.5520685563836E-02
(PID.TID 0000.0001) %MON dynstat_salt_max             =   4.0840584655423E+01
(PID.TID 0000.0001) %MON dynstat_salt_min             =   1.8093809723115E+01
(PID.TID 0000.0001) %MON dynstat_salt_mean            =   3.4756117465206E+01
(PID.TID 0000.0001) %MON dynstat_salt_sd              =   5.1177485228373E-01
(PID.TID 0000.0001) %MON dynstat_salt_del2            =   2.0016541612215E-02
(PID.TID 0000.0001) %MON extforcing_qnet_max          =   8.1538008368993E+02
(PID.TID 0000.0001) %MON extforcing_qnet_min          =  -2.3367839909696E+02
(PID.TID 0000.0001) %MON extforcing_qnet_mean         =  -6.3824683415334E+00
(PID.TID 0000.0001) %MON extforcing_qnet_sd           =   1.2067440497693E+02
(PID.TID 0000.0001) %MON extforcing_qnet_del2         =   1.2851967799199E+01
(PID.TID 0000.0001) %MON extforcing_qsw_max           =   0.0000000000000E+00
(PID.TID 0000.0001) %MON extforcing_qsw_min           =  -3.3910002413092E+02
(PID.TID 0000.0001) %MON extforcing_qsw_mean          =  -1.8663746921469E+02
(PID.TID 0000.0001) %MON extforcing_qsw_sd            =   7.9015101708173E+01
(PID.TID 0000.0001) %MON extforcing_qsw_del2          =   3.8836150469803E+00
(PID.TID 0000.0001) %MON extforcing_empmr_max         =   2.6780416664960E-04
(PID.TID 0000.0001) %MON extforcing_empmr_min         =  -3.2195583803713E-04
(PID.TID 0000.0001) %MON extforcing_empmr_mean        =  -9.6433688561522E-07
(PID.TID 0000.0001) %MON extforcing_empmr_sd          =   4.8116623438440E-05
(PID.TID 0000.0001) %MON extforcing_empmr_del2        =   8.0431669487506E-06
(PID.TID 0000.0001) %MON advcfl_uvel_max              =   7.5291652088063E-02
(PID.TID 0000.0001) %MON advcfl_vvel_max              =   8.4476919253965E-02
(PID.TID 0000.0001) %MON advcfl_wvel_max              =   5.7770235105320E-02
(PID.TID 0000.0001) %MON advcfl_W_hf_max              =   6.3820029944001E-02
(PID.TID 0000.0001) %MON pe_b_mean                    =  -1.9233537690140E-03
(PID.TID 0000.0001) %MON ke_max                       =   3.5089949808634E-02
(PID.TID 0000.0001) %MON ke_mean                      =   1.6163577938539E-04
(PID.TID 0000.0001) %MON ke_vol                       =   1.3395906648743E+18
(PID.TID 0000.0001) %MON vort_r_min                   =  -1.2786015054100E-06
(PID.TID 0000.0001) %MON vort_r_max                   =   1.4115440661903E-06
(PID.TID 0000.0001) %MON vort_a_mean                  =  -2.0549865324846E-05
(PID.TID 0000.0001) %MON vort_a_sd                    =   7.5259582029271E-05
(PID.TID 0000.0001) %MON vort_p_mean                  =  -2.4787192758146E-05
(PID.TID 0000.0001) %MON vort_p_sd                    =   1.2817301331894E-04
(PID.TID 0000.0001) %MON surfExpan_theta_mean         =   7.6049992304351E-08
(PID.TID 0000.0001) %MON surfExpan_salt_mean          =   1.9630823447307E-08
(PID.TID 0000.0001) // =======================================================
(PID.TID 0000.0001) // End MONITOR dynamic field statistics
(PID.TID 0000.0001) // =======================================================
(PID.TID 0000.0001) // =======================================================
(PID.TID 0000.0001) // Begin MONITOR Therm.SeaIce statistics
(PID.TID 0000.0001) // =======================================================
(PID.TID 0000.0001) %MON thSI_time_sec                =   3.1116960000000E+09
(PID.TID 0000.0001) %MON thSI_Ice_Area_G              =   2.4912537540426E+13
(PID.TID 0000.0001) %MON thSI_Ice_Area_S              =   1.1493629526079E+13
(PID.TID 0000.0001) %MON thSI_Ice_Area_N              =   1.3418908014347E+13
(PID.TID 0000.0001) %MON thSI_IceH_ave_G              =   4.5637624130591E+00
(PID.TID 0000.0001) %MON thSI_IceH_ave_S              =   5.8643363095102E+00
(PID.TID 0000.0001) %MON thSI_IceH_ave_N              =   3.4497884204573E+00
(PID.TID 0000.0001) %MON thSI_IceH_max_S              =   1.0000000000000E+01
(PID.TID 0000.0001) %MON thSI_IceH_max_N              =   1.0000000000000E+01
(PID.TID 0000.0001) %MON thSI_SnwH_ave_G              =   9.9835185607108E-01
(PID.TID 0000.0001) %MON thSI_SnwH_ave_S              =   1.7283329153525E+00
(PID.TID 0000.0001) %MON thSI_SnwH_ave_N              =   3.7310486522312E-01
(PID.TID 0000.0001) %MON thSI_SnwH_max_S              =   4.0931270742122E+00
(PID.TID 0000.0001) %MON thSI_SnwH_max_N              =   4.1053702345527E+00
(PID.TID 0000.0001) %MON thSI_TotEnerg_G              =  -3.8067624840876E+22
(PID.TID 0000.0001) %MON thSI_Tsrf_ave_G              =  -1.7849129916688E+01
(PID.TID 0000.0001) %MON thSI_Tsrf_ave_S              =  -1.3169074349859E-01
(PID.TID 0000.0001) %MON thSI_Tsrf_ave_N              =  -3.3024558631883E+01
(PID.TID 0000.0001) %MON thSI_Tsrf_min_S              =  -5.5301433622749E+00
(PID.TID 0000.0001) %MON thSI_Tsrf_min_N              =  -4.7847784666728E+01
(PID.TID 0000.0001) %MON thSI_Tsrf_max_S              =   0.0000000000000E+00
(PID.TID 0000.0001) %MON thSI_Tsrf_max_N              =  -7.6302321044509E+00
(PID.TID 0000.0001) %MON thSI_Tic1_ave_G              =  -8.6512414652608E+00
(PID.TID 0000.0001) %MON thSI_Tic1_ave_S              =  -4.8366293748381E+00
(PID.TID 0000.0001) %MON thSI_Tic1_ave_N              =  -1.4205381276360E+01
(PID.TID 0000.0001) %MON thSI_Tic1_min_S              =  -1.4529752898170E+01
(PID.TID 0000.0001) %MON thSI_Tic1_min_N              =  -2.1566733407177E+01
(PID.TID 0000.0001) %MON thSI_Tic1_max_S              =  -1.5593667490286E-01
(PID.TID 0000.0001) %MON thSI_Tic1_max_N              =  -8.9121204477310E-01
(PID.TID 0000.0001) %MON thSI_Tic2_ave_G              =  -3.9203009705699E+00
(PID.TID 0000.0001) %MON thSI_Tic2_ave_S              =  -3.0494517294389E+00
(PID.TID 0000.0001) %MON thSI_Tic2_ave_N              =  -5.1882722150839E+00
(PID.TID 0000.0001) %MON thSI_Tic2_min_S              =  -8.3614740129122E+00
(PID.TID 0000.0001) %MON thSI_Tic2_min_N              =  -7.8697514121839E+00
(PID.TID 0000.0001) %MON thSI_Tic2_max_S              =  -9.9312911580093E-01
(PID.TID 0000.0001) %MON thSI_Tic2_max_N              =  -1.3762295861468E+00
(PID.TID 0000.0001) // =======================================================
(PID.TID 0000.0001) // End MONITOR Therm.SeaIce statistics
(PID.TID 0000.0001) // =======================================================
S/R BULKF_FIELDS_LOAD: Reading new data:    1    2     36015  3.111696000000E+09
(PID.TID 0000.0001)  MDS_READ_FIELD: opening global file: ncep_tair_cs.bin
(PID.TID 0000.0001)  MDS_READ_FIELD: opening global file: ncep_tair_cs.bin
(PID.TID 0000.0001)  MDS_READ_FIELD: opening global file: ncep_qair_cs.bin
(PID.TID 0000.0001)  MDS_READ_FIELD: opening global file: ncep_qair_cs.bin
(PID.TID 0000.0001)  MDS_READ_FIELD: opening global file: ncep_downsolar_cs.bin
(PID.TID 0000.0001)  MDS_READ_FIELD: opening global file: ncep_downsolar_cs.bin
(PID.TID 0000.0001)  MDS_READ_FIELD: opening global file: ncep_downlw_cs.bin
(PID.TID 0000.0001)  MDS_READ_FIELD: opening global file: ncep_downlw_cs.bin
(PID.TID 0000.0001)  MDS_READ_FIELD: opening global file: ncep_windspeed_cs.bin
(PID.TID 0000.0001)  MDS_READ_FIELD: opening global file: ncep_windspeed_cs.bin
(PID.TID 0000.0001)  MDS_READ_FIELD: opening global file: ncep_pr_scal_cs.bin
(PID.TID 0000.0001)  MDS_READ_FIELD: opening global file: ncep_pr_scal_cs.bin
S/R EXTERNAL_FIELDS_LOAD: Reading new data:    1    2     36015  3.111696000000E+09
(PID.TID 0000.0001)  MDS_READ_FIELD: opening global file: trenberth_taux.bin
(PID.TID 0000.0001)  MDS_READ_FIELD: opening global file: trenberth_taux.bin
(PID.TID 0000.0001)  MDS_READ_FIELD: opening global file: trenberth_tauy.bin
(PID.TID 0000.0001)  MDS_READ_FIELD: opening global file: trenberth_tauy.bin
(PID.TID 0000.0001)  MDS_READ_FIELD: opening global file: lev_surfT_cs_12m.bin
(PID.TID 0000.0001)  MDS_READ_FIELD: opening global file: lev_surfT_cs_12m.bin
(PID.TID 0000.0001)  MDS_READ_FIELD: opening global file: lev_surfS_cs_12m.bin
(PID.TID 0000.0001)  MDS_READ_FIELD: opening global file: lev_surfS_cs_12m.bin
 cg2d: Sum(rhs),rhsMax =   3.91185325999751E+02  2.30486310409305E+02
(PID.TID 0000.0001)                    cg2d_init_res =    2.53105133774053E+00
(PID.TID 0000.0001)                       cg2d_iters =    69
(PID.TID 0000.0001)                         cg2d_res =    5.33592759708343E-07
(PID.TID 0000.0001) // =======================================================
(PID.TID 0000.0001) // Begin MONITOR dynamic field statistics
(PID.TID 0000.0001) // =======================================================
(PID.TID 0000.0001) %MON time_tsnumber                =                 36016
(PID.TID 0000.0001) %MON time_secondsf                =   3.1117824000000E+09
(PID.TID 0000.0001) %MON dynstat_eta_max              =   7.1488498298993E-01
(PID.TID 0000.0001) %MON dynstat_eta_min              =  -1.1951284945209E+01
(PID.TID 0000.0001) %MON dynstat_eta_mean             =  -5.8182676843690E-01
(PID.TID 0000.0001) %MON dynstat_eta_sd               =   1.6970909606182E+00
(PID.TID 0000.0001) %MON dynstat_eta_del2             =   9.8462835167926E-02
(PID.TID 0000.0001) %MON dynstat_uvel_max             =   1.7283827255191E-01
(PID.TID 0000.0001) %MON dynstat_uvel_min             =  -2.6496468487206E-01
(PID.TID 0000.0001) %MON dynstat_uvel_mean            =  -5.2022312476761E-04
(PID.TID 0000.0001) %MON dynstat_uvel_sd              =   1.2966244720910E-02
(PID.TID 0000.0001) %MON dynstat_uvel_del2            =   1.7893216766022E-03
(PID.TID 0000.0001) %MON dynstat_vvel_max             =   1.9338801491521E-01
(PID.TID 0000.0001) %MON dynstat_vvel_min             =  -2.1156197882243E-01
(PID.TID 0000.0001) %MON dynstat_vvel_mean            =  -4.1684625488497E-04
(PID.TID 0000.0001) %MON dynstat_vvel_sd              =   1.3467369425563E-02
(PID.TID 0000.0001) %MON dynstat_vvel_del2            =   1.8153813957454E-03
(PID.TID 0000.0001) %MON dynstat_wvel_max             =   9.2252842315474E-05
(PID.TID 0000.0001) %MON dynstat_wvel_min             =  -1.7694033076207E-04
(PID.TID 0000.0001) %MON dynstat_wvel_mean            =  -1.2898062508750E-09
(PID.TID 0000.0001) %MON dynstat_wvel_sd              =   4.6212226293990E-06
(PID.TID 0000.0001) %MON dynstat_wvel_del2            =   1.1353882057467E-06
(PID.TID 0000.0001) %MON dynstat_theta_max            =   2.9846689843107E+01
(PID.TID 0000.0001) %MON dynstat_theta_min            =  -3.5122955476188E+00
(PID.TID 0000.0001) %MON dynstat_theta_mean           =   3.5038383551240E+00
(PID.TID 0000.0001) %MON dynstat_theta_sd             =   4.7504717729820E+00
(PID.TID 0000.0001) %MON dynstat_theta_del2           =   9.5557995983483E-02
(PID.TID 0000.0001) %MON dynstat_salt_max             =   4.0841190697168E+01
(PID.TID 0000.0001) %MON dynstat_salt_min             =   1.8095233471110E+01
(PID.TID 0000.0001) %MON dynstat_salt_mean            =   3.4756117723137E+01
(PID.TID 0000.0001) %MON dynstat_salt_sd              =   5.1176820749561E-01
(PID.TID 0000.0001) %MON dynstat_salt_del2            =   2.0016515439622E-02
(PID.TID 0000.0001) %MON extforcing_qnet_max          =   8.1841713990384E+02
(PID.TID 0000.0001) %MON extforcing_qnet_min          =  -2.3330931537975E+02
(PID.TID 0000.0001) %MON extforcing_qnet_mean         =  -6.4213345133256E+00
(PID.TID 0000.0001) %MON extforcing_qnet_sd           =   1.2080732031456E+02
(PID.TID 0000.0001) %MON extforcing_qnet_del2         =   1.2924717971895E+01
(PID.TID 0000.0001) %MON extforcing_qsw_max           =   0.0000000000000E+00
(PID.TID 0000.0001) %MON extforcing_qsw_min           =  -3.3889598148373E+02
(PID.TID 0000.0001) %MON extforcing_qsw_mean          =  -1.8664899329533E+02
(PID.TID 0000.0001) %MON extforcing_qsw_sd            =   7.8879491330211E+01
(PID.TID 0000.0001) %MON extforcing_qsw_del2          =   3.8815768734674E+00
(PID.TID 0000.0001) %MON extforcing_empmr_max         =   2.3999387173797E-04
(PID.TID 0000.0001) %MON extforcing_empmr_min         =  -3.2098824640116E-04
(PID.TID 0000.0001) %MON extforcing_empmr_mean        =  -1.0583991983697E-06
(PID.TID 0000.0001) %MON extforcing_empmr_sd          =   4.7942961154827E-05
(PID.TID 0000.0001) %MON extforcing_empmr_del2        =   7.9863396708764E-06
(PID.TID 0000.0001) %MON advcfl_uvel_max              =   7.5149010661761E-02
(PID.TID 0000.0001) %MON advcfl_vvel_max              =   8.4295111209765E-02
(PID.TID 0000.0001) %MON advcfl_wvel_max              =   5.7689224822047E-02
(PID.TID 0000.0001) %MON advcfl_W_hf_max              =   6.3730573652958E-02
(PID.TID 0000.0001) %MON pe_b_mean                    =  -1.9223736687984E-03
(PID.TID 0000.0001) %MON ke_max                       =   3.4947482410781E-02
(PID.TID 0000.0001) %MON ke_mean                      =   1.6158724773680E-04
(PID.TID 0000.0001) %MON ke_vol                       =   1.3395906941676E+18
(PID.TID 0000.0001) %MON vort_r_min                   =  -1.2836458756128E-06
(PID.TID 0000.0001) %MON vort_r_max                   =   1.4138278528539E-06
(PID.TID 0000.0001) %MON vort_a_mean                  =  -2.0549865324846E-05
(PID.TID 0000.0001) %MON vort_a_sd                    =   7.5259581961757E-05
(PID.TID 0000.0001) %MON vort_p_mean                  =  -2.4787191973045E-05
(PID.TID 0000.0001) %MON vort_p_sd                    =   1.2817301136683E-04
(PID.TID 0000.0001) %MON surfExpan_theta_mean         =   7.5167045967763E-08
(PID.TID 0000.0001) %MON surfExpan_salt_mean          =   1.9657032864109E-08
(PID.TID 0000.0001) // =======================================================
(PID.TID 0000.0001) // End MONITOR dynamic field statistics
(PID.TID 0000.0001) // =======================================================
(PID.TID 0000.0001) // =======================================================
(PID.TID 0000.0001) // Begin MONITOR Therm.SeaIce statistics
(PID.TID 0000.0001) // =======================================================
(PID.TID 0000.0001) %MON thSI_time_sec                =   3.1117824000000E+09
(PID.TID 0000.0001) %MON thSI_Ice_Area_G              =   2.4891960339513E+13
(PID.TID 0000.0001) %MON thSI_Ice_Area_S              =   1.1459126737505E+13
(PID.TID 0000.0001) %MON thSI_Ice_Area_N              =   1.3432833602008E+13
(PID.TID 0000.0001) %MON thSI_IceH_ave_G              =   4.5665948294298E+00
(PID.TID 0000.0001) %MON thSI_IceH_ave_S              =   5.8749829345149E+00
(PID.TID 0000.0001) %MON thSI_IceH_ave_N              =   3.4504501973864E+00
(PID.TID 0000.0001) %MON thSI_IceH_max_S              =   1.0000000000000E+01
(PID.TID 0000.0001) %MON thSI_IceH_max_N              =   1.0000000000000E+01
(PID.TID 0000.0001) %MON thSI_SnwH_ave_G              =   9.9623716274879E-01
(PID.TID 0000.0001) %MON thSI_SnwH_ave_S              =   1.7237247639699E+00
(PID.TID 0000.0001) %MON thSI_SnwH_ave_N              =   3.7564043168306E-01
(PID.TID 0000.0001) %MON thSI_SnwH_max_S              =   4.0930733786376E+00
(PID.TID 0000.0001) %MON thSI_SnwH_max_N              =   4.1057478290238E+00
(PID.TID 0000.0001) %MON thSI_TotEnerg_G              =  -3.8054401941674E+22
(PID.TID 0000.0001) %MON thSI_Tsrf_ave_G              =  -1.7939195428006E+01
(PID.TID 0000.0001) %MON thSI_Tsrf_ave_S              =  -1.5216632701245E-01
(PID.TID 0000.0001) %MON thSI_Tsrf_ave_N              =  -3.3112749034856E+01
(PID.TID 0000.0001) %MON thSI_Tsrf_min_S              =  -5.5459877382837E+00
(PID.TID 0000.0001) %MON thSI_Tsrf_min_N              =  -4.7963087635094E+01
(PID.TID 0000.0001) %MON thSI_Tsrf_max_S              =   0.0000000000000E+00
(PID.TID 0000.0001) %MON thSI_Tsrf_max_N              =  -7.8486971905933E+00
(PID.TID 0000.0001) %MON thSI_Tic1_ave_G              =  -8.6698155116454E+00
(PID.TID 0000.0001) %MON thSI_Tic1_ave_S              =  -4.8131578138926E+00
(PID.TID 0000.0001) %MON thSI_Tic1_ave_N              =  -1.4271592666222E+01
(PID.TID 0000.0001) %MON thSI_Tic1_min_S              =  -1.4400240726241E+01
(PID.TID 0000.0001) %MON thSI_Tic1_min_N              =  -2.1666976584978E+01
(PID.TID 0000.0001) %MON thSI_Tic1_max_S              =  -1.5122458804476E-01
(PID.TID 0000.0001) %MON thSI_Tic1_max_N              =  -9.1696099908927E-01
(PID.TID 0000.0001) %MON thSI_Tic2_ave_G              =  -3.9301348142325E+00
(PID.TID 0000.0001) %MON thSI_Tic2_ave_S              =  -3.0453522899113E+00
(PID.TID 0000.0001) %MON thSI_Tic2_ave_N              =  -5.2152772665687E+00
(PID.TID 0000.0001) %MON thSI_Tic2_min_S              =  -8.3266000794908E+00
(PID.TID 0000.0001) %MON thSI_Tic2_min_N              =  -7.8948015172622E+00
(PID.TID 0000.0001) %MON thSI_Tic2_max_S              =  -9.6594499545393E-01
(PID.TID 0000.0001) %MON thSI_Tic2_max_N              =  -1.3897142727310E+00
(PID.TID 0000.0001) // =======================================================
(PID.TID 0000.0001) // End MONITOR Therm.SeaIce statistics
(PID.TID 0000.0001) // =======================================================
 cg2d: Sum(rhs),rhsMax =   3.91137986216301E+02  2.30586335088658E+02
(PID.TID 0000.0001)                    cg2d_init_res =    2.50737453779829E+00
(PID.TID 0000.0001)                       cg2d_iters =    69
(PID.TID 0000.0001)                         cg2d_res =    5.29878022785045E-07
(PID.TID 0000.0001) // =======================================================
(PID.TID 0000.0001) // Begin MONITOR dynamic field statistics
(PID.TID 0000.0001) // =======================================================
(PID.TID 0000.0001) %MON time_tsnumber                =                 36017
(PID.TID 0000.0001) %MON time_secondsf                =   3.1118688000000E+09
(PID.TID 0000.0001) %MON dynstat_eta_max              =   7.1382313292242E-01
(PID.TID 0000.0001) %MON dynstat_eta_min              =  -1.1948141799489E+01
(PID.TID 0000.0001) %MON dynstat_eta_mean             =  -5.8175635793989E-01
(PID.TID 0000.0001) %MON dynstat_eta_sd               =   1.6966340017201E+00
(PID.TID 0000.0001) %MON dynstat_eta_del2             =   9.8481159144259E-02
(PID.TID 0000.0001) %MON dynstat_uvel_max             =   1.7257288994732E-01
(PID.TID 0000.0001) %MON dynstat_uvel_min             =  -2.6445237182866E-01
(PID.TID 0000.0001) %MON dynstat_uvel_mean            =  -5.1939423111792E-04
(PID.TID 0000.0001) %MON dynstat_uvel_sd              =   1.2965661880856E-02
(PID.TID 0000.0001) %MON dynstat_uvel_del2            =   1.7895250527217E-03
(PID.TID 0000.0001) %MON dynstat_vvel_max             =   1.9292795055630E-01
(PID.TID 0000.0001) %MON dynstat_vvel_min             =  -2.1157503819146E-01
(PID.TID 0000.0001) %MON dynstat_vvel_mean            =  -4.1630896156418E-04
(PID.TID 0000.0001) %MON dynstat_vvel_sd              =   1.3463815777015E-02
(PID.TID 0000.0001) %MON dynstat_vvel_del2            =   1.8146133024811E-03
(PID.TID 0000.0001) %MON dynstat_wvel_max             =   9.2718497826864E-05
(PID.TID 0000.0001) %MON dynstat_wvel_min             =  -1.7668729590314E-04
(PID.TID 0000.0001) %MON dynstat_wvel_mean            =  -1.2450922304441E-09
(PID.TID 0000.0001) %MON dynstat_wvel_sd              =   4.6211465608395E-06
(PID.TID 0000.0001) %MON dynstat_wvel_del2            =   1.1354810776157E-06
(PID.TID 0000.0001) %MON dynstat_theta_max            =   2.9831937878732E+01
(PID.TID 0000.0001) %MON dynstat_theta_min            =  -3.5303372884598E+00
(PID.TID 0000.0001) %MON dynstat_theta_mean           =   3.5039114365993E+00
(PID.TID 0000.0001) %MON dynstat_theta_sd             =   4.7506381250490E+00
(PID.TID 0000.0001) %MON dynstat_theta_del2           =   9.5620252087521E-02
(PID.TID 0000.0001) %MON dynstat_salt_max             =   4.0841677349579E+01
(PID.TID 0000.0001) %MON dynstat_salt_min             =   1.8096651669656E+01
(PID.TID 0000.0001) %MON dynstat_salt_mean            =   3.4756118155337E+01
(PID.TID 0000.0001) %MON dynstat_salt_sd              =   5.1176105627025E-01
(PID.TID 0000.0001) %MON dynstat_salt_del2            =   2.0018587227042E-02
(PID.TID 0000.0001) %MON extforcing_qnet_max          =   8.1145496619934E+02
(PID.TID 0000.0001) %MON extforcing_qnet_min          =  -2.3176764084988E+02
(PID.TID 0000.0001) %MON extforcing_qnet_mean         =  -6.6472968964415E+00
(PID.TID 0000.0001) %MON extforcing_qnet_sd           =   1.1870823730760E+02
(PID.TID 0000.0001) %MON extforcing_qnet_del2         =   1.2784677653246E+01
(PID.TID 0000.0001) %MON extforcing_qsw_max           =   0.0000000000000E+00
(PID.TID 0000.0001) %MON extforcing_qsw_min           =  -3.3787837809554E+02
(PID.TID 0000.0001) %MON extforcing_qsw_mean          =  -1.8661941074960E+02
(PID.TID 0000.0001) %MON extforcing_qsw_sd            =   7.8409216894245E+01
(PID.TID 0000.0001) %MON extforcing_qsw_del2          =   3.8593207773982E+00
(PID.TID 0000.0001) %MON extforcing_empmr_max         =   4.6164105745763E-04
(PID.TID 0000.0001) %MON extforcing_empmr_min         =  -3.1726008428423E-04
(PID.TID 0000.0001) %MON extforcing_empmr_mean        =  -8.4345907867124E-07
(PID.TID 0000.0001) %MON extforcing_empmr_sd          =   4.8098049810930E-05
(PID.TID 0000.0001) %MON extforcing_empmr_del2        =   8.0488095893591E-06
(PID.TID 0000.0001) %MON advcfl_uvel_max              =   7.5003708964748E-02
(PID.TID 0000.0001) %MON advcfl_vvel_max              =   8.4094575637202E-02
(PID.TID 0000.0001) %MON advcfl_wvel_max              =   5.7606725909552E-02
(PID.TID 0000.0001) %MON advcfl_W_hf_max              =   6.3639473937648E-02
(PID.TID 0000.0001) %MON pe_b_mean                    =  -1.9215925032828E-03
(PID.TID 0000.0001) %MON ke_max                       =   3.4804936315063E-02
(PID.TID 0000.0001) %MON ke_mean                      =   1.6153531828133E-04
(PID.TID 0000.0001) %MON ke_vol                       =   1.3395907263182E+18
(PID.TID 0000.0001) %MON vort_r_min                   =  -1.2884370648242E-06
(PID.TID 0000.0001) %MON vort_r_max                   =   1.4155833308230E-06
(PID.TID 0000.0001) %MON vort_a_mean                  =  -2.0549865324846E-05
(PID.TID 0000.0001) %MON vort_a_sd                    =   7.5259581905747E-05
(PID.TID 0000.0001) %MON vort_p_mean                  =  -2.4787191144727E-05
(PID.TID 0000.0001) %MON vort_p_sd                    =   1.2817300813596E-04
(PID.TID 0000.0001) %MON surfExpan_theta_mean         =   7.3816492084332E-08
(PID.TID 0000.0001) %MON surfExpan_salt_mean          =   1.9539701131575E-08
(PID.TID 0000.0001) // =======================================================
(PID.TID 0000.0001) // End MONITOR dynamic field statistics
(PID.TID 0000.0001) // =======================================================
(PID.TID 0000.0001) // =======================================================
(PID.TID 0000.0001) // Begin MONITOR Therm.SeaIce statistics
(PID.TID 0000.0001) // =======================================================
(PID.TID 0000.0001) %MON thSI_time_sec                =   3.1118688000000E+09
(PID.TID 0000.0001) %MON thSI_Ice_Area_G              =   2.4892962548945E+13
(PID.TID 0000.0001) %MON thSI_Ice_Area_S              =   1.1419588744048E+13
(PID.TID 0000.0001) %MON thSI_Ice_Area_N              =   1.3473373804896E+13
(PID.TID 0000.0001) %MON thSI_IceH_ave_G              =   4.5656876976264E+00
(PID.TID 0000.0001) %MON thSI_IceH_ave_S              =   5.8883865711134E+00
(PID.TID 0000.0001) %MON thSI_IceH_ave_N              =   3.4446116118468E+00
(PID.TID 0000.0001) %MON thSI_IceH_max_S              =   1.0000000000000E+01
(PID.TID 0000.0001) %MON thSI_IceH_max_N              =   1.0000000000000E+01
(PID.TID 0000.0001) %MON thSI_SnwH_ave_G              =   9.9364451543803E-01
(PID.TID 0000.0001) %MON thSI_SnwH_ave_S              =   1.7207573955314E+00
(PID.TID 0000.0001) %MON thSI_SnwH_ave_N              =   3.7736753972249E-01
(PID.TID 0000.0001) %MON thSI_SnwH_max_S              =   4.0930368544685E+00
(PID.TID 0000.0001) %MON thSI_SnwH_max_N              =   4.1061092649161E+00
(PID.TID 0000.0001) %MON thSI_TotEnerg_G              =  -3.8043484385234E+22
(PID.TID 0000.0001) %MON thSI_Tsrf_ave_G              =  -1.7962047578146E+01
(PID.TID 0000.0001) %MON thSI_Tsrf_ave_S              =  -1.4823040366744E-01
(PID.TID 0000.0001) %MON thSI_Tsrf_ave_N              =  -3.3060453444410E+01
(PID.TID 0000.0001) %MON thSI_Tsrf_min_S              =  -5.7900292618695E+00
(PID.TID 0000.0001) %MON thSI_Tsrf_min_N              =  -4.7949850490812E+01
(PID.TID 0000.0001) %MON thSI_Tsrf_max_S              =   0.0000000000000E+00
(PID.TID 0000.0001) %MON thSI_Tsrf_max_N              =  -1.7864705006520E+00
(PID.TID 0000.0001) %MON thSI_Tic1_ave_G              =  -8.6887062788843E+00
(PID.TID 0000.0001) %MON thSI_Tic1_ave_S              =  -4.7925833783463E+00
(PID.TID 0000.0001) %MON thSI_Tic1_ave_N              =  -1.4333691446263E+01
(PID.TID 0000.0001) %MON thSI_Tic1_min_S              =  -1.4272207731900E+01
(PID.TID 0000.0001) %MON thSI_Tic1_min_N              =  -2.1764880265156E+01
(PID.TID 0000.0001) %MON thSI_Tic1_max_S              =  -1.4680877995630E-01
(PID.TID 0000.0001) %MON thSI_Tic1_max_N              =  -9.4387998300425E-01
(PID.TID 0000.0001) %MON thSI_Tic2_ave_G              =  -3.9397143674023E+00
(PID.TID 0000.0001) %MON thSI_Tic2_ave_S              =  -3.0413608292535E+00
(PID.TID 0000.0001) %MON thSI_Tic2_ave_N              =  -5.2413140672505E+00
(PID.TID 0000.0001) %MON thSI_Tic2_min_S              =  -8.2917468067431E+00
(PID.TID 0000.0001) %MON thSI_Tic2_min_N              =  -7.9190492057570E+00
(PID.TID 0000.0001) %MON thSI_Tic2_max_S              =  -9.9363404306283E-01
(PID.TID 0000.0001) %MON thSI_Tic2_max_N              =  -1.4028195218075E+00
(PID.TID 0000.0001) // =======================================================
(PID.TID 0000.0001) // End MONITOR Therm.SeaIce statistics
(PID.TID 0000.0001) // =======================================================
 cg2d: Sum(rhs),rhsMax =   3.91105770464801E+02  2.30680090912886E+02
(PID.TID 0000.0001)                    cg2d_init_res =    2.50818125427025E+00
(PID.TID 0000.0001)                       cg2d_iters =    69
(PID.TID 0000.0001)                         cg2d_res =    5.19308521279010E-07
(PID.TID 0000.0001) // =======================================================
(PID.TID 0000.0001) // Begin MONITOR dynamic field statistics
(PID.TID 0000.0001) // =======================================================
(PID.TID 0000.0001) %MON time_tsnumber                =                 36018
(PID.TID 0000.0001) %MON time_secondsf                =   3.1119552000000E+09
(PID.TID 0000.0001) %MON dynstat_eta_max              =   7.1281776687156E-01
(PID.TID 0000.0001) %MON dynstat_eta_min              =  -1.1945177843116E+01
(PID.TID 0000.0001) %MON dynstat_eta_mean             =  -5.8170844206641E-01
(PID.TID 0000.0001) %MON dynstat_eta_sd               =   1.6962216825100E+00
(PID.TID 0000.0001) %MON dynstat_eta_del2             =   9.8502775517852E-02
(PID.TID 0000.0001) %MON dynstat_uvel_max             =   1.7265507263011E-01
(PID.TID 0000.0001) %MON dynstat_uvel_min             =  -2.6392889537638E-01
(PID.TID 0000.0001) %MON dynstat_uvel_mean            =  -5.1855701119955E-04
(PID.TID 0000.0001) %MON dynstat_uvel_sd              =   1.2965291328522E-02
(PID.TID 0000.0001) %MON dynstat_uvel_del2            =   1.7897770898970E-03
(PID.TID 0000.0001) %MON dynstat_vvel_max             =   1.9242876818252E-01
(PID.TID 0000.0001) %MON dynstat_vvel_min             =  -2.1157974079155E-01
(PID.TID 0000.0001) %MON dynstat_vvel_mean            =  -4.1574615123917E-04
(PID.TID 0000.0001) %MON dynstat_vvel_sd              =   1.3459880644487E-02
(PID.TID 0000.0001) %MON dynstat_vvel_del2            =   1.8139132780443E-03
(PID.TID 0000.0001) %MON dynstat_wvel_max             =   9.3126512324670E-05
(PID.TID 0000.0001) %MON dynstat_wvel_min             =  -1.7643750065889E-04
(PID.TID 0000.0001) %MON dynstat_wvel_mean            =  -1.1941350719749E-09
(PID.TID 0000.0001) %MON dynstat_wvel_sd              =   4.6209715638197E-06
(PID.TID 0000.0001) %MON dynstat_wvel_del2            =   1.1354603412001E-06
(PID.TID 0000.0001) %MON dynstat_theta_max            =   2.9817319827723E+01
(PID.TID 0000.0001) %MON dynstat_theta_min            =  -3.5483720361717E+00
(PID.TID 0000.0001) %MON dynstat_theta_mean           =   3.5039864237397E+00
(PID.TID 0000.0001) %MON dynstat_theta_sd             =   4.7508148798292E+00
(PID.TID 0000.0001) %MON dynstat_theta_del2           =   9.5714775642022E-02
(PID.TID 0000.0001) %MON dynstat_salt_max             =   4.0842053964416E+01
(PID.TID 0000.0001) %MON dynstat_salt_min             =   1.8098068269031E+01
(PID.TID 0000.0001) %MON dynstat_salt_mean            =   3.4756118806044E+01
(PID.TID 0000.0001) %MON dynstat_salt_sd              =   5.1175276042754E-01
(PID.TID 0000.0001) %MON dynstat_salt_del2            =   2.0032180614395E-02
(PID.TID 0000.0001) %MON extforcing_qnet_max          =   8.0461915539017E+02
(PID.TID 0000.0001) %MON extforcing_qnet_min          =  -2.3023399189773E+02
(PID.TID 0000.0001) %MON extforcing_qnet_mean         =  -6.9115832880235E+00
(PID.TID 0000.0001) %MON extforcing_qnet_sd           =   1.1675908178737E+02
(PID.TID 0000.0001) %MON extforcing_qnet_del2         =   1.2718656504793E+01
(PID.TID 0000.0001) %MON extforcing_qsw_max           =   0.0000000000000E+00
(PID.TID 0000.0001) %MON extforcing_qsw_min           =  -3.3686077470735E+02
(PID.TID 0000.0001) %MON extforcing_qsw_mean          =  -1.8658914316082E+02
(PID.TID 0000.0001) %MON extforcing_qsw_sd            =   7.7951550538339E+01
(PID.TID 0000.0001) %MON extforcing_qsw_del2          =   3.8400918669394E+00
(PID.TID 0000.0001) %MON extforcing_empmr_max         =   8.9698637398696E-04
(PID.TID 0000.0001) %MON extforcing_empmr_min         =  -3.1598978587499E-04
(PID.TID 0000.0001) %MON extforcing_empmr_mean        =  -5.7399223439432E-07
(PID.TID 0000.0001) %MON extforcing_empmr_sd          =   4.9590246520830E-05
(PID.TID 0000.0001) %MON extforcing_empmr_del2        =   8.1565210461719E-06
(PID.TID 0000.0001) %MON advcfl_uvel_max              =   7.4855241113221E-02
(PID.TID 0000.0001) %MON advcfl_vvel_max              =   8.3876989073057E-02
(PID.TID 0000.0001) %MON advcfl_wvel_max              =   5.7525283233690E-02
(PID.TID 0000.0001) %MON advcfl_W_hf_max              =   6.3549543279744E-02
(PID.TID 0000.0001) %MON pe_b_mean                    =  -1.9209630358081E-03
(PID.TID 0000.0001) %MON ke_max                       =   3.4661381334631E-02
(PID.TID 0000.0001) %MON ke_mean                      =   1.6148115254156E-04
(PID.TID 0000.0001) %MON ke_vol                       =   1.3395907519396E+18
(PID.TID 0000.0001) %MON vort_r_min                   =  -1.2930275761660E-06
(PID.TID 0000.0001) %MON vort_r_max                   =   1.4168635918900E-06
(PID.TID 0000.0001) %MON vort_a_mean                  =  -2.0549865324846E-05
(PID.TID 0000.0001) %MON vort_a_sd                    =   7.5259581868793E-05
(PID.TID 0000.0001) %MON vort_p_mean                  =  -2.4787190402417E-05
(PID.TID 0000.0001) %MON vort_p_sd                    =   1.2817300718275E-04
(PID.TID 0000.0001) %MON surfExpan_theta_mean         =   7.2617338902512E-08
(PID.TID 0000.0001) %MON surfExpan_salt_mean          =   1.9366614990342E-08
(PID.TID 0000.0001) // =======================================================
(PID.TID 0000.0001) // End MONITOR dynamic field statistics
(PID.TID 0000.0001) // =======================================================
(PID.TID 0000.0001) // =======================================================
(PID.TID 0000.0001) // Begin MONITOR Therm.SeaIce statistics
(PID.TID 0000.0001) // =======================================================
(PID.TID 0000.0001) %MON thSI_time_sec                =   3.1119552000000E+09
(PID.TID 0000.0001) %MON thSI_Ice_Area_G              =   2.4908108330987E+13
(PID.TID 0000.0001) %MON thSI_Ice_Area_S              =   1.1384712929874E+13
(PID.TID 0000.0001) %MON thSI_Ice_Area_N              =   1.3523395401113E+13
(PID.TID 0000.0001) %MON thSI_IceH_ave_G              =   4.5624885731368E+00
(PID.TID 0000.0001) %MON thSI_IceH_ave_S              =   5.8996181454357E+00
(PID.TID 0000.0001) %MON thSI_IceH_ave_N              =   3.4368218393656E+00
(PID.TID 0000.0001) %MON thSI_IceH_max_S              =   1.0000000000000E+01
(PID.TID 0000.0001) %MON thSI_IceH_max_N              =   1.0000000000000E+01
(PID.TID 0000.0001) %MON thSI_SnwH_ave_G              =   9.9085023656342E-01
(PID.TID 0000.0001) %MON thSI_SnwH_ave_S              =   1.7178647004337E+00
(PID.TID 0000.0001) %MON thSI_SnwH_ave_N              =   3.7881082474918E-01
(PID.TID 0000.0001) %MON thSI_SnwH_max_S              =   4.0930065679598E+00
(PID.TID 0000.0001) %MON thSI_SnwH_max_N              =   4.1064659930632E+00
(PID.TID 0000.0001) %MON thSI_TotEnerg_G              =  -3.8035818292518E+22
(PID.TID 0000.0001) %MON thSI_Tsrf_ave_G              =  -1.8005336664199E+01
(PID.TID 0000.0001) %MON thSI_Tsrf_ave_S              =  -1.8609268423686E-01
(PID.TID 0000.0001) %MON thSI_Tsrf_ave_N              =  -3.3006523224385E+01
(PID.TID 0000.0001) %MON thSI_Tsrf_min_S              =  -6.0831078425470E+00
(PID.TID 0000.0001) %MON thSI_Tsrf_min_N              =  -4.7936328237908E+01
(PID.TID 0000.0001) %MON thSI_Tsrf_max_S              =   0.0000000000000E+00
(PID.TID 0000.0001) %MON thSI_Tsrf_max_N              =  -1.7144136228911E+00
(PID.TID 0000.0001) %MON thSI_Tic1_ave_G              =  -8.7052282542952E+00
(PID.TID 0000.0001) %MON thSI_Tic1_ave_S              =  -4.7694074946766E+00
(PID.TID 0000.0001) %MON thSI_Tic1_ave_N              =  -1.4392952509105E+01
(PID.TID 0000.0001) %MON thSI_Tic1_min_S              =  -1.3834478134388E+01
(PID.TID 0000.0001) %MON thSI_Tic1_min_N              =  -2.1860508166470E+01
(PID.TID 0000.0001) %MON thSI_Tic1_max_S              =  -1.4266225259677E-01
(PID.TID 0000.0001) %MON thSI_Tic1_max_N              =  -9.7202612289903E-01
(PID.TID 0000.0001) %MON thSI_Tic2_ave_G              =  -3.9490113708508E+00
(PID.TID 0000.0001) %MON thSI_Tic2_ave_S              =  -3.0371692152811E+00
(PID.TID 0000.0001) %MON thSI_Tic2_ave_N              =  -5.2667306120326E+00
(PID.TID 0000.0001) %MON thSI_Tic2_min_S              =  -8.2569429612063E+00
(PID.TID 0000.0001) %MON thSI_Tic2_min_N              =  -7.9425100512852E+00
(PID.TID 0000.0001) %MON thSI_Tic2_max_S              =  -9.6970965338253E-01
(PID.TID 0000.0001) %MON thSI_Tic2_max_N              =  -1.4155920897550E+00
(PID.TID 0000.0001) // =======================================================
(PID.TID 0000.0001) // End MONITOR Therm.SeaIce statistics
(PID.TID 0000.0001) // =======================================================
 cg2d: Sum(rhs),rhsMax =   3.91077107908166E+02  2.30765315897322E+02
(PID.TID 0000.0001)                    cg2d_init_res =    2.46217227402947E+00
(PID.TID 0000.0001)                       cg2d_iters =    69
(PID.TID 0000.0001)                         cg2d_res =    5.06753530982724E-07
(PID.TID 0000.0001) // =======================================================
(PID.TID 0000.0001) // Begin MONITOR dynamic field statistics
(PID.TID 0000.0001) // =======================================================
(PID.TID 0000.0001) %MON time_tsnumber                =                 36019
(PID.TID 0000.0001) %MON time_secondsf                =   3.1120416000000E+09
(PID.TID 0000.0001) %MON dynstat_eta_max              =   7.1185331581129E-01
(PID.TID 0000.0001) %MON dynstat_eta_min              =  -1.1942409433043E+01
(PID.TID 0000.0001) %MON dynstat_eta_mean             =  -5.8166581101255E-01
(PID.TID 0000.0001) %MON dynstat_eta_sd               =   1.6958529753028E+00
(PID.TID 0000.0001) %MON dynstat_eta_del2             =   9.8526674710577E-02
(PID.TID 0000.0001) %MON dynstat_uvel_max             =   1.7268010416569E-01
(PID.TID 0000.0001) %MON dynstat_uvel_min             =  -2.6339401281574E-01
(PID.TID 0000.0001) %MON dynstat_uvel_mean            =  -5.1773439237669E-04
(PID.TID 0000.0001) %MON dynstat_uvel_sd              =   1.2965103106024E-02
(PID.TID 0000.0001) %MON dynstat_uvel_del2            =   1.7899266962614E-03
(PID.TID 0000.0001) %MON dynstat_vvel_max             =   1.9189363779589E-01
(PID.TID 0000.0001) %MON dynstat_vvel_min             =  -2.1157642372166E-01
(PID.TID 0000.0001) %MON dynstat_vvel_mean            =  -4.1513499688303E-04
(PID.TID 0000.0001) %MON dynstat_vvel_sd              =   1.3455644267491E-02
(PID.TID 0000.0001) %MON dynstat_vvel_del2            =   1.8132095833881E-03
(PID.TID 0000.0001) %MON dynstat_wvel_max             =   9.3468523008131E-05
(PID.TID 0000.0001) %MON dynstat_wvel_min             =  -1.7619680358379E-04
(PID.TID 0000.0001) %MON dynstat_wvel_mean            =  -1.1484635084513E-09
(PID.TID 0000.0001) %MON dynstat_wvel_sd              =   4.6206284382355E-06
(PID.TID 0000.0001) %MON dynstat_wvel_del2            =   1.1353702402028E-06
(PID.TID 0000.0001) %MON dynstat_theta_max            =   2.9802859915212E+01
(PID.TID 0000.0001) %MON dynstat_theta_min            =  -3.5664081809814E+00
(PID.TID 0000.0001) %MON dynstat_theta_mean           =   3.5040625561897E+00
(PID.TID 0000.0001) %MON dynstat_theta_sd             =   4.7510026621178E+00
(PID.TID 0000.0001) %MON dynstat_theta_del2           =   9.5773271971963E-02
(PID.TID 0000.0001) %MON dynstat_salt_max             =   4.0842327089568E+01
(PID.TID 0000.0001) %MON dynstat_salt_min             =   1.8099487960745E+01
(PID.TID 0000.0001) %MON dynstat_salt_mean            =   3.4756119533309E+01
(PID.TID 0000.0001) %MON dynstat_salt_sd              =   5.1174480171516E-01
(PID.TID 0000.0001) %MON dynstat_salt_del2            =   2.0036283040814E-02
(PID.TID 0000.0001) %MON extforcing_qnet_max          =   7.9790302220893E+02
(PID.TID 0000.0001) %MON extforcing_qnet_min          =  -2.2869720076605E+02
(PID.TID 0000.0001) %MON extforcing_qnet_mean         =  -7.0558431080559E+00
(PID.TID 0000.0001) %MON extforcing_qnet_sd           =   1.1495943205603E+02
(PID.TID 0000.0001) %MON extforcing_qnet_del2         =   1.2637429165759E+01
(PID.TID 0000.0001) %MON extforcing_qsw_max           =   0.0000000000000E+00
(PID.TID 0000.0001) %MON extforcing_qsw_min           =  -3.3584317131916E+02
(PID.TID 0000.0001) %MON extforcing_qsw_mean          =  -1.8655459001270E+02
(PID.TID 0000.0001) %MON extforcing_qsw_sd            =   7.7502755588224E+01
(PID.TID 0000.0001) %MON extforcing_qsw_del2          =   3.8168772958903E+00
(PID.TID 0000.0001) %MON extforcing_empmr_max         =   6.2709574130953E-04
(PID.TID 0000.0001) %MON extforcing_empmr_min         =  -3.1664154149530E-04
(PID.TID 0000.0001) %MON extforcing_empmr_mean        =  -5.1068449937618E-07
(PID.TID 0000.0001) %MON extforcing_empmr_sd          =   4.8487409829126E-05
(PID.TID 0000.0001) %MON extforcing_empmr_del2        =   8.0922145281927E-06
(PID.TID 0000.0001) %MON advcfl_uvel_max              =   7.4703538273002E-02
(PID.TID 0000.0001) %MON advcfl_vvel_max              =   8.3643733276555E-02
(PID.TID 0000.0001) %MON advcfl_wvel_max              =   5.7446806904299E-02
(PID.TID 0000.0001) %MON advcfl_W_hf_max              =   6.3462889639838E-02
(PID.TID 0000.0001) %MON pe_b_mean                    =  -1.9204688973083E-03
(PID.TID 0000.0001) %MON ke_max                       =   3.4516766780090E-02
(PID.TID 0000.0001) %MON ke_mean                      =   1.6142540155181E-04
(PID.TID 0000.0001) %MON ke_vol                       =   1.3395907693756E+18
(PID.TID 0000.0001) %MON vort_r_min                   =  -1.2974039953672E-06
(PID.TID 0000.0001) %MON vort_r_max                   =   1.4176570084501E-06
(PID.TID 0000.0001) %MON vort_a_mean                  =  -2.0549865324846E-05
(PID.TID 0000.0001) %MON vort_a_sd                    =   7.5259581853209E-05
(PID.TID 0000.0001) %MON vort_p_mean                  =  -2.4787189762786E-05
(PID.TID 0000.0001) %MON vort_p_sd                    =   1.2817300925699E-04
(PID.TID 0000.0001) %MON surfExpan_theta_mean         =   7.1896866233807E-08
(PID.TID 0000.0001) %MON surfExpan_salt_mean          =   1.9170278952098E-08
(PID.TID 0000.0001) // =======================================================
(PID.TID 0000.0001) // End MONITOR dynamic field statistics
(PID.TID 0000.0001) // =======================================================
(PID.TID 0000.0001) // =======================================================
(PID.TID 0000.0001) // Begin MONITOR Therm.SeaIce statistics
(PID.TID 0000.0001) // =======================================================
(PID.TID 0000.0001) %MON thSI_time_sec                =   3.1120416000000E+09
(PID.TID 0000.0001) %MON thSI_Ice_Area_G              =   2.4914923320928E+13
(PID.TID 0000.0001) %MON thSI_Ice_Area_S              =   1.1349038608345E+13
(PID.TID 0000.0001) %MON thSI_Ice_Area_N              =   1.3565884712583E+13
(PID.TID 0000.0001) %MON thSI_IceH_ave_G              =   4.5608353486087E+00
(PID.TID 0000.0001) %MON thSI_IceH_ave_S              =   5.9115011663729E+00
(PID.TID 0000.0001) %MON thSI_IceH_ave_N              =   3.4308863008655E+00
(PID.TID 0000.0001) %MON thSI_IceH_max_S              =   1.0000000000000E+01
(PID.TID 0000.0001) %MON thSI_IceH_max_N              =   1.0000000000000E+01
(PID.TID 0000.0001) %MON thSI_SnwH_ave_G              =   9.8869794982528E-01
(PID.TID 0000.0001) %MON thSI_SnwH_ave_S              =   1.7157297130703E+00
(PID.TID 0000.0001) %MON thSI_SnwH_ave_N              =   3.8047285243023E-01
(PID.TID 0000.0001) %MON thSI_SnwH_max_S              =   4.0929778730207E+00
(PID.TID 0000.0001) %MON thSI_SnwH_max_N              =   4.1068138614276E+00
(PID.TID 0000.0001) %MON thSI_TotEnerg_G              =  -3.8028732179531E+22
(PID.TID 0000.0001) %MON thSI_Tsrf_ave_G              =  -1.8046881747068E+01
(PID.TID 0000.0001) %MON thSI_Tsrf_ave_S              =  -2.2414822038992E-01
(PID.TID 0000.0001) %MON thSI_Tsrf_ave_N              =  -3.2957143420816E+01
(PID.TID 0000.0001) %MON thSI_Tsrf_min_S              =  -6.3852919785643E+00
(PID.TID 0000.0001) %MON thSI_Tsrf_min_N              =  -4.7922581551637E+01
(PID.TID 0000.0001) %MON thSI_Tsrf_max_S              =   0.0000000000000E+00
(PID.TID 0000.0001) %MON thSI_Tsrf_max_N              =  -4.9380528066912E+00
(PID.TID 0000.0001) %MON thSI_Tic1_ave_G              =  -8.7202524941959E+00
(PID.TID 0000.0001) %MON thSI_Tic1_ave_S              =  -4.7455515298993E+00
(PID.TID 0000.0001) %MON thSI_Tic1_ave_N              =  -1.4449622438091E+01
(PID.TID 0000.0001) %MON thSI_Tic1_min_S              =  -1.3714814231117E+01
(PID.TID 0000.0001) %MON thSI_Tic1_min_N              =  -2.1953922245938E+01
(PID.TID 0000.0001) %MON thSI_Tic1_max_S              =  -1.3876388457919E-01
(PID.TID 0000.0001) %MON thSI_Tic1_max_N              =  -1.0014584436128E+00
(PID.TID 0000.0001) %MON thSI_Tic2_ave_G              =  -3.9580336697535E+00
(PID.TID 0000.0001) %MON thSI_Tic2_ave_S              =  -3.0329857425854E+00
(PID.TID 0000.0001) %MON thSI_Tic2_ave_N              =  -5.2914526711292E+00
(PID.TID 0000.0001) %MON thSI_Tic2_min_S              =  -8.2205506245463E+00
(PID.TID 0000.0001) %MON thSI_Tic2_min_N              =  -7.9652001655345E+00
(PID.TID 0000.0001) %MON thSI_Tic2_max_S              =  -9.4596142938313E-01
(PID.TID 0000.0001) %MON thSI_Tic2_max_N              =  -1.4280807166292E+00
(PID.TID 0000.0001) // =======================================================
(PID.TID 0000.0001) // End MONITOR Therm.SeaIce statistics
(PID.TID 0000.0001) // =======================================================
 Computing Diagnostic #     23  ETAN         Counter:       1   Parms: SM      M1      
 Computing Diagnostic #     79  oceFWflx     Counter:       1   Parms: SM      U1      
 Computing Diagnostic #     26  THETA        Counter:       1   Parms: SM      MR      
 Computing Diagnostic #     27  SALT         Counter:       1   Parms: SM      MR      
 Compute Stats, Diag. #     75  oceTAUX   vol(   0 ): 3.111E+15  Parms: UU      U1      
 Compute Stats, Diag. #     76  oceTAUY   vol(   0 ): 3.130E+15  Parms: VV      U1      
 Compute Stats, Diag. #     84  TRELAX    vol(   0 ): 3.275E+15  Parms: SM      U1      
 Compute Stats, Diag. #     85  SRELAX    vol(   0 ): 3.275E+15  Parms: SM      U1      
 Compute Stats, Diag. #     86  surForcT  vol(   0 ): 3.275E+15  Parms: SM      U1      
 Compute Stats, Diag. #     87  surForcS  vol(   0 ): 3.275E+15  Parms: SM      U1      
 Compute Stats, Diag. #     88  TFLUX     vol(   0 ): 3.275E+15  Parms: SM      U1      
 Compute Stats, Diag. #     89  SFLUX     vol(   0 ): 3.275E+15  Parms: SM      U1      
 Compute Stats, Diag. #     81  oceQnet   vol(   0 ): 3.275E+15  Parms: SM      U1      
 Compute Stats, Diag. #     80  oceSflux  vol(   0 ): 3.275E+15  Parms: SM      U1      
 Compute Stats, Diag. #     79  oceFWflx  vol(   0 ): 3.275E+15  Parms: SM      U1      
 cg2d: Sum(rhs),rhsMax =   3.91039576088996E+02  2.30839704506713E+02
(PID.TID 0000.0001)                    cg2d_init_res =    2.46741042556277E+00
(PID.TID 0000.0001)                       cg2d_iters =    69
(PID.TID 0000.0001)                         cg2d_res =    4.94491252112889E-07
(PID.TID 0000.0001) // =======================================================
(PID.TID 0000.0001) // Begin MONITOR dynamic field statistics
(PID.TID 0000.0001) // =======================================================
(PID.TID 0000.0001) %MON time_tsnumber                =                 36020
(PID.TID 0000.0001) %MON time_secondsf                =   3.1121280000000E+09
(PID.TID 0000.0001) %MON dynstat_eta_max              =   7.1090700366868E-01
(PID.TID 0000.0001) %MON dynstat_eta_min              =  -1.1939830743848E+01
(PID.TID 0000.0001) %MON dynstat_eta_mean             =  -5.8160998832287E-01
(PID.TID 0000.0001) %MON dynstat_eta_sd               =   1.6955166263821E+00
(PID.TID 0000.0001) %MON dynstat_eta_del2             =   9.8557203791945E-02
(PID.TID 0000.0001) %MON dynstat_uvel_max             =   1.7264910699069E-01
(PID.TID 0000.0001) %MON dynstat_uvel_min             =  -2.6284756269401E-01
(PID.TID 0000.0001) %MON dynstat_uvel_mean            =  -5.1694399675817E-04
(PID.TID 0000.0001) %MON dynstat_uvel_sd              =   1.2965068644128E-02
(PID.TID 0000.0001) %MON dynstat_uvel_del2            =   1.7900161558029E-03
(PID.TID 0000.0001) %MON dynstat_vvel_max             =   1.9132544837206E-01
(PID.TID 0000.0001) %MON dynstat_vvel_min             =  -2.1156540312400E-01
(PID.TID 0000.0001) %MON dynstat_vvel_mean            =  -4.1447409391925E-04
(PID.TID 0000.0001) %MON dynstat_vvel_sd              =   1.3451184924990E-02
(PID.TID 0000.0001) %MON dynstat_vvel_del2            =   1.8125168850999E-03
(PID.TID 0000.0001) %MON dynstat_wvel_max             =   9.3740842478910E-05
(PID.TID 0000.0001) %MON dynstat_wvel_min             =  -1.7597301329771E-04
(PID.TID 0000.0001) %MON dynstat_wvel_mean            =  -1.1482389506553E-09
(PID.TID 0000.0001) %MON dynstat_wvel_sd              =   4.6200543503970E-06
(PID.TID 0000.0001) %MON dynstat_wvel_del2            =   1.1351923511879E-06
(PID.TID 0000.0001) %MON dynstat_theta_max            =   2.9808318505814E+01
(PID.TID 0000.0001) %MON dynstat_theta_min            =  -3.5844395179083E+00
(PID.TID 0000.0001) %MON dynstat_theta_mean           =   3.5041393542286E+00
(PID.TID 0000.0001) %MON dynstat_theta_sd             =   4.7512005983060E+00
(PID.TID 0000.0001) %MON dynstat_theta_del2           =   9.5819635380347E-02
(PID.TID 0000.0001) %MON dynstat_salt_max             =   4.0842502722751E+01
(PID.TID 0000.0001) %MON dynstat_salt_min             =   1.8100916167725E+01
(PID.TID 0000.0001) %MON dynstat_salt_mean            =   3.4756120178103E+01
(PID.TID 0000.0001) %MON dynstat_salt_sd              =   5.1173754416761E-01
(PID.TID 0000.0001) %MON dynstat_salt_del2            =   2.0042242004748E-02
(PID.TID 0000.0001) %MON extforcing_qnet_max          =   7.9130400011139E+02
(PID.TID 0000.0001) %MON extforcing_qnet_min          =  -2.2681191231762E+02
(PID.TID 0000.0001) %MON extforcing_qnet_mean         =  -7.1232609513917E+00
(PID.TID 0000.0001) %MON extforcing_qnet_sd           =   1.1325133628296E+02
(PID.TID 0000.0001) %MON extforcing_qnet_del2         =   1.2519554085140E+01
(PID.TID 0000.0001) %MON extforcing_qsw_max           =   0.0000000000000E+00
(PID.TID 0000.0001) %MON extforcing_qsw_min           =  -3.3482556793097E+02
(PID.TID 0000.0001) %MON extforcing_qsw_mean          =  -1.8651947423941E+02
(PID.TID 0000.0001) %MON extforcing_qsw_sd            =   7.7061498166227E+01
(PID.TID 0000.0001) %MON extforcing_qsw_del2          =   3.7958524205760E+00
(PID.TID 0000.0001) %MON extforcing_empmr_max         =   4.7061556765806E-04
(PID.TID 0000.0001) %MON extforcing_empmr_min         =  -3.1733984779286E-04
(PID.TID 0000.0001) %MON extforcing_empmr_mean        =  -6.6870930347696E-07
(PID.TID 0000.0001) %MON extforcing_empmr_sd          =   4.7036897813180E-05
(PID.TID 0000.0001) %MON extforcing_empmr_del2        =   7.9297654802952E-06
(PID.TID 0000.0001) %MON advcfl_uvel_max              =   7.4548554653038E-02
(PID.TID 0000.0001) %MON advcfl_vvel_max              =   8.3396067511484E-02
(PID.TID 0000.0001) %MON advcfl_wvel_max              =   5.7373842826122E-02
(PID.TID 0000.0001) %MON advcfl_W_hf_max              =   6.3382325921685E-02
(PID.TID 0000.0001) %MON pe_b_mean                    =  -1.9200864283453E-03
(PID.TID 0000.0001) %MON ke_max                       =   3.4371055052560E-02
(PID.TID 0000.0001) %MON ke_mean                      =   1.6136871285990E-04
(PID.TID 0000.0001) %MON ke_vol                       =   1.3395907848885E+18
(PID.TID 0000.0001) %MON vort_r_min                   =  -1.3015556044920E-06
(PID.TID 0000.0001) %MON vort_r_max                   =   1.4179819074305E-06
(PID.TID 0000.0001) %MON vort_a_mean                  =  -2.0549865324846E-05
(PID.TID 0000.0001) %MON vort_a_sd                    =   7.5259581857001E-05
(PID.TID 0000.0001) %MON vort_p_mean                  =  -2.4787189168136E-05
(PID.TID 0000.0001) %MON vort_p_sd                    =   1.2817301138481E-04
(PID.TID 0000.0001) %MON surfExpan_theta_mean         =   7.1650901537434E-08
(PID.TID 0000.0001) %MON surfExpan_salt_mean          =   1.9285002783901E-08
(PID.TID 0000.0001) // =======================================================
(PID.TID 0000.0001) // End MONITOR dynamic field statistics
(PID.TID 0000.0001) // =======================================================
(PID.TID 0000.0001) // =======================================================
(PID.TID 0000.0001) // Begin MONITOR Therm.SeaIce statistics
(PID.TID 0000.0001) // =======================================================
(PID.TID 0000.0001) %MON thSI_time_sec                =   3.1121280000000E+09
(PID.TID 0000.0001) %MON thSI_Ice_Area_G              =   2.4902546404711E+13
(PID.TID 0000.0001) %MON thSI_Ice_Area_S              =   1.1308193623495E+13
(PID.TID 0000.0001) %MON thSI_Ice_Area_N              =   1.3594352781216E+13
(PID.TID 0000.0001) %MON thSI_IceH_ave_G              =   4.5624029462173E+00
(PID.TID 0000.0001) %MON thSI_IceH_ave_S              =   5.9261079925361E+00
(PID.TID 0000.0001) %MON thSI_IceH_ave_N              =   3.4280318615990E+00
(PID.TID 0000.0001) %MON thSI_IceH_max_S              =   1.0000000000000E+01
(PID.TID 0000.0001) %MON thSI_IceH_max_N              =   1.0000000000000E+01
(PID.TID 0000.0001) %MON thSI_SnwH_ave_G              =   9.8759895172665E-01
(PID.TID 0000.0001) %MON thSI_SnwH_ave_S              =   1.7149836630653E+00
(PID.TID 0000.0001) %MON thSI_SnwH_ave_N              =   3.8253835877561E-01
(PID.TID 0000.0001) %MON thSI_SnwH_max_S              =   4.0929490715388E+00
(PID.TID 0000.0001) %MON thSI_SnwH_max_N              =   4.1071418904716E+00
(PID.TID 0000.0001) %MON thSI_TotEnerg_G              =  -3.8020793644157E+22
(PID.TID 0000.0001) %MON thSI_Tsrf_ave_G              =  -1.8082707187653E+01
(PID.TID 0000.0001) %MON thSI_Tsrf_ave_S              =  -2.3409357567752E-01
(PID.TID 0000.0001) %MON thSI_Tsrf_ave_N              =  -3.2929723583613E+01
(PID.TID 0000.0001) %MON thSI_Tsrf_min_S              =  -6.6878510187621E+00
(PID.TID 0000.0001) %MON thSI_Tsrf_min_N              =  -4.7908606449102E+01
(PID.TID 0000.0001) %MON thSI_Tsrf_max_S              =   0.0000000000000E+00
(PID.TID 0000.0001) %MON thSI_Tsrf_max_N              =  -1.7523908773106E+00
(PID.TID 0000.0001) %MON thSI_Tic1_ave_G              =  -8.7383888930637E+00
(PID.TID 0000.0001) %MON thSI_Tic1_ave_S              =  -4.7283732810333E+00
(PID.TID 0000.0001) %MON thSI_Tic1_ave_N              =  -1.4504798323654E+01
(PID.TID 0000.0001) %MON thSI_Tic1_min_S              =  -1.3599777533026E+01
(PID.TID 0000.0001) %MON thSI_Tic1_min_N              =  -2.2045182503631E+01
(PID.TID 0000.0001) %MON thSI_Tic1_max_S              =  -1.3509479505918E-01
(PID.TID 0000.0001) %MON thSI_Tic1_max_N              =  -1.0322376378334E+00
(PID.TID 0000.0001) %MON thSI_Tic2_ave_G              =  -3.9668435844304E+00
(PID.TID 0000.0001) %MON thSI_Tic2_ave_S              =  -3.0288000176468E+00
(PID.TID 0000.0001) %MON thSI_Tic2_ave_N              =  -5.3157518663776E+00
(PID.TID 0000.0001) %MON thSI_Tic2_min_S              =  -8.1847748009084E+00
(PID.TID 0000.0001) %MON thSI_Tic2_min_N              =  -7.9871361707602E+00
(PID.TID 0000.0001) %MON thSI_Tic2_max_S              =  -9.2283578828060E-01
(PID.TID 0000.0001) %MON thSI_Tic2_max_N              =  -1.4403440612290E+00
(PID.TID 0000.0001) // =======================================================
(PID.TID 0000.0001) // End MONITOR Therm.SeaIce statistics
(PID.TID 0000.0001) // =======================================================
 Computing Diagnostic #     23  ETAN         Counter:       1   Parms: SM      M1      
 Compute Stats, Diag. #     23  ETAN      vol(   0 ): 3.639E+15  Parms: SM      M1      
 Compute Stats, Diag. #     24  ETANSQ    vol(   0 ): 3.639E+15  Parms: SM P    M1      
 Compute Stats, Diag. #     25  DETADT2   vol(   0 ): 3.639E+15  Parms: SM      M1      
 Compute Stats, Diag. #     26  THETA     vol(   0 ): 1.340E+19  Parms: SM      MR      
 Compute Stats, Diag. #     27  SALT      vol(   0 ): 1.340E+19  Parms: SM      MR      
 Compute Stats, Diag. #     74  CONVADJ   vol(   0 ): 1.315E+19  Parms: SM      LR      
 Compute Stats, Diag. #     23  ETAN      vol(   0 ): 3.639E+14  Parms: SM      M1      
 Compute Stats, Diag. #     26  THETA     vol(   0 ): 1.340E+18  Parms: SM      MR      
 Compute Stats, Diag. #     27  SALT      vol(   0 ): 1.340E+18  Parms: SM      MR      
 Compute Stats, Diag. #    192  SI_Fract  vol(   0 ): 3.639E+15  Parms: SM P    M1      
 Compute Stats, Diag. #    192  SI_Fract  vol(   1 ): 1.289E+15  Parms: SM P    M1      
 Compute Stats, Diag. #    192  SI_Fract  vol(   3 ): 7.935E+14  Parms: SM P    M1      
 Compute Stats, Diag. #    193  SI_Thick  vol(   0 ): 2.492E+14  Parms: SM PC   M1      
    use Counter Mate  #    192  SI_Fract  vol(   0 ): 3.639E+15 integral 2.492E+14
 Compute Stats, Diag. #    193  SI_Thick  vol(   1 ): 1.151E+14  Parms: SM PC   M1      
    use Counter Mate  #    192  SI_Fract  vol(   1 ): 1.289E+15 integral 1.151E+14
 Compute Stats, Diag. #    193  SI_Thick  vol(   3 ): 1.342E+14  Parms: SM PC   M1      
    use Counter Mate  #    192  SI_Fract  vol(   3 ): 7.935E+14 integral 1.342E+14
 Compute Stats, Diag. #    194  SI_SnowH  vol(   0 ): 2.492E+14  Parms: SM PC   M1      
    use Counter Mate  #    192  SI_Fract  vol(   0 ): 3.639E+15 integral 2.492E+14
 Compute Stats, Diag. #    194  SI_SnowH  vol(   1 ): 1.151E+14  Parms: SM PC   M1      
    use Counter Mate  #    192  SI_Fract  vol(   1 ): 1.289E+15 integral 1.151E+14
 Compute Stats, Diag. #    194  SI_SnowH  vol(   3 ): 1.342E+14  Parms: SM PC   M1      
    use Counter Mate  #    192  SI_Fract  vol(   3 ): 7.935E+14 integral 1.342E+14
 Compute Stats, Diag. #    195  SI_Tsrf   vol(   0 ): 2.492E+14  Parms: SM  C   M1      
    use Counter Mate  #    192  SI_Fract  vol(   0 ): 3.639E+15 integral 2.492E+14
 Compute Stats, Diag. #    195  SI_Tsrf   vol(   1 ): 1.151E+14  Parms: SM  C   M1      
    use Counter Mate  #    192  SI_Fract  vol(   1 ): 1.289E+15 integral 1.151E+14
 Compute Stats, Diag. #    195  SI_Tsrf   vol(   3 ): 1.342E+14  Parms: SM  C   M1      
    use Counter Mate  #    192  SI_Fract  vol(   3 ): 7.935E+14 integral 1.342E+14
 Compute Stats, Diag. #    196  SI_Tice1  vol(   0 ): 2.492E+14  Parms: SM  C   M1      
    use Counter Mate  #    192  SI_Fract  vol(   0 ): 3.639E+15 integral 2.492E+14
 Compute Stats, Diag. #    196  SI_Tice1  vol(   1 ): 1.151E+14  Parms: SM  C   M1      
    use Counter Mate  #    192  SI_Fract  vol(   1 ): 1.289E+15 integral 1.151E+14
 Compute Stats, Diag. #    196  SI_Tice1  vol(   3 ): 1.342E+14  Parms: SM  C   M1      
    use Counter Mate  #    192  SI_Fract  vol(   3 ): 7.935E+14 integral 1.342E+14
 Compute Stats, Diag. #    197  SI_Tice2  vol(   0 ): 2.492E+14  Parms: SM  C   M1      
    use Counter Mate  #    192  SI_Fract  vol(   0 ): 3.639E+15 integral 2.492E+14
 Compute Stats, Diag. #    197  SI_Tice2  vol(   1 ): 1.151E+14  Parms: SM  C   M1      
    use Counter Mate  #    192  SI_Fract  vol(   1 ): 1.289E+15 integral 1.151E+14
 Compute Stats, Diag. #    197  SI_Tice2  vol(   3 ): 1.342E+14  Parms: SM  C   M1      
    use Counter Mate  #    192  SI_Fract  vol(   3 ): 7.935E+14 integral 1.342E+14
 Compute Stats, Diag. #    198  SI_Qice1  vol(   0 ): 1.137E+15  Parms: SM  C   M1      
    use Counter Mate  #    193  SI_Thick  vol(   0 ): 2.492E+14 integral 1.137E+15
 Compute Stats, Diag. #    198  SI_Qice1  vol(   1 ): 6.744E+14  Parms: SM  C   M1      
    use Counter Mate  #    193  SI_Thick  vol(   1 ): 1.151E+14 integral 6.744E+14
 Compute Stats, Diag. #    198  SI_Qice1  vol(   3 ): 4.626E+14  Parms: SM  C   M1      
    use Counter Mate  #    193  SI_Thick  vol(   3 ): 1.342E+14 integral 4.626E+14
 Compute Stats, Diag. #    199  SI_Qice2  vol(   0 ): 1.137E+15  Parms: SM  C   M1      
    use Counter Mate  #    193  SI_Thick  vol(   0 ): 2.492E+14 integral 1.137E+15
 Compute Stats, Diag. #    199  SI_Qice2  vol(   1 ): 6.744E+14  Parms: SM  C   M1      
    use Counter Mate  #    193  SI_Thick  vol(   1 ): 1.151E+14 integral 6.744E+14
 Compute Stats, Diag. #    199  SI_Qice2  vol(   3 ): 4.626E+14  Parms: SM  C   M1      
    use Counter Mate  #    193  SI_Thick  vol(   3 ): 1.342E+14 integral 4.626E+14
 Compute Stats, Diag. #    203  SIsnwPrc  vol(   0 ): 2.492E+14  Parms: SM  C   M1      
    use Counter Mate  #    201  SI_FrcFx  vol(   0 ): 3.639E+15 integral 2.492E+14
 Compute Stats, Diag. #    203  SIsnwPrc  vol(   1 ): 1.151E+14  Parms: SM  C   M1      
    use Counter Mate  #    201  SI_FrcFx  vol(   1 ): 1.289E+15 integral 1.151E+14
 Compute Stats, Diag. #    203  SIsnwPrc  vol(   3 ): 1.342E+14  Parms: SM  C   M1      
    use Counter Mate  #    201  SI_FrcFx  vol(   3 ): 7.935E+14 integral 1.342E+14
 Compute Stats, Diag. #    202  SIalbedo  vol(   0 ): 2.492E+14  Parms: SM PC   M1      
    use Counter Mate  #    201  SI_FrcFx  vol(   0 ): 3.639E+15 integral 2.492E+14
 Compute Stats, Diag. #    202  SIalbedo  vol(   1 ): 1.151E+14  Parms: SM PC   M1      
    use Counter Mate  #    201  SI_FrcFx  vol(   1 ): 1.289E+15 integral 1.151E+14
 Compute Stats, Diag. #    202  SIalbedo  vol(   3 ): 1.342E+14  Parms: SM PC   M1      
    use Counter Mate  #    201  SI_FrcFx  vol(   3 ): 7.935E+14 integral 1.342E+14
 Compute Stats, Diag. #    200  SIsnwAge  vol(   0 ): 3.639E+15  Parms: SM P    M1      
 Compute Stats, Diag. #    200  SIsnwAge  vol(   1 ): 1.289E+15  Parms: SM P    M1      
 Compute Stats, Diag. #    200  SIsnwAge  vol(   3 ): 7.935E+14  Parms: SM P    M1      
 Compute Stats, Diag. #    206  SIflx2oc  vol(   0 ): 3.639E+15  Parms: SM      M1      
 Compute Stats, Diag. #    206  SIflx2oc  vol(   1 ): 1.289E+15  Parms: SM      M1      
 Compute Stats, Diag. #    206  SIflx2oc  vol(   3 ): 7.935E+14  Parms: SM      M1      
 Compute Stats, Diag. #    207  SIfrw2oc  vol(   0 ): 3.639E+15  Parms: SM      M1      
 Compute Stats, Diag. #    207  SIfrw2oc  vol(   1 ): 1.289E+15  Parms: SM      M1      
 Compute Stats, Diag. #    207  SIfrw2oc  vol(   3 ): 7.935E+14  Parms: SM      M1      
 Compute Stats, Diag. #    208  SIsaltFx  vol(   0 ): 3.639E+15  Parms: SM      M1      
 Compute Stats, Diag. #    208  SIsaltFx  vol(   1 ): 1.289E+15  Parms: SM      M1      
 Compute Stats, Diag. #    208  SIsaltFx  vol(   3 ): 7.935E+14  Parms: SM      M1      
 Compute Stats, Diag. #    204  SIflxAtm  vol(   0 ): 3.639E+15  Parms: SM      M1      
 Compute Stats, Diag. #    204  SIflxAtm  vol(   1 ): 1.289E+15  Parms: SM      M1      
 Compute Stats, Diag. #    204  SIflxAtm  vol(   3 ): 7.935E+14  Parms: SM      M1      
 Compute Stats, Diag. #    205  SIfrwAtm  vol(   0 ): 3.639E+15  Parms: SM      M1      
 Compute Stats, Diag. #    205  SIfrwAtm  vol(   1 ): 1.289E+15  Parms: SM      M1      
 Compute Stats, Diag. #    205  SIfrwAtm  vol(   3 ): 7.935E+14  Parms: SM      M1      
(PID.TID 0000.0001) %CHECKPOINT     36020 ckptA
(PID.TID 0000.0001) DIAGSTATS_CLOSE_IO: close file: dynStDiag.0000036000.txt , unit=     9
(PID.TID 0000.0001) DIAGSTATS_CLOSE_IO: close file: surfStDiag.0000036000.txt , unit=    10
(PID.TID 0000.0001) DIAGSTATS_CLOSE_IO: close file: instStDiag.0000036000.txt , unit=    11
(PID.TID 0000.0001) DIAGSTATS_CLOSE_IO: close file: thSIceStDiag.0000036000.txt , unit=    12
(PID.TID 0000.0001)   Seconds in section "ALL                    [THE_MODEL_MAIN]":
(PID.TID 0000.0001)           User time:  60.8947425
(PID.TID 0000.0001)         System time:  1.40778601
(PID.TID 0000.0001)     Wall clock time:  62.459388
(PID.TID 0000.0001)          No. starts: 1
(PID.TID 0000.0001)           No. stops: 1
(PID.TID 0000.0001)   Seconds in section "INITIALISE_FIXED       [THE_MODEL_MAIN]":
(PID.TID 0000.0001)           User time:  0.563915004
(PID.TID 0000.0001)         System time:  0.213967005
(PID.TID 0000.0001)     Wall clock time:  0.847591877
(PID.TID 0000.0001)          No. starts: 1
(PID.TID 0000.0001)           No. stops: 1
(PID.TID 0000.0001)   Seconds in section "THE_MAIN_LOOP          [THE_MODEL_MAIN]":
(PID.TID 0000.0001)           User time:  60.3308275
(PID.TID 0000.0001)         System time:  1.193819
(PID.TID 0000.0001)     Wall clock time:  61.611352
(PID.TID 0000.0001)          No. starts: 1
(PID.TID 0000.0001)           No. stops: 1
(PID.TID 0000.0001)   Seconds in section "INITIALISE_VARIA    [THE_MAIN_LOOP]":
(PID.TID 0000.0001)           User time:  1.57875991
(PID.TID 0000.0001)         System time:  0.457930997
(PID.TID 0000.0001)     Wall clock time:  2.06221199
(PID.TID 0000.0001)          No. starts: 1
(PID.TID 0000.0001)           No. stops: 1
(PID.TID 0000.0001)   Seconds in section "MAIN LOOP           [THE_MAIN_LOOP]":
(PID.TID 0000.0001)           User time:  58.7520676
(PID.TID 0000.0001)         System time:  0.735888004
(PID.TID 0000.0001)     Wall clock time:  59.549015
(PID.TID 0000.0001)          No. starts: 1
(PID.TID 0000.0001)           No. stops: 1
(PID.TID 0000.0001)   Seconds in section "FORWARD_STEP        [THE_MAIN_LOOP]":
(PID.TID 0000.0001)           User time:  58.7520676
(PID.TID 0000.0001)         System time:  0.735888004
(PID.TID 0000.0001)     Wall clock time:  59.5481606
(PID.TID 0000.0001)          No. starts: 20
(PID.TID 0000.0001)           No. stops: 20
(PID.TID 0000.0001)   Seconds in section "DO_STATEVARS_DIAGS  [FORWARD_STEP]":
(PID.TID 0000.0001)           User time:  2.14665794
(PID.TID 0000.0001)         System time:  0.00300002098
(PID.TID 0000.0001)     Wall clock time:  2.15297866
(PID.TID 0000.0001)          No. starts: 60
(PID.TID 0000.0001)           No. stops: 60
(PID.TID 0000.0001)   Seconds in section "LOAD_FIELDS_DRIVER  [FORWARD_STEP]":
(PID.TID 0000.0001)           User time:  0.328948498
(PID.TID 0000.0001)         System time:  0.0299950242
(PID.TID 0000.0001)     Wall clock time:  0.361845732
(PID.TID 0000.0001)          No. starts: 20
(PID.TID 0000.0001)           No. stops: 20
(PID.TID 0000.0001)   Seconds in section "BULKF_FIELDS_LOAD  [LOAD_FLDS_DRIVER]":
(PID.TID 0000.0001)           User time:  0.224970341
(PID.TID 0000.0001)         System time:  0.0189970136
(PID.TID 0000.0001)     Wall clock time:  0.245732307
(PID.TID 0000.0001)          No. starts: 20
(PID.TID 0000.0001)           No. stops: 20
(PID.TID 0000.0001)   Seconds in section "EXTERNAL_FLDS_LOAD [LOAD_FLDS_DRIVER]":
(PID.TID 0000.0001)           User time:  0.102979183
(PID.TID 0000.0001)         System time:  0.00999802351
(PID.TID 0000.0001)     Wall clock time:  0.113629341
(PID.TID 0000.0001)          No. starts: 20
(PID.TID 0000.0001)           No. stops: 20
(PID.TID 0000.0001)   Seconds in section "BULKF_FORCING       [FORWARD_STEP]":
(PID.TID 0000.0001)           User time:  1.21482015
(PID.TID 0000.0001)         System time:  0.00199997425
(PID.TID 0000.0001)     Wall clock time:  1.21711993
(PID.TID 0000.0001)          No. starts: 20
(PID.TID 0000.0001)           No. stops: 20
(PID.TID 0000.0001)   Seconds in section "DO_ATMOSPHERIC_PHYS [FORWARD_STEP]":
(PID.TID 0000.0001)           User time:  0.
(PID.TID 0000.0001)         System time:  0.
(PID.TID 0000.0001)     Wall clock time:  0.00079536438
(PID.TID 0000.0001)          No. starts: 20
(PID.TID 0000.0001)           No. stops: 20
(PID.TID 0000.0001)   Seconds in section "DO_OCEANIC_PHYS     [FORWARD_STEP]":
(PID.TID 0000.0001)           User time:  8.85364699
(PID.TID 0000.0001)         System time:  0.00499796867
(PID.TID 0000.0001)     Wall clock time:  8.8578403
(PID.TID 0000.0001)          No. starts: 20
(PID.TID 0000.0001)           No. stops: 20
(PID.TID 0000.0001)   Seconds in section "THSICE_MAIN     [DO_OCEANIC_PHYS]":
(PID.TID 0000.0001)           User time:  0.508919477
(PID.TID 0000.0001)         System time:  0.
(PID.TID 0000.0001)     Wall clock time:  0.511192083
(PID.TID 0000.0001)          No. starts: 20
(PID.TID 0000.0001)           No. stops: 20
(PID.TID 0000.0001)   Seconds in section "DYNAMICS            [FORWARD_STEP]":
(PID.TID 0000.0001)           User time:  13.8259053
(PID.TID 0000.0001)         System time:  0.00599890947
(PID.TID 0000.0001)     Wall clock time:  13.8402231
(PID.TID 0000.0001)          No. starts: 20
(PID.TID 0000.0001)           No. stops: 20
(PID.TID 0000.0001)   Seconds in section "UPDATE_R_STAR       [FORWARD_STEP]":
(PID.TID 0000.0001)           User time:  0.923855543
(PID.TID 0000.0001)         System time:  0.
(PID.TID 0000.0001)     Wall clock time:  0.922360182
(PID.TID 0000.0001)          No. starts: 20
(PID.TID 0000.0001)           No. stops: 20
(PID.TID 0000.0001)   Seconds in section "UPDATE_CG2D         [FORWARD_STEP]":
(PID.TID 0000.0001)           User time:  0.297964096
(PID.TID 0000.0001)         System time:  0.
(PID.TID 0000.0001)     Wall clock time:  0.296792507
(PID.TID 0000.0001)          No. starts: 20
(PID.TID 0000.0001)           No. stops: 20
(PID.TID 0000.0001)   Seconds in section "SOLVE_FOR_PRESSURE  [FORWARD_STEP]":
(PID.TID 0000.0001)           User time:  7.07292199
(PID.TID 0000.0001)         System time:  0.
(PID.TID 0000.0001)     Wall clock time:  7.07353044
(PID.TID 0000.0001)          No. starts: 20
(PID.TID 0000.0001)           No. stops: 20
(PID.TID 0000.0001)   Seconds in section "MOM_CORRECTION_STEP [FORWARD_STEP]":
(PID.TID 0000.0001)           User time:  1.36380029
(PID.TID 0000.0001)         System time:  0.00300002098
(PID.TID 0000.0001)     Wall clock time:  1.36783504
(PID.TID 0000.0001)          No. starts: 20
(PID.TID 0000.0001)           No. stops: 20
(PID.TID 0000.0001)   Seconds in section "UPDATE_ETAH         [FORWARD_STEP]":
(PID.TID 0000.0001)           User time:  0.0129933357
(PID.TID 0000.0001)         System time:  0.
(PID.TID 0000.0001)     Wall clock time:  0.0110266209
(PID.TID 0000.0001)          No. starts: 20
(PID.TID 0000.0001)           No. stops: 20
(PID.TID 0000.0001)   Seconds in section "CALC_R_STAR         [FORWARD_STEP]":
(PID.TID 0000.0001)           User time:  0.204966307
(PID.TID 0000.0001)         System time:  0.
(PID.TID 0000.0001)     Wall clock time:  0.205701351
(PID.TID 0000.0001)          No. starts: 20
(PID.TID 0000.0001)           No. stops: 20
(PID.TID 0000.0001)   Seconds in section "BLOCKING_EXCHANGES  [FORWARD_STEP]":
(PID.TID 0000.0001)           User time:  1.98469591
(PID.TID 0000.0001)         System time:  0.00300008059
(PID.TID 0000.0001)     Wall clock time:  1.99528217
(PID.TID 0000.0001)          No. starts: 40
(PID.TID 0000.0001)           No. stops: 40
(PID.TID 0000.0001)   Seconds in section "THERMODYNAMICS      [FORWARD_STEP]":
(PID.TID 0000.0001)           User time:  12.0491757
(PID.TID 0000.0001)         System time:  0.0129980445
(PID.TID 0000.0001)     Wall clock time:  12.0753546
(PID.TID 0000.0001)          No. starts: 20
(PID.TID 0000.0001)           No. stops: 20
(PID.TID 0000.0001)   Seconds in section "TRC_CORRECTION_STEP [FORWARD_STEP]":
(PID.TID 0000.0001)           User time:  0.203968525
(PID.TID 0000.0001)         System time:  0.00200003386
(PID.TID 0000.0001)     Wall clock time:  0.2096138
(PID.TID 0000.0001)          No. starts: 20
(PID.TID 0000.0001)           No. stops: 20
(PID.TID 0000.0001)   Seconds in section "DO_STATEVARS_TAVE   [FORWARD_STEP]":
(PID.TID 0000.0001)           User time:  3.03254271
(PID.TID 0000.0001)         System time:  0.0059980154
(PID.TID 0000.0001)     Wall clock time:  3.05651164
(PID.TID 0000.0001)          No. starts: 20
(PID.TID 0000.0001)           No. stops: 20
(PID.TID 0000.0001)   Seconds in section "MONITOR             [FORWARD_STEP]":
(PID.TID 0000.0001)           User time:  4.45731783
(PID.TID 0000.0001)         System time:  0.00399899483
(PID.TID 0000.0001)     Wall clock time:  4.4646275
(PID.TID 0000.0001)          No. starts: 20
(PID.TID 0000.0001)           No. stops: 20
(PID.TID 0000.0001)   Seconds in section "DO_THE_MODEL_IO     [FORWARD_STEP]":
(PID.TID 0000.0001)           User time:  0.494931221
(PID.TID 0000.0001)         System time:  0.381942034
(PID.TID 0000.0001)     Wall clock time:  0.879716873
(PID.TID 0000.0001)          No. starts: 20
(PID.TID 0000.0001)           No. stops: 20
(PID.TID 0000.0001)   Seconds in section "DO_WRITE_PICKUP     [FORWARD_STEP]":
(PID.TID 0000.0001)           User time:  0.266960144
(PID.TID 0000.0001)         System time:  0.271958947
(PID.TID 0000.0001)     Wall clock time:  0.539444208
(PID.TID 0000.0001)          No. starts: 20
(PID.TID 0000.0001)           No. stops: 20
(PID.TID 0000.0001) // ======================================================
(PID.TID 0000.0001) // Tile <-> Tile communication statistics
(PID.TID 0000.0001) // ======================================================
(PID.TID 0000.0001) // o Tile number: 000001
(PID.TID 0000.0001) //         No. X exchanges =              0
(PID.TID 0000.0001) //            Max. X spins =              0
(PID.TID 0000.0001) //            Min. X spins =     1000000000
(PID.TID 0000.0001) //          Total. X spins =              0
(PID.TID 0000.0001) //            Avg. X spins =       0.00E+00
(PID.TID 0000.0001) //         No. Y exchanges =              0
(PID.TID 0000.0001) //            Max. Y spins =              0
(PID.TID 0000.0001) //            Min. Y spins =     1000000000
(PID.TID 0000.0001) //          Total. Y spins =              0
(PID.TID 0000.0001) //            Avg. Y spins =       0.00E+00
(PID.TID 0000.0001) // o Tile number: 000002
(PID.TID 0000.0001) //         No. X exchanges =              0
(PID.TID 0000.0001) //            Max. X spins =              0
(PID.TID 0000.0001) //            Min. X spins =     1000000000
(PID.TID 0000.0001) //          Total. X spins =              0
(PID.TID 0000.0001) //            Avg. X spins =       0.00E+00
(PID.TID 0000.0001) //         No. Y exchanges =              0
(PID.TID 0000.0001) //            Max. Y spins =              0
(PID.TID 0000.0001) //            Min. Y spins =     1000000000
(PID.TID 0000.0001) //          Total. Y spins =              0
(PID.TID 0000.0001) //            Avg. Y spins =       0.00E+00
(PID.TID 0000.0001) // o Tile number: 000003
(PID.TID 0000.0001) //         No. X exchanges =              0
(PID.TID 0000.0001) //            Max. X spins =              0
(PID.TID 0000.0001) //            Min. X spins =     1000000000
(PID.TID 0000.0001) //          Total. X spins =              0
(PID.TID 0000.0001) //            Avg. X spins =       0.00E+00
(PID.TID 0000.0001) //         No. Y exchanges =              0
(PID.TID 0000.0001) //            Max. Y spins =              0
(PID.TID 0000.0001) //            Min. Y spins =     1000000000
(PID.TID 0000.0001) //          Total. Y spins =              0
(PID.TID 0000.0001) //            Avg. Y spins =       0.00E+00
(PID.TID 0000.0001) // o Tile number: 000004
(PID.TID 0000.0001) //         No. X exchanges =              0
(PID.TID 0000.0001) //            Max. X spins =              0
(PID.TID 0000.0001) //            Min. X spins =     1000000000
(PID.TID 0000.0001) //          Total. X spins =              0
(PID.TID 0000.0001) //            Avg. X spins =       0.00E+00
(PID.TID 0000.0001) //         No. Y exchanges =              0
(PID.TID 0000.0001) //            Max. Y spins =              0
(PID.TID 0000.0001) //            Min. Y spins =     1000000000
(PID.TID 0000.0001) //          Total. Y spins =              0
(PID.TID 0000.0001) //            Avg. Y spins =       0.00E+00
(PID.TID 0000.0001) // o Tile number: 000005
(PID.TID 0000.0001) //         No. X exchanges =              0
(PID.TID 0000.0001) //            Max. X spins =              0
(PID.TID 0000.0001) //            Min. X spins =     1000000000
(PID.TID 0000.0001) //          Total. X spins =              0
(PID.TID 0000.0001) //            Avg. X spins =       0.00E+00
(PID.TID 0000.0001) //         No. Y exchanges =              0
(PID.TID 0000.0001) //            Max. Y spins =              0
(PID.TID 0000.0001) //            Min. Y spins =     1000000000
(PID.TID 0000.0001) //          Total. Y spins =              0
(PID.TID 0000.0001) //            Avg. Y spins =       0.00E+00
(PID.TID 0000.0001) // o Tile number: 000006
(PID.TID 0000.0001) //         No. X exchanges =              0
(PID.TID 0000.0001) //            Max. X spins =              0
(PID.TID 0000.0001) //            Min. X spins =     1000000000
(PID.TID 0000.0001) //          Total. X spins =              0
(PID.TID 0000.0001) //            Avg. X spins =       0.00E+00
(PID.TID 0000.0001) //         No. Y exchanges =              0
(PID.TID 0000.0001) //            Max. Y spins =              0
(PID.TID 0000.0001) //            Min. Y spins =     1000000000
(PID.TID 0000.0001) //          Total. Y spins =              0
(PID.TID 0000.0001) //            Avg. Y spins =       0.00E+00
(PID.TID 0000.0001) // o Tile number: 000007
(PID.TID 0000.0001) //         No. X exchanges =              0
(PID.TID 0000.0001) //            Max. X spins =              0
(PID.TID 0000.0001) //            Min. X spins =     1000000000
(PID.TID 0000.0001) //          Total. X spins =              0
(PID.TID 0000.0001) //            Avg. X spins =       0.00E+00
(PID.TID 0000.0001) //         No. Y exchanges =              0
(PID.TID 0000.0001) //            Max. Y spins =              0
(PID.TID 0000.0001) //            Min. Y spins =     1000000000
(PID.TID 0000.0001) //          Total. Y spins =              0
(PID.TID 0000.0001) //            Avg. Y spins =       0.00E+00
(PID.TID 0000.0001) // o Tile number: 000008
(PID.TID 0000.0001) //         No. X exchanges =              0
(PID.TID 0000.0001) //            Max. X spins =              0
(PID.TID 0000.0001) //            Min. X spins =     1000000000
(PID.TID 0000.0001) //          Total. X spins =              0
(PID.TID 0000.0001) //            Avg. X spins =       0.00E+00
(PID.TID 0000.0001) //         No. Y exchanges =              0
(PID.TID 0000.0001) //            Max. Y spins =              0
(PID.TID 0000.0001) //            Min. Y spins =     1000000000
(PID.TID 0000.0001) //          Total. Y spins =              0
(PID.TID 0000.0001) //            Avg. Y spins =       0.00E+00
(PID.TID 0000.0001) // o Tile number: 000009
(PID.TID 0000.0001) //         No. X exchanges =              0
(PID.TID 0000.0001) //            Max. X spins =              0
(PID.TID 0000.0001) //            Min. X spins =     1000000000
(PID.TID 0000.0001) //          Total. X spins =              0
(PID.TID 0000.0001) //            Avg. X spins =       0.00E+00
(PID.TID 0000.0001) //         No. Y exchanges =              0
(PID.TID 0000.0001) //            Max. Y spins =              0
(PID.TID 0000.0001) //            Min. Y spins =     1000000000
(PID.TID 0000.0001) //          Total. Y spins =              0
(PID.TID 0000.0001) //            Avg. Y spins =       0.00E+00
(PID.TID 0000.0001) // o Tile number: 000010
(PID.TID 0000.0001) //         No. X exchanges =              0
(PID.TID 0000.0001) //            Max. X spins =              0
(PID.TID 0000.0001) //            Min. X spins =     1000000000
(PID.TID 0000.0001) //          Total. X spins =              0
(PID.TID 0000.0001) //            Avg. X spins =       0.00E+00
(PID.TID 0000.0001) //         No. Y exchanges =              0
(PID.TID 0000.0001) //            Max. Y spins =              0
(PID.TID 0000.0001) //            Min. Y spins =     1000000000
(PID.TID 0000.0001) //          Total. Y spins =              0
(PID.TID 0000.0001) //            Avg. Y spins =       0.00E+00
(PID.TID 0000.0001) // o Tile number: 000011
(PID.TID 0000.0001) //         No. X exchanges =              0
(PID.TID 0000.0001) //            Max. X spins =              0
(PID.TID 0000.0001) //            Min. X spins =     1000000000
(PID.TID 0000.0001) //          Total. X spins =              0
(PID.TID 0000.0001) //            Avg. X spins =       0.00E+00
(PID.TID 0000.0001) //         No. Y exchanges =              0
(PID.TID 0000.0001) //            Max. Y spins =              0
(PID.TID 0000.0001) //            Min. Y spins =     1000000000
(PID.TID 0000.0001) //          Total. Y spins =              0
(PID.TID 0000.0001) //            Avg. Y spins =       0.00E+00
(PID.TID 0000.0001) // o Tile number: 000012
(PID.TID 0000.0001) //         No. X exchanges =              0
(PID.TID 0000.0001) //            Max. X spins =              0
(PID.TID 0000.0001) //            Min. X spins =     1000000000
(PID.TID 0000.0001) //          Total. X spins =              0
(PID.TID 0000.0001) //            Avg. X spins =       0.00E+00
(PID.TID 0000.0001) //         No. Y exchanges =              0
(PID.TID 0000.0001) //            Max. Y spins =              0
(PID.TID 0000.0001) //            Min. Y spins =     1000000000
(PID.TID 0000.0001) //          Total. Y spins =              0
(PID.TID 0000.0001) //            Avg. Y spins =       0.00E+00
(PID.TID 0000.0001) // o Thread number: 000001
(PID.TID 0000.0001) //            No. barriers =          56560
(PID.TID 0000.0001) //      Max. barrier spins =              1
(PID.TID 0000.0001) //      Min. barrier spins =              1
(PID.TID 0000.0001) //     Total barrier spins =          56560
(PID.TID 0000.0001) //      Avg. barrier spins =       1.00E+00
