(PID.TID 0000.0001) 
(PID.TID 0000.0001) // ======================================================
(PID.TID 0000.0001) //                      MITgcm UV
(PID.TID 0000.0001) //                      =========
(PID.TID 0000.0001) // ======================================================
(PID.TID 0000.0001) // execution environment starting up...
(PID.TID 0000.0001) 
(PID.TID 0000.0001) // MITgcmUV version:  checkpoint63f
(PID.TID 0000.0001) // Build user:        jmc
(PID.TID 0000.0001) // Build host:        baudelaire
(PID.TID 0000.0001) // Build date:        Thu Dec  1 10:38:14 EST 2011
(PID.TID 0000.0001) 
(PID.TID 0000.0001) // =======================================================
(PID.TID 0000.0001) // Execution Environment parameter file "eedata"
(PID.TID 0000.0001) // =======================================================
(PID.TID 0000.0001) ># Example "eedata" file
(PID.TID 0000.0001) ># Lines beginning "#" are comments
(PID.TID 0000.0001) ># nTx - No. threads per process in X
(PID.TID 0000.0001) ># nTy - No. threads per process in Y
(PID.TID 0000.0001) > &EEPARMS
(PID.TID 0000.0001) > useCubedSphereExchange=.TRUE.,
(PID.TID 0000.0001) > nTx=1,
(PID.TID 0000.0001) > nTy=1,
(PID.TID 0000.0001) > /
(PID.TID 0000.0001) ># Note: Some systems use & as the
(PID.TID 0000.0001) ># namelist terminator. Other systems
(PID.TID 0000.0001) ># use a / character (as shown here).
(PID.TID 0000.0001) 
(PID.TID 0000.0001) // =======================================================
(PID.TID 0000.0001) // Computational Grid Specification ( see files "SIZE.h" )
(PID.TID 0000.0001) //                                  ( and "eedata"       )
(PID.TID 0000.0001) // =======================================================
(PID.TID 0000.0001)      nPx =    1 ; /* No. processes in X */
(PID.TID 0000.0001)      nPy =    1 ; /* No. processes in Y */
(PID.TID 0000.0001)      nSx =   12 ; /* No. tiles in X per process */
(PID.TID 0000.0001)      nSy =    1 ; /* No. tiles in Y per process */
(PID.TID 0000.0001)      sNx =   32 ; /* Tile size in X */
(PID.TID 0000.0001)      sNy =   16 ; /* Tile size in Y */
(PID.TID 0000.0001)      OLx =    4 ; /* Tile overlap distance in X */
(PID.TID 0000.0001)      OLy =    4 ; /* Tile overlap distance in Y */
(PID.TID 0000.0001)      nTx =    1 ; /* No. threads in X per process */
(PID.TID 0000.0001)      nTy =    1 ; /* No. threads in Y per process */
(PID.TID 0000.0001)       Nr =   15 ; /* No. levels in the vertical   */
(PID.TID 0000.0001)       Nx =  384 ; /* Total domain size in X ( = nPx*nSx*sNx ) */
(PID.TID 0000.0001)       Ny =   16 ; /* Total domain size in Y ( = nPy*nSy*sNy ) */
(PID.TID 0000.0001)   nTiles =   12 ; /* Total no. tiles per process ( = nSx*nSy ) */
(PID.TID 0000.0001)   nProcs =    1 ; /* Total no. processes ( = nPx*nPy ) */
(PID.TID 0000.0001) nThreads =    1 ; /* Total no. threads per process ( = nTx*nTy ) */
(PID.TID 0000.0001) usingMPI =    F ; /* Flag used to control whether MPI is in use */
(PID.TID 0000.0001)                   /*  note: To execute a program with MPI calls */
(PID.TID 0000.0001)                   /*  it must be launched appropriately e.g     */
(PID.TID 0000.0001)                   /*  "mpirun -np 64 ......"                    */
(PID.TID 0000.0001) useCoupler=    F ;/* Flag used to control communications with   */
(PID.TID 0000.0001)                   /*  other model components, through a coupler */
(PID.TID 0000.0001) debugMode =    F ; /* print debug msg. (sequence of S/R calls)  */
(PID.TID 0000.0001) printMapIncludesZeros=    F ; /* print zeros in Std.Output maps */
(PID.TID 0000.0001) maxLengthPrt1D=   65 /* maxLength of 1D array printed to StdOut */
(PID.TID 0000.0001) 
(PID.TID 0000.0001) // ======================================================
(PID.TID 0000.0001) // Mapping of tiles to threads
(PID.TID 0000.0001) // ======================================================
(PID.TID 0000.0001) // -o- Thread   1, tiles (   1:  12,   1:   1)
(PID.TID 0000.0001) 
(PID.TID 0000.0001) W2_READPARMS: file data.exch2 not found
(PID.TID 0000.0001) => use W2_EXCH2 default: regular 6-facets Cube
(PID.TID 0000.0001) W2_useE2ioLayOut=    T ;/* T: use Exch2 glob IO map; F: use model default */
(PID.TID 0000.0001) W2_mapIO        =  -1 ; /* select option for Exch2 global-IO map */
(PID.TID 0000.0001) W2_printMsg     =  -1 ; /* select option for printing information */
(PID.TID 0000.0001) ===== Start setting W2 TOPOLOGY:
(PID.TID 0000.0001)  write to log-file: w2_tile_topology.0000.log
(PID.TID 0000.0001) =====       setting W2 TOPOLOGY: Done
(PID.TID 0000.0001) 
(PID.TID 0000.0001)  INI_PARMS: opening model parameter file "data"
(PID.TID 0000.0001)  OPEN_COPY_DATA_FILE: opening file data
(PID.TID 0000.0001) // =======================================================
(PID.TID 0000.0001) // Parameter file "data"
(PID.TID 0000.0001) // =======================================================
(PID.TID 0000.0001) ># ====================
(PID.TID 0000.0001) ># | Model parameters |
(PID.TID 0000.0001) ># ====================
(PID.TID 0000.0001) >#
(PID.TID 0000.0001) ># Continuous equation parameters
(PID.TID 0000.0001) > &PARM01
(PID.TID 0000.0001) > tRef=15*20.,
(PID.TID 0000.0001) > sRef=15*35.,
(PID.TID 0000.0001) > viscAh =3.E5,
(PID.TID 0000.0001) >#- biharmonic Viscosity: 3.e15 is close to the stability limit with deltaTmom=20mn
(PID.TID 0000.0001) >#viscA4 =3.E15,
(PID.TID 0000.0001) > viscAr =1.E-3,
(PID.TID 0000.0001) > diffKhT=0.,
(PID.TID 0000.0001) > diffK4T=0.,
(PID.TID 0000.0001) > diffKrT=3.E-5,
(PID.TID 0000.0001) > diffKhS=0.,
(PID.TID 0000.0001) > diffK4S=0.,
(PID.TID 0000.0001) > diffKrS=3.E-5,
(PID.TID 0000.0001) > ivdc_kappa=10.,
(PID.TID 0000.0001) > implicitDiffusion=.TRUE.,
(PID.TID 0000.0001) > rotationPeriod=86400.,
(PID.TID 0000.0001) > gravity=9.81,
(PID.TID 0000.0001) > rhonil=1035.,
(PID.TID 0000.0001) > rhoConstFresh=1000.,
(PID.TID 0000.0001) > eosType='JMD95Z',
(PID.TID 0000.0001) > staggerTimeStep=.TRUE.,
(PID.TID 0000.0001) > vectorInvariantMomentum=.TRUE.,
(PID.TID 0000.0001) > implicitFreeSurface=.TRUE.,
(PID.TID 0000.0001) > tempAdvScheme=30,
(PID.TID 0000.0001) > saltAdvScheme=30,
(PID.TID 0000.0001) > exactConserv=.TRUE.,
(PID.TID 0000.0001) > select_rStar=2,
(PID.TID 0000.0001) > nonlinFreeSurf=2,
(PID.TID 0000.0001) > hFacInf=0.2,
(PID.TID 0000.0001) > hFacSup=2.0,
(PID.TID 0000.0001) > useRealFreshWaterFlux=.TRUE.,
(PID.TID 0000.0001) > allowFreezing=.TRUE.,
(PID.TID 0000.0001) > hFacMin=.1,
(PID.TID 0000.0001) > hFacMinDr=20.,
(PID.TID 0000.0001) > readBinaryPrec=64,
(PID.TID 0000.0001) > /
(PID.TID 0000.0001) >
(PID.TID 0000.0001) ># Elliptic solver parameters
(PID.TID 0000.0001) > &PARM02
(PID.TID 0000.0001) > cg2dMaxIters=200,
(PID.TID 0000.0001) >#cg2dTargetResidual=1.E-9,
(PID.TID 0000.0001) > cg2dTargetResWunit=1.E-14,
(PID.TID 0000.0001) > /
(PID.TID 0000.0001) >
(PID.TID 0000.0001) ># Time stepping parameters
(PID.TID 0000.0001) > &PARM03
(PID.TID 0000.0001) > nIter0=72000,
(PID.TID 0000.0001) ># nIter0=0,
(PID.TID 0000.0001) ># nTimeSteps=365,
(PID.TID 0000.0001) > nTimeSteps=20,
(PID.TID 0000.0001) > deltaTmom   =1200.,
(PID.TID 0000.0001) > deltaTtracer=86400.,
(PID.TID 0000.0001) > deltaTfreesurf=86400.,
(PID.TID 0000.0001) > deltaTClock =86400.,
(PID.TID 0000.0001) > abEps = 0.1,
(PID.TID 0000.0001) >#forcing_In_AB=.FALSE.,
(PID.TID 0000.0001) > tracForcingOutAB=1,
(PID.TID 0000.0001) > pChkptFreq  =1728000.,
(PID.TID 0000.0001) ># chkptFreq   =864000.,
(PID.TID 0000.0001) ># taveFreq    =1244160000.,
(PID.TID 0000.0001) ># dumpFreq    =6307200.,
(PID.TID 0000.0001) ># adjDumpFreq  =6307200.,
(PID.TID 0000.0001) > dumpFreq    =86400.,
(PID.TID 0000.0001) ># adjDumpFreq  =86400.,
(PID.TID 0000.0001) ># monitorFreq =31104000.,
(PID.TID 0000.0001) > periodicExternalForcing=.TRUE.,
(PID.TID 0000.0001) > externForcingPeriod=2592000.,
(PID.TID 0000.0001) > externForcingCycle=31104000.,
(PID.TID 0000.0001) ># 2 months restoring timescale for temperature
(PID.TID 0000.0001) > tauThetaClimRelax = 5184000.,
(PID.TID 0000.0001) ># 2yrs restoring timescale for salinity
(PID.TID 0000.0001) > tauSaltClimRelax = 62208000.,
(PID.TID 0000.0001) > monitorFreq =1.,
(PID.TID 0000.0001) > adjMonitorFreq =1.,
(PID.TID 0000.0001) > adjDumpFreq    =86400.,
(PID.TID 0000.0001) > pickupStrictlyMatch=.FALSE.,
(PID.TID 0000.0001) > /
(PID.TID 0000.0001) >
(PID.TID 0000.0001) ># Gridding parameters
(PID.TID 0000.0001) > &PARM04
(PID.TID 0000.0001) > usingCurvilinearGrid=.TRUE.,
(PID.TID 0000.0001) > horizGridFile='grid_cs32',
(PID.TID 0000.0001) > delR= 50., 70., 100., 140., 190.,
(PID.TID 0000.0001) >       240., 290., 340., 390., 440.,
(PID.TID 0000.0001) >       490., 540., 590., 640., 690.,
(PID.TID 0000.0001) > /
(PID.TID 0000.0001) >
(PID.TID 0000.0001) ># Input datasets
(PID.TID 0000.0001) > &PARM05
(PID.TID 0000.0001) > bathyFile      ='bathy_Hmin50.bin',
(PID.TID 0000.0001) > hydrogThetaFile='lev_T_cs_15k.bin',
(PID.TID 0000.0001) > hydrogSaltFile ='lev_S_cs_15k.bin',
(PID.TID 0000.0001) > zonalWindFile  ='trenberth_taux.bin',
(PID.TID 0000.0001) > meridWindFile  ='trenberth_tauy.bin',
(PID.TID 0000.0001) > thetaClimFile  ='lev_surfT_cs_12m.bin',
(PID.TID 0000.0001) > saltClimFile   ='lev_surfS_cs_12m.bin',
(PID.TID 0000.0001) > surfQFile      ='shiQnet_cs32.bin',
(PID.TID 0000.0001) > EmPmRFile      ='shiEmPR_cs32.bin',
(PID.TID 0000.0001) > /
(PID.TID 0000.0001) 
(PID.TID 0000.0001)  INI_PARMS ; starts to read PARM01
(PID.TID 0000.0001)  INI_PARMS ; read PARM01 : OK
(PID.TID 0000.0001)  INI_PARMS ; starts to read PARM02
(PID.TID 0000.0001)  INI_PARMS ; read PARM02 : OK
(PID.TID 0000.0001)  INI_PARMS ; starts to read PARM03
(PID.TID 0000.0001)  INI_PARMS ; read PARM03 : OK
(PID.TID 0000.0001)  INI_PARMS ; starts to read PARM04
(PID.TID 0000.0001)  INI_PARMS ; read PARM04 : OK
(PID.TID 0000.0001)  INI_PARMS ; starts to read PARM05
(PID.TID 0000.0001)  INI_PARMS ; read PARM05 : OK
(PID.TID 0000.0001)  INI_PARMS: finished reading file "data"
(PID.TID 0000.0001)  PACKAGES_BOOT: opening data.pkg
(PID.TID 0000.0001)  OPEN_COPY_DATA_FILE: opening file data.pkg
(PID.TID 0000.0001) // =======================================================
(PID.TID 0000.0001) // Parameter file "data.pkg"
(PID.TID 0000.0001) // =======================================================
(PID.TID 0000.0001) ># Packages
(PID.TID 0000.0001) > &PACKAGES
(PID.TID 0000.0001) > useGMRedi = .TRUE.,
(PID.TID 0000.0001) > useEXF    = .FALSE.,
(PID.TID 0000.0001) > useTHSICE = .FALSE.,
(PID.TID 0000.0001) >#useDiagnostics=.TRUE.,
(PID.TID 0000.0001) >#useMNC=.TRUE.,
(PID.TID 0000.0001) > useGrdchk=.TRUE.,
(PID.TID 0000.0001) > /
(PID.TID 0000.0001) 
(PID.TID 0000.0001)  PACKAGES_BOOT: finished reading data.pkg
(PID.TID 0000.0001)  GM_READPARMS: opening data.gmredi
(PID.TID 0000.0001)  OPEN_COPY_DATA_FILE: opening file data.gmredi
(PID.TID 0000.0001) // =======================================================
(PID.TID 0000.0001) // Parameter file "data.gmredi"
(PID.TID 0000.0001) // =======================================================
(PID.TID 0000.0001) ># GM+Redi package parameters:
(PID.TID 0000.0001) >#     GM_Small_Number  :: epsilon used in computing the slope
(PID.TID 0000.0001) >#     GM_slopeSqCutoff :: slope^2 cut-off value
(PID.TID 0000.0001) >
(PID.TID 0000.0001) >#-from MOM :
(PID.TID 0000.0001) ># GM_background_K: 	G & Mc.W  diffusion coefficient
(PID.TID 0000.0001) ># GM_maxSlope    :	max slope of isopycnals
(PID.TID 0000.0001) ># GM_Scrit       :	transition for scaling diffusion coefficient
(PID.TID 0000.0001) ># GM_Sd          :	half width scaling for diffusion coefficient
(PID.TID 0000.0001) ># GM_taper_scheme:	slope clipping or one of the tapering schemes
(PID.TID 0000.0001) ># GM_Kmin_horiz  :	horizontal diffusion minimum value
(PID.TID 0000.0001) >
(PID.TID 0000.0001) >#-Option parameters (needs to "define" options in GMREDI_OPTIONS.h")
(PID.TID 0000.0001) ># GM_isopycK     :	isopycnal diffusion coefficient (default=GM_background_K)
(PID.TID 0000.0001) ># GM_AdvForm     :	turn on GM Advective form       (default=Skew flux form)
(PID.TID 0000.0001) >
(PID.TID 0000.0001) > &GM_PARM01
(PID.TID 0000.0001) >  GM_Small_Number  = 1.D-20,
(PID.TID 0000.0001) >  GM_slopeSqCutoff = 1.D+08,
(PID.TID 0000.0001) >  GM_AdvForm         = .FALSE.,
(PID.TID 0000.0001) >  GM_background_K    = 1.D+3,
(PID.TID 0000.0001) >  GM_taper_scheme    = 'dm95',
(PID.TID 0000.0001) >  GM_maxSlope        = 1.D-2,
(PID.TID 0000.0001) >  GM_Kmin_horiz      = 50.,
(PID.TID 0000.0001) >  GM_Scrit           = 4.D-3,
(PID.TID 0000.0001) >  GM_Sd              = 1.D-3,
(PID.TID 0000.0001) >#  GM_Visbeck_alpha   = 1.5D-2,
(PID.TID 0000.0001) >  GM_Visbeck_alpha   = 0.,
(PID.TID 0000.0001) >  GM_Visbeck_length  = 2.D+5,
(PID.TID 0000.0001) >  GM_Visbeck_depth   = 1.D+3,
(PID.TID 0000.0001) >  GM_Visbeck_maxval_K= 2.5D+3,
(PID.TID 0000.0001) > /
(PID.TID 0000.0001) >
(PID.TID 0000.0001) >
(PID.TID 0000.0001) 
(PID.TID 0000.0001)  GM_READPARMS: finished reading data.gmredi
(PID.TID 0000.0001) OPTIM_READPARMS: opening data.optim
(PID.TID 0000.0001)  OPEN_COPY_DATA_FILE: opening file data.optim
(PID.TID 0000.0001) // =======================================================
(PID.TID 0000.0001) // Parameter file "data.optim"
(PID.TID 0000.0001) // =======================================================
(PID.TID 0000.0001) > &OPTIM
(PID.TID 0000.0001) > optimcycle=0,
(PID.TID 0000.0001) > /
(PID.TID 0000.0001) 
(PID.TID 0000.0001) OPTIM_READPARMS: finished reading data.optim
(PID.TID 0000.0001) CTRL_READPARMS: opening data.ctrl
(PID.TID 0000.0001)  OPEN_COPY_DATA_FILE: opening file data.ctrl
(PID.TID 0000.0001) // =======================================================
(PID.TID 0000.0001) // Parameter file "data.ctrl"
(PID.TID 0000.0001) // =======================================================
(PID.TID 0000.0001) >#
(PID.TID 0000.0001) >#
(PID.TID 0000.0001) ># *********************
(PID.TID 0000.0001) ># ECCO controlvariables
(PID.TID 0000.0001) ># *********************
(PID.TID 0000.0001) > &CTRL_NML
(PID.TID 0000.0001) > xx_theta_file      ='xx_theta',
(PID.TID 0000.0001) > xx_salt_file       ='xx_salt',
(PID.TID 0000.0001) >#
(PID.TID 0000.0001) > xx_hfluxstartdate1 = 19790101,
(PID.TID 0000.0001) > xx_hfluxstartdate2 = 000000,
(PID.TID 0000.0001) > xx_hfluxperiod     = 864000.0,
(PID.TID 0000.0001) > xx_hflux_file      = 'xx_hfl',
(PID.TID 0000.0001) >#
(PID.TID 0000.0001) > xx_sfluxstartdate1 = 19790101,
(PID.TID 0000.0001) > xx_sfluxstartdate2 = 000000,
(PID.TID 0000.0001) > xx_sfluxperiod     = 864000.0,
(PID.TID 0000.0001) > xx_sflux_file      = 'xx_sfl',
(PID.TID 0000.0001) >#
(PID.TID 0000.0001) > xx_tauustartdate1 = 19790101,
(PID.TID 0000.0001) > xx_tauustartdate2 = 000000,
(PID.TID 0000.0001) > xx_tauuperiod     = 864000.0,
(PID.TID 0000.0001) > xx_tauu_file      = 'xx_tauu',
(PID.TID 0000.0001) >#
(PID.TID 0000.0001) > xx_tauvstartdate1 = 19790101,
(PID.TID 0000.0001) > xx_tauvstartdate2 = 000000,
(PID.TID 0000.0001) > xx_tauvperiod     = 864000.0,
(PID.TID 0000.0001) > xx_tauv_file      = 'xx_tauv',
(PID.TID 0000.0001) >#
(PID.TID 0000.0001) > xx_atempstartdate1 = 19790101,
(PID.TID 0000.0001) > xx_atempstartdate2 = 000000,
(PID.TID 0000.0001) > xx_atempperiod     = 864000.0,
(PID.TID 0000.0001) > xx_atemp_file      = 'xx_atemp',
(PID.TID 0000.0001) >#
(PID.TID 0000.0001) > xx_aqhstartdate1 = 19790101,
(PID.TID 0000.0001) > xx_aqhstartdate2 = 000000,
(PID.TID 0000.0001) > xx_aqhperiod     = 864000.0,
(PID.TID 0000.0001) > xx_aqh_file      = 'xx_aqh',
(PID.TID 0000.0001) >#
(PID.TID 0000.0001) > xx_precipstartdate1 = 19790101,
(PID.TID 0000.0001) > xx_precipstartdate2 = 000000,
(PID.TID 0000.0001) > xx_precipperiod     = 864000.0,
(PID.TID 0000.0001) > xx_precip_file      = 'xx_precip',
(PID.TID 0000.0001) >#
(PID.TID 0000.0001) > xx_swdownstartdate1 = 19790101,
(PID.TID 0000.0001) > xx_swdownstartdate2 = 000000,
(PID.TID 0000.0001) > xx_swdownperiod     = 864000.0,
(PID.TID 0000.0001) > xx_swdown_file      = 'xx_swdown',
(PID.TID 0000.0001) >#
(PID.TID 0000.0001) > xx_uwindstartdate1 = 19790101,
(PID.TID 0000.0001) > xx_uwindstartdate2 = 000000,
(PID.TID 0000.0001) > xx_uwindperiod     = 864000.0,
(PID.TID 0000.0001) > xx_uwind_file      = 'xx_uwind',
(PID.TID 0000.0001) >#
(PID.TID 0000.0001) > xx_vwindstartdate1 = 19790101,
(PID.TID 0000.0001) > xx_vwindstartdate2 = 000000,
(PID.TID 0000.0001) > xx_vwindperiod     = 864000.0,
(PID.TID 0000.0001) > xx_vwind_file      = 'xx_vwind',
(PID.TID 0000.0001) >#
(PID.TID 0000.0001) > xx_sststartdate1 = 19790101,
(PID.TID 0000.0001) > xx_sststartdate2 = 000000,
(PID.TID 0000.0001) > xx_sstperiod     = 864000.0,
(PID.TID 0000.0001) > xx_sst_file      = 'xx_sst',
(PID.TID 0000.0001) >#
(PID.TID 0000.0001) > xx_sssstartdate1 = 19790101,
(PID.TID 0000.0001) > xx_sssstartdate2 = 000000,
(PID.TID 0000.0001) > xx_sssperiod     = 864000.0,
(PID.TID 0000.0001) > xx_sss_file      = 'xx_sss',
(PID.TID 0000.0001) > /
(PID.TID 0000.0001) >#
(PID.TID 0000.0001) ># *********************
(PID.TID 0000.0001) ># names for ctrl_pack/unpack
(PID.TID 0000.0001) ># *********************
(PID.TID 0000.0001) > &CTRL_PACKNAMES
(PID.TID 0000.0001) > /
(PID.TID 0000.0001) 
(PID.TID 0000.0001) CTRL_READPARMS: finished reading data.ctrl
(PID.TID 0000.0001) COST_READPARMS: opening data.cost
(PID.TID 0000.0001)  OPEN_COPY_DATA_FILE: opening file data.cost
(PID.TID 0000.0001) // =======================================================
(PID.TID 0000.0001) // Parameter file "data.cost"
(PID.TID 0000.0001) // =======================================================
(PID.TID 0000.0001) >#
(PID.TID 0000.0001) >#
(PID.TID 0000.0001) ># ******************
(PID.TID 0000.0001) ># cost function
(PID.TID 0000.0001) ># ******************
(PID.TID 0000.0001) > &COST_NML
(PID.TID 0000.0001) >#revert to default 1 month
(PID.TID 0000.0001) ># lastinterval=7776000.,
(PID.TID 0000.0001) > mult_test=1.,
(PID.TID 0000.0001) > /
(PID.TID 0000.0001) 
(PID.TID 0000.0001) COST_READPARMS: finished reading data.cost
(PID.TID 0000.0001) GRDCHK_READPARMS: opening data.grdchk
(PID.TID 0000.0001)  OPEN_COPY_DATA_FILE: opening file data.grdchk
(PID.TID 0000.0001) // =======================================================
(PID.TID 0000.0001) // Parameter file "data.grdchk"
(PID.TID 0000.0001) // =======================================================
(PID.TID 0000.0001) ># *******************
(PID.TID 0000.0001) ># ECCO gradient check
(PID.TID 0000.0001) ># *******************
(PID.TID 0000.0001) > &GRDCHK_NML
(PID.TID 0000.0001) > grdchk_eps       = 1.d-2,
(PID.TID 0000.0001) >#  iglopos         = 6,
(PID.TID 0000.0001) >#  jglopos         = 17,
(PID.TID 0000.0001) >#  kglopos         = 1,
(PID.TID 0000.0001) > nbeg             = 1,
(PID.TID 0000.0001) > nstep            = 1,
(PID.TID 0000.0001) > nend             = 4,
(PID.TID 0000.0001) > grdchkvarindex   = 1,
(PID.TID 0000.0001) > /
(PID.TID 0000.0001) 
(PID.TID 0000.0001) GRDCHK_READPARMS: finished reading data.grdchk
(PID.TID 0000.0001) 
(PID.TID 0000.0001) // =======================================================
(PID.TID 0000.0001) // Gradient check configuration  >>> START <<<
(PID.TID 0000.0001) // =======================================================
(PID.TID 0000.0001) 
(PID.TID 0000.0001)   eps:                              0.100E-01
(PID.TID 0000.0001)   First location:                           1
(PID.TID 0000.0001)   Last location:                            4
(PID.TID 0000.0001)   Increment:                                1
(PID.TID 0000.0001)   grdchkWhichProc:                          0
(PID.TID 0000.0001)   iLocTile =       1  ,    jLocTile =       1
(PID.TID 0000.0001) 
(PID.TID 0000.0001) // =======================================================
(PID.TID 0000.0001) // Gradient check configuration  >>> END <<<
(PID.TID 0000.0001) // =======================================================
(PID.TID 0000.0001) 
(PID.TID 0000.0001) SET_PARMS: done
(PID.TID 0000.0001) Enter INI_VERTICAL_GRID: setInterFDr=    T ; setCenterDr=    F
(PID.TID 0000.0001) tile:   1 ; Read from file grid_cs32.face001.bin
(PID.TID 0000.0001)   => xC yC dxF dyF rA xG yG dxV dyU rAz dxC dyC rAw rAs dxG dyG AngleCS AngleSN
(PID.TID 0000.0001) tile:   2 ; Read from file grid_cs32.face001.bin
(PID.TID 0000.0001)   => xC yC dxF dyF rA xG yG dxV dyU rAz dxC dyC rAw rAs dxG dyG AngleCS AngleSN
(PID.TID 0000.0001) tile:   3 ; Read from file grid_cs32.face002.bin
(PID.TID 0000.0001)   => xC yC dxF dyF rA xG yG dxV dyU rAz dxC dyC rAw rAs dxG dyG AngleCS AngleSN
(PID.TID 0000.0001) tile:   4 ; Read from file grid_cs32.face002.bin
(PID.TID 0000.0001)   => xC yC dxF dyF rA xG yG dxV dyU rAz dxC dyC rAw rAs dxG dyG AngleCS AngleSN
(PID.TID 0000.0001) tile:   5 ; Read from file grid_cs32.face003.bin
(PID.TID 0000.0001)   => xC yC dxF dyF rA xG yG dxV dyU rAz dxC dyC rAw rAs dxG dyG AngleCS AngleSN
(PID.TID 0000.0001) tile:   6 ; Read from file grid_cs32.face003.bin
(PID.TID 0000.0001)   => xC yC dxF dyF rA xG yG dxV dyU rAz dxC dyC rAw rAs dxG dyG AngleCS AngleSN
(PID.TID 0000.0001) tile:   7 ; Read from file grid_cs32.face004.bin
(PID.TID 0000.0001)   => xC yC dxF dyF rA xG yG dxV dyU rAz dxC dyC rAw rAs dxG dyG AngleCS AngleSN
(PID.TID 0000.0001) tile:   8 ; Read from file grid_cs32.face004.bin
(PID.TID 0000.0001)   => xC yC dxF dyF rA xG yG dxV dyU rAz dxC dyC rAw rAs dxG dyG AngleCS AngleSN
(PID.TID 0000.0001) tile:   9 ; Read from file grid_cs32.face005.bin
(PID.TID 0000.0001)   => xC yC dxF dyF rA xG yG dxV dyU rAz dxC dyC rAw rAs dxG dyG AngleCS AngleSN
(PID.TID 0000.0001) tile:  10 ; Read from file grid_cs32.face005.bin
(PID.TID 0000.0001)   => xC yC dxF dyF rA xG yG dxV dyU rAz dxC dyC rAw rAs dxG dyG AngleCS AngleSN
(PID.TID 0000.0001) tile:  11 ; Read from file grid_cs32.face006.bin
(PID.TID 0000.0001)   => xC yC dxF dyF rA xG yG dxV dyU rAz dxC dyC rAw rAs dxG dyG AngleCS AngleSN
(PID.TID 0000.0001) tile:  12 ; Read from file grid_cs32.face006.bin
(PID.TID 0000.0001)   => xC yC dxF dyF rA xG yG dxV dyU rAz dxC dyC rAw rAs dxG dyG AngleCS AngleSN
(PID.TID 0000.0001) %MON XC_max                       =   1.7854351589505E+02
(PID.TID 0000.0001) %MON XC_min                       =  -1.7854351589505E+02
(PID.TID 0000.0001) %MON XC_mean                      =  -1.4199289892029E-14
(PID.TID 0000.0001) %MON XC_sd                        =   1.0355545336287E+02
(PID.TID 0000.0001) %MON XG_max                       =   1.8000000000000E+02
(PID.TID 0000.0001) %MON XG_min                       =  -1.7708797161002E+02
(PID.TID 0000.0001) %MON XG_mean                      =   1.8603515625000E+00
(PID.TID 0000.0001) %MON XG_sd                        =   1.0357130300504E+02
(PID.TID 0000.0001) %MON DXC_max                      =   3.2375185836900E+05
(PID.TID 0000.0001) %MON DXC_min                      =   1.1142031410131E+05
(PID.TID 0000.0001) %MON DXC_mean                     =   2.8605689051214E+05
(PID.TID 0000.0001) %MON DXC_sd                       =   3.4042087138252E+04
(PID.TID 0000.0001) %MON DXF_max                      =   3.2369947500827E+05
(PID.TID 0000.0001) %MON DXF_min                      =   1.2020820513318E+05
(PID.TID 0000.0001) %MON DXF_mean                     =   2.8605437324820E+05
(PID.TID 0000.0001) %MON DXF_sd                       =   3.4050524252539E+04
(PID.TID 0000.0001) %MON DXG_max                      =   3.2375195872773E+05
(PID.TID 0000.0001) %MON DXG_min                      =   1.0098378008791E+05
(PID.TID 0000.0001) %MON DXG_mean                     =   2.8603818508931E+05
(PID.TID 0000.0001) %MON DXG_sd                       =   3.4140406908005E+04
(PID.TID 0000.0001) %MON DXV_max                      =   3.2380418162750E+05
(PID.TID 0000.0001) %MON DXV_min                      =   8.0152299824136E+04
(PID.TID 0000.0001) %MON DXV_mean                     =   2.8603970633619E+05
(PID.TID 0000.0001) %MON DXV_sd                       =   3.4145142117723E+04
(PID.TID 0000.0001) %MON YC_max                       =   8.7940663871962E+01
(PID.TID 0000.0001) %MON YC_min                       =  -8.7940663871962E+01
(PID.TID 0000.0001) %MON YC_mean                      =  -2.3684757858670E-15
(PID.TID 0000.0001) %MON YC_sd                        =   3.8676242969072E+01
(PID.TID 0000.0001) %MON YG_max                       =   9.0000000000000E+01
(PID.TID 0000.0001) %MON YG_min                       =  -9.0000000000000E+01
(PID.TID 0000.0001) %MON YG_mean                      =  -4.1448326252673E-15
(PID.TID 0000.0001) %MON YG_sd                        =   3.8676895860710E+01
(PID.TID 0000.0001) %MON DYC_max                      =   3.2375185836900E+05
(PID.TID 0000.0001) %MON DYC_min                      =   1.1142031410131E+05
(PID.TID 0000.0001) %MON DYC_mean                     =   2.8605689051214E+05
(PID.TID 0000.0001) %MON DYC_sd                       =   3.4042087138252E+04
(PID.TID 0000.0001) %MON DYF_max                      =   3.2369947500827E+05
(PID.TID 0000.0001) %MON DYF_min                      =   1.2020820513318E+05
(PID.TID 0000.0001) %MON DYF_mean                     =   2.8605437324820E+05
(PID.TID 0000.0001) %MON DYF_sd                       =   3.4050524252539E+04
(PID.TID 0000.0001) %MON DYG_max                      =   3.2375195872773E+05
(PID.TID 0000.0001) %MON DYG_min                      =   1.0098378008791E+05
(PID.TID 0000.0001) %MON DYG_mean                     =   2.8603818508931E+05
(PID.TID 0000.0001) %MON DYG_sd                       =   3.4140406908005E+04
(PID.TID 0000.0001) %MON DYU_max                      =   3.2380418162750E+05
(PID.TID 0000.0001) %MON DYU_min                      =   8.0152299824136E+04
(PID.TID 0000.0001) %MON DYU_mean                     =   2.8603970633619E+05
(PID.TID 0000.0001) %MON DYU_sd                       =   3.4145142117723E+04
(PID.TID 0000.0001) %MON RA_max                       =   1.0479260248419E+11
(PID.TID 0000.0001) %MON RA_min                       =   1.4019007022556E+10
(PID.TID 0000.0001) %MON RA_mean                      =   8.2992246709265E+10
(PID.TID 0000.0001) %MON RA_sd                        =   1.7509089299457E+10
(PID.TID 0000.0001) %MON RAW_max                      =   1.0480965274559E+11
(PID.TID 0000.0001) %MON RAW_min                      =   1.2166903467143E+10
(PID.TID 0000.0001) %MON RAW_mean                     =   8.2992246709235E+10
(PID.TID 0000.0001) %MON RAW_sd                       =   1.7481917919656E+10
(PID.TID 0000.0001) %MON RAS_max                      =   1.0480965274559E+11
(PID.TID 0000.0001) %MON RAS_min                      =   1.2166903467143E+10
(PID.TID 0000.0001) %MON RAS_mean                     =   8.2992246709235E+10
(PID.TID 0000.0001) %MON RAS_sd                       =   1.7481917919656E+10
(PID.TID 0000.0001) %MON RAZ_max                      =   1.0484349334619E+11
(PID.TID 0000.0001) %MON RAZ_min                      =   8.8317900612505E+09
(PID.TID 0000.0001) %MON RAZ_mean                     =   8.2992246709235E+10
(PID.TID 0000.0001) %MON RAZ_sd                       =   1.7482297311044E+10
(PID.TID 0000.0001) %MON AngleCS_max                  =   9.9999994756719E-01
(PID.TID 0000.0001) %MON AngleCS_min                  =  -9.9968286884824E-01
(PID.TID 0000.0001) %MON AngleCS_mean                 =   3.3078850405987E-01
(PID.TID 0000.0001) %MON AngleCS_sd                   =   6.2496317138039E-01
(PID.TID 0000.0001) %MON AngleSN_max                  =   9.9968286884824E-01
(PID.TID 0000.0001) %MON AngleSN_min                  =  -9.9999994756719E-01
(PID.TID 0000.0001) %MON AngleSN_mean                 =  -3.3078850405987E-01
(PID.TID 0000.0001) %MON AngleSN_sd                   =   6.2496317138039E-01
(PID.TID 0000.0001) GAD_INIT_FIXED: GAD_OlMinSize=  2  0  2
(PID.TID 0000.0001) 
(PID.TID 0000.0001) // ===================================
(PID.TID 0000.0001) // GAD parameters :
(PID.TID 0000.0001) // ===================================
(PID.TID 0000.0001) tempAdvScheme =   /* Temp. Horiz.Advection scheme selector */
(PID.TID 0000.0001)                      30
(PID.TID 0000.0001)     ;
(PID.TID 0000.0001) tempVertAdvScheme =   /* Temp. Vert. Advection scheme selector */
(PID.TID 0000.0001)                      30
(PID.TID 0000.0001)     ;
(PID.TID 0000.0001) tempMultiDimAdvec =   /* use Muti-Dim Advec method for Temp */
(PID.TID 0000.0001)                   T
(PID.TID 0000.0001)     ;
(PID.TID 0000.0001) tempSOM_Advection = /* use 2nd Order Moment Advection for Temp */
(PID.TID 0000.0001)                   F
(PID.TID 0000.0001)     ;
(PID.TID 0000.0001) AdamsBashforthGt = /* apply Adams-Bashforth extrapolation on Gt */
(PID.TID 0000.0001)                   F
(PID.TID 0000.0001)     ;
(PID.TID 0000.0001) AdamsBashforth_T = /* apply Adams-Bashforth extrapolation on Temp */
(PID.TID 0000.0001)                   F
(PID.TID 0000.0001)     ;
(PID.TID 0000.0001) saltAdvScheme =   /* Salt. Horiz.advection scheme selector */
(PID.TID 0000.0001)                      30
(PID.TID 0000.0001)     ;
(PID.TID 0000.0001) saltVertAdvScheme =   /* Salt. Vert. Advection scheme selector */
(PID.TID 0000.0001)                      30
(PID.TID 0000.0001)     ;
(PID.TID 0000.0001) saltMultiDimAdvec =   /* use Muti-Dim Advec method for Salt */
(PID.TID 0000.0001)                   T
(PID.TID 0000.0001)     ;
(PID.TID 0000.0001) saltSOM_Advection = /* use 2nd Order Moment Advection for Salt */
(PID.TID 0000.0001)                   F
(PID.TID 0000.0001)     ;
(PID.TID 0000.0001) AdamsBashforthGs = /* apply Adams-Bashforth extrapolation on Gs */
(PID.TID 0000.0001)                   F
(PID.TID 0000.0001)     ;
(PID.TID 0000.0001) AdamsBashforth_S = /* apply Adams-Bashforth extrapolation on Salt */
(PID.TID 0000.0001)                   F
(PID.TID 0000.0001)     ;
(PID.TID 0000.0001) // ===================================
(PID.TID 0000.0001) ctrl-wet 1:    nvarlength =       239366
(PID.TID 0000.0001) ctrl-wet 2: surface wet C =          389
(PID.TID 0000.0001) ctrl-wet 3: surface wet W =          367
(PID.TID 0000.0001) ctrl-wet 4: surface wet S =          384
(PID.TID 0000.0001) ctrl-wet 4a:surface wet V =            0
(PID.TID 0000.0001) ctrl-wet 5: 3D wet points =         5204
(PID.TID 0000.0001) ctrl-wet 6: no recs for i =     1           1
(PID.TID 0000.0001) ctrl-wet 6: no recs for i =     2           1
(PID.TID 0000.0001) ctrl-wet 6: no recs for i =     3           1
(PID.TID 0000.0001) ctrl-wet 6: no recs for i =     4           1
(PID.TID 0000.0001) ctrl-wet 6: no recs for i =     5           1
(PID.TID 0000.0001) ctrl-wet 6: no recs for i =     6           1
(PID.TID 0000.0001) ctrl-wet 6: no recs for i =     7           0
(PID.TID 0000.0001) ctrl-wet 6: no recs for i =     8           0
(PID.TID 0000.0001) ctrl-wet 6: no recs for i =     9           0
(PID.TID 0000.0001) ctrl-wet 6: no recs for i =    10           0
(PID.TID 0000.0001) ctrl-wet 6: no recs for i =    11           0
(PID.TID 0000.0001) ctrl-wet 6: no recs for i =    12           0
(PID.TID 0000.0001) ctrl-wet 6: no recs for i =    13           0
(PID.TID 0000.0001) ctrl-wet 6: no recs for i =    14           0
(PID.TID 0000.0001) ctrl-wet 6: no recs for i =    15           1
(PID.TID 0000.0001) ctrl-wet 6: no recs for i =    16           0
(PID.TID 0000.0001) ctrl-wet 6: no recs for i =    17           1
(PID.TID 0000.0001) ctrl-wet 6: no recs for i =    18           0
(PID.TID 0000.0001) ctrl-wet 6: no recs for i =    19           0
(PID.TID 0000.0001) ctrl-wet 6: no recs for i =    20           0
(PID.TID 0000.0001) ctrl-wet 6: no recs for i =    21           0
(PID.TID 0000.0001) ctrl-wet 6: no recs for i =    22           0
(PID.TID 0000.0001) ctrl-wet 6: no recs for i =    23           0
(PID.TID 0000.0001) ctrl-wet 6: no recs for i =    24           0
(PID.TID 0000.0001) ctrl-wet 6: no recs for i =    25           0
(PID.TID 0000.0001) ctrl-wet 6: no recs for i =    26           0
(PID.TID 0000.0001) ctrl-wet 6: no recs for i =    27           0
(PID.TID 0000.0001) ctrl-wet 6: no recs for i =    28           0
(PID.TID 0000.0001) ctrl-wet 6: no recs for i =    29           0
(PID.TID 0000.0001) ctrl-wet 6: no recs for i =    30           0
(PID.TID 0000.0001) ctrl-wet 6: no recs for i =    31           0
(PID.TID 0000.0001) ctrl-wet 6: no recs for i =    32           0
(PID.TID 0000.0001) ctrl-wet 6: no recs for i =    33           0
(PID.TID 0000.0001) ctrl-wet 6: no recs for i =    34           0
(PID.TID 0000.0001) ctrl-wet 6: no recs for i =    35           0
(PID.TID 0000.0001) ctrl-wet 6: no recs for i =    36           0
(PID.TID 0000.0001) ctrl-wet 6: no recs for i =    37           0
(PID.TID 0000.0001) ctrl-wet 6: no recs for i =    38           0
(PID.TID 0000.0001) ctrl-wet 6: no recs for i =    39           0
(PID.TID 0000.0001) ctrl-wet 6: no recs for i =    40           0
(PID.TID 0000.0001) ctrl-wet 6: no recs for i =    41           0
(PID.TID 0000.0001) ctrl-wet 6: no recs for i =    42           0
(PID.TID 0000.0001) ctrl-wet 6: no recs for i =    43           0
(PID.TID 0000.0001) ctrl-wet 6: no recs for i =    44           0
(PID.TID 0000.0001) ctrl-wet 6: no recs for i =    45           0
(PID.TID 0000.0001) ctrl-wet 6: no recs for i =    46           0
(PID.TID 0000.0001) ctrl-wet 6: no recs for i =    47           0
(PID.TID 0000.0001) ctrl-wet 6: no recs for i =    48           0
(PID.TID 0000.0001) ctrl-wet 6: no recs for i =    49           0
(PID.TID 0000.0001) ctrl-wet 6: no recs for i =    50           0
(PID.TID 0000.0001) ctrl-wet 6: no recs for i =    51           0
(PID.TID 0000.0001) ctrl-wet 6: no recs for i =    52           0
(PID.TID 0000.0001) ctrl-wet 6: no recs for i =    53           0
(PID.TID 0000.0001) ctrl-wet 6: no recs for i =    54           0
(PID.TID 0000.0001) ctrl-wet 6: no recs for i =    55           0
(PID.TID 0000.0001) ctrl-wet 6: no recs for i =    56           0
(PID.TID 0000.0001) ctrl-wet 6: no recs for i =    57           0
(PID.TID 0000.0001) ctrl-wet 6: no recs for i =    58           0
(PID.TID 0000.0001) ctrl-wet 6: no recs for i =    59           0
(PID.TID 0000.0001) ctrl-wet 6: no recs for i =    60           0
(PID.TID 0000.0001) ctrl-wet 7: flux         11937
(PID.TID 0000.0001) ctrl-wet 8: atmos        10408
(PID.TID 0000.0001) ctrl-wet -------------------------------------------------
(PID.TID 0000.0001) ctrl-wet 13: global nvarlength for Nr =   15      239366
(PID.TID 0000.0001) ctrl-wet -------------------------------------------------
(PID.TID 0000.0001) ctrl-wet 14: global nWet C/S/W/V k=    1        4420        4232        4206           0
(PID.TID 0000.0001) ctrl-wet 14: global nWet C/S/W/V k=    2        4299        4112        4096           0
(PID.TID 0000.0001) ctrl-wet 14: global nWet C/S/W/V k=    3        4222        4038        4023           0
(PID.TID 0000.0001) ctrl-wet 14: global nWet C/S/W/V k=    4        4140        3960        3939           0
(PID.TID 0000.0001) ctrl-wet 14: global nWet C/S/W/V k=    5        4099        3919        3893           0
(PID.TID 0000.0001) ctrl-wet 14: global nWet C/S/W/V k=    6        4038        3856        3839           0
(PID.TID 0000.0001) ctrl-wet 14: global nWet C/S/W/V k=    7        3995        3814        3795           0
(PID.TID 0000.0001) ctrl-wet 14: global nWet C/S/W/V k=    8        3944        3756        3737           0
(PID.TID 0000.0001) ctrl-wet 14: global nWet C/S/W/V k=    9        3887        3699        3673           0
(PID.TID 0000.0001) ctrl-wet 14: global nWet C/S/W/V k=   10        3799        3605        3585           0
(PID.TID 0000.0001) ctrl-wet 14: global nWet C/S/W/V k=   11        3703        3502        3461           0
(PID.TID 0000.0001) ctrl-wet 14: global nWet C/S/W/V k=   12        3554        3338        3303           0
(PID.TID 0000.0001) ctrl-wet 14: global nWet C/S/W/V k=   13        3202        2910        2911           0
(PID.TID 0000.0001) ctrl-wet 14: global nWet C/S/W/V k=   14        2599        2296        2276           0
(PID.TID 0000.0001) ctrl-wet 14: global nWet C/S/W/V k=   15        1621        1368        1334           0
(PID.TID 0000.0001) ctrl-wet -------------------------------------------------
(PID.TID 0000.0001) ctrl-wet -------------------------------------------------
(PID.TID 0000.0001) ctrl-wet -------------------------------------------------
(PID.TID 0000.0001) ctrl_init: no. of control variables:            8
(PID.TID 0000.0001) ctrl_init: control vector length:          239366
(PID.TID 0000.0001) %MON fCori_max                    =   1.4535016908525E-04
(PID.TID 0000.0001) %MON fCori_min                    =  -1.4535016908525E-04
(PID.TID 0000.0001) %MON fCori_mean                   =   2.5975677049132E-20
(PID.TID 0000.0001) %MON fCori_sd                     =   8.3972192788621E-05
(PID.TID 0000.0001) %MON fCoriG_max                   =   1.4544410433286E-04
(PID.TID 0000.0001) %MON fCoriG_min                   =  -1.4544410433286E-04
(PID.TID 0000.0001) %MON fCoriG_mean                  =   9.0350181040459E-21
(PID.TID 0000.0001) %MON fCoriG_sd                    =   8.3972192788621E-05
(PID.TID 0000.0001) %MON fCoriCos_max                 =   1.4540341538469E-04
(PID.TID 0000.0001) %MON fCoriCos_min                 =   5.2264550201501E-06
(PID.TID 0000.0001) %MON fCoriCos_mean                =   1.1482595466044E-04
(PID.TID 0000.0001) %MON fCoriCos_sd                  =   3.0292878037194E-05
(PID.TID 0000.0001) INI_CG2D: CG2D normalisation factor =  1.9156564154949553E-04
(PID.TID 0000.0001) INI_CG2D: cg2dTolerance = 5.809016360175296E-07 (Area=3.6388673751E+14)
(PID.TID 0000.0001) 
(PID.TID 0000.0001) // =======================================================
(PID.TID 0000.0001) // Model configuration
(PID.TID 0000.0001) // =======================================================
(PID.TID 0000.0001) //
(PID.TID 0000.0001) // "Physical" paramters ( PARM01 in namelist )
(PID.TID 0000.0001) //
(PID.TID 0000.0001) buoyancyRelation = /* Type of relation to get Buoyancy */
(PID.TID 0000.0001)               'OCEANIC'
(PID.TID 0000.0001)     ;
(PID.TID 0000.0001) fluidIsAir   =  /* fluid major constituent is Air */
(PID.TID 0000.0001)                   F
(PID.TID 0000.0001)     ;
(PID.TID 0000.0001) fluidIsWater =  /* fluid major constituent is Water */
(PID.TID 0000.0001)                   T
(PID.TID 0000.0001)     ;
(PID.TID 0000.0001) usingPCoords =  /* use p (or p*) vertical coordinate */
(PID.TID 0000.0001)                   F
(PID.TID 0000.0001)     ;
(PID.TID 0000.0001) usingZCoords =  /* use z (or z*) vertical coordinate */
(PID.TID 0000.0001)                   T
(PID.TID 0000.0001)     ;
(PID.TID 0000.0001) tRef =   /* Reference temperature profile ( oC or K ) */
(PID.TID 0000.0001)    15 @  2.000000000000000E+01              /* K =  1: 15 */
(PID.TID 0000.0001)     ;
(PID.TID 0000.0001) sRef =   /* Reference salinity profile ( psu ) */
(PID.TID 0000.0001)    15 @  3.500000000000000E+01              /* K =  1: 15 */
(PID.TID 0000.0001)     ;
(PID.TID 0000.0001) viscAh  =   /* Lateral eddy viscosity ( m^2/s ) */
(PID.TID 0000.0001)                 3.000000000000000E+05
(PID.TID 0000.0001)     ;
(PID.TID 0000.0001) viscAhMax = /* Maximum lateral eddy viscosity ( m^2/s ) */
(PID.TID 0000.0001)                 1.000000000000000E+21
(PID.TID 0000.0001)     ;
(PID.TID 0000.0001) viscAhGrid = /* Grid dependent lateral eddy viscosity ( non-dim. ) */
(PID.TID 0000.0001)                 0.000000000000000E+00
(PID.TID 0000.0001)     ;
(PID.TID 0000.0001) useFullLeith = /* Use Full Form of Leith Viscosity on/off flag*/
(PID.TID 0000.0001)                   F
(PID.TID 0000.0001)     ;
(PID.TID 0000.0001) useStrainTensionVisc= /* Use StrainTension Form of Viscous Operator flag*/
(PID.TID 0000.0001)                   F
(PID.TID 0000.0001)     ;
(PID.TID 0000.0001) useAreaViscLength = /* Use area for visc length instead of geom. mean*/
(PID.TID 0000.0001)                   F
(PID.TID 0000.0001)     ;
(PID.TID 0000.0001) viscC2leith = /* Leith harmonic visc. factor (on grad(vort),non-dim.) */
(PID.TID 0000.0001)                 0.000000000000000E+00
(PID.TID 0000.0001)     ;
(PID.TID 0000.0001) viscC2leithD = /* Leith harmonic viscosity factor (on grad(div),non-dim.)*/
(PID.TID 0000.0001)                 0.000000000000000E+00
(PID.TID 0000.0001)     ;
(PID.TID 0000.0001) viscC2smag = /* Smagorinsky harmonic viscosity factor (non-dim.) */
(PID.TID 0000.0001)                 0.000000000000000E+00
(PID.TID 0000.0001)     ;
(PID.TID 0000.0001) viscA4  =   /* Lateral biharmonic viscosity ( m^4/s ) */
(PID.TID 0000.0001)                 0.000000000000000E+00
(PID.TID 0000.0001)     ;
(PID.TID 0000.0001) viscA4Max = /* Maximum biharmonic viscosity ( m^2/s ) */
(PID.TID 0000.0001)                 1.000000000000000E+21
(PID.TID 0000.0001)     ;
(PID.TID 0000.0001) viscA4Grid = /* Grid dependent biharmonic viscosity ( non-dim. ) */
(PID.TID 0000.0001)                 0.000000000000000E+00
(PID.TID 0000.0001)     ;
(PID.TID 0000.0001) viscC4leith = /* Leith biharm viscosity factor (on grad(vort), non-dim.)*/
(PID.TID 0000.0001)                 0.000000000000000E+00
(PID.TID 0000.0001)     ;
(PID.TID 0000.0001) viscC4leithD = /* Leith biharm viscosity factor (on grad(div), non-dim.) */
(PID.TID 0000.0001)                 0.000000000000000E+00
(PID.TID 0000.0001)     ;
(PID.TID 0000.0001) viscC4Smag = /* Smagorinsky biharm viscosity factor (non-dim) */
(PID.TID 0000.0001)                 0.000000000000000E+00
(PID.TID 0000.0001)     ;
(PID.TID 0000.0001) no_slip_sides =  /* Viscous BCs: No-slip sides */
(PID.TID 0000.0001)                   T
(PID.TID 0000.0001)     ;
(PID.TID 0000.0001) sideDragFactor = /* side-drag scaling factor (non-dim) */
(PID.TID 0000.0001)                 2.000000000000000E+00
(PID.TID 0000.0001)     ;
(PID.TID 0000.0001) viscArNr = /* vertical profile of vertical viscosity ( m^2/s )*/
(PID.TID 0000.0001)    15 @  1.000000000000000E-03              /* K =  1: 15 */
(PID.TID 0000.0001)     ;
(PID.TID 0000.0001) no_slip_bottom =  /* Viscous BCs: No-slip bottom */
(PID.TID 0000.0001)                   T
(PID.TID 0000.0001)     ;
(PID.TID 0000.0001) bottomDragLinear = /* linear bottom-drag coefficient ( m/s ) */
(PID.TID 0000.0001)                 0.000000000000000E+00
(PID.TID 0000.0001)     ;
(PID.TID 0000.0001) bottomDragQuadratic = /* quadratic bottom-drag coefficient (-) */
(PID.TID 0000.0001)                 0.000000000000000E+00
(PID.TID 0000.0001)     ;
(PID.TID 0000.0001) diffKhT =   /* Laplacian diffusion of heat laterally ( m^2/s ) */
(PID.TID 0000.0001)                 0.000000000000000E+00
(PID.TID 0000.0001)     ;
(PID.TID 0000.0001) diffK4T =   /* Biharmonic diffusion of heat laterally ( m^4/s ) */
(PID.TID 0000.0001)                 0.000000000000000E+00
(PID.TID 0000.0001)     ;
(PID.TID 0000.0001) diffKhS =   /* Laplacian diffusion of salt laterally ( m^2/s ) */
(PID.TID 0000.0001)                 0.000000000000000E+00
(PID.TID 0000.0001)     ;
(PID.TID 0000.0001) diffK4S =   /* Biharmonic diffusion of salt laterally ( m^4/s ) */
(PID.TID 0000.0001)                 0.000000000000000E+00
(PID.TID 0000.0001)     ;
(PID.TID 0000.0001) diffKrNrT = /* vertical profile of vertical diffusion of Temp ( m^2/s )*/
(PID.TID 0000.0001)    15 @  3.000000000000000E-05              /* K =  1: 15 */
(PID.TID 0000.0001)     ;
(PID.TID 0000.0001) diffKrNrS = /* vertical profile of vertical diffusion of Salt ( m^2/s )*/
(PID.TID 0000.0001)    15 @  3.000000000000000E-05              /* K =  1: 15 */
(PID.TID 0000.0001)     ;
(PID.TID 0000.0001) diffKrBL79surf = /* Surface diffusion for Bryan and Lewis 79 ( m^2/s ) */
(PID.TID 0000.0001)                 0.000000000000000E+00
(PID.TID 0000.0001)     ;
(PID.TID 0000.0001) diffKrBL79deep = /* Deep diffusion for Bryan and Lewis 1979 ( m^2/s ) */
(PID.TID 0000.0001)                 0.000000000000000E+00
(PID.TID 0000.0001)     ;
(PID.TID 0000.0001) diffKrBL79scl = /* Depth scale for Bryan and Lewis 1979 ( m ) */
(PID.TID 0000.0001)                 2.000000000000000E+02
(PID.TID 0000.0001)     ;
(PID.TID 0000.0001) diffKrBL79Ho = /* Turning depth for Bryan and Lewis 1979 ( m ) */
(PID.TID 0000.0001)                -2.000000000000000E+03
(PID.TID 0000.0001)     ;
(PID.TID 0000.0001) ivdc_kappa = /* Implicit Vertical Diffusivity for Convection ( m^2/s) */
(PID.TID 0000.0001)                 1.000000000000000E+01
(PID.TID 0000.0001)     ;
(PID.TID 0000.0001) hMixCriteria=  /* Criteria for mixed-layer diagnostic */
(PID.TID 0000.0001)                -8.000000000000000E-01
(PID.TID 0000.0001)     ;
(PID.TID 0000.0001) dRhoSmall =  /* Parameter for mixed-layer diagnostic */
(PID.TID 0000.0001)                 1.000000000000000E-06
(PID.TID 0000.0001)     ;
(PID.TID 0000.0001) hMixSmooth=  /* Smoothing parameter for mixed-layer diagnostic */
(PID.TID 0000.0001)                 0.000000000000000E+00
(PID.TID 0000.0001)     ;
(PID.TID 0000.0001) eosType =  /* Type of Equation of State */
(PID.TID 0000.0001)               'JMD95Z'
(PID.TID 0000.0001)     ;
(PID.TID 0000.0001) tAlpha =   /* Linear EOS thermal expansion coefficient ( 1/oC ) */
(PID.TID 0000.0001)                 1.234567000000000E+05
(PID.TID 0000.0001)     ;
(PID.TID 0000.0001) sBeta =   /* Linear EOS haline contraction coefficient ( 1/psu ) */
(PID.TID 0000.0001)                 1.234567000000000E+05
(PID.TID 0000.0001)     ;
(PID.TID 0000.0001) rhonil =   /* Reference density ( kg/m^3 ) */
(PID.TID 0000.0001)                 1.035000000000000E+03
(PID.TID 0000.0001)     ;
(PID.TID 0000.0001) rhoConst =   /* Reference density ( kg/m^3 ) */
(PID.TID 0000.0001)                 1.035000000000000E+03
(PID.TID 0000.0001)     ;
(PID.TID 0000.0001) rhoFacC = /* normalized Reference density @ cell-Center (-) */
(PID.TID 0000.0001)    15 @  1.000000000000000E+00              /* K =  1: 15 */
(PID.TID 0000.0001)     ;
(PID.TID 0000.0001) rhoFacF = /* normalized Reference density @ W-Interface (-) */
(PID.TID 0000.0001)    16 @  1.000000000000000E+00              /* K =  1: 16 */
(PID.TID 0000.0001)     ;
(PID.TID 0000.0001) rhoConstFresh =   /* Reference density ( kg/m^3 ) */
(PID.TID 0000.0001)                 1.000000000000000E+03
(PID.TID 0000.0001)     ;
(PID.TID 0000.0001) gravity =   /* Gravitational acceleration ( m/s^2 ) */
(PID.TID 0000.0001)                 9.810000000000000E+00
(PID.TID 0000.0001)     ;
(PID.TID 0000.0001) gBaro =   /* Barotropic gravity ( m/s^2 ) */
(PID.TID 0000.0001)                 9.810000000000000E+00
(PID.TID 0000.0001)     ;
(PID.TID 0000.0001) rotationPeriod =   /* Rotation Period ( s ) */
(PID.TID 0000.0001)                 8.640000000000000E+04
(PID.TID 0000.0001)     ;
(PID.TID 0000.0001) omega =   /* Angular velocity ( rad/s ) */
(PID.TID 0000.0001)                 7.272205216643040E-05
(PID.TID 0000.0001)     ;
(PID.TID 0000.0001) f0 =   /* Reference coriolis parameter ( 1/s ) */
(PID.TID 0000.0001)                 1.000000000000000E-04
(PID.TID 0000.0001)     ;
(PID.TID 0000.0001) beta =   /* Beta ( 1/(m.s) ) */
(PID.TID 0000.0001)                 9.999999999999999E-12
(PID.TID 0000.0001)     ;
(PID.TID 0000.0001) fPrime =   /* Second coriolis parameter ( 1/s ) */
(PID.TID 0000.0001)                 0.000000000000000E+00
(PID.TID 0000.0001)     ;
(PID.TID 0000.0001) rigidLid =   /* Rigid lid on/off flag */
(PID.TID 0000.0001)                   F
(PID.TID 0000.0001)     ;
(PID.TID 0000.0001) implicitFreeSurface =   /* Implicit free surface on/off flag */
(PID.TID 0000.0001)                   T
(PID.TID 0000.0001)     ;
(PID.TID 0000.0001) freeSurfFac =   /* Implicit free surface factor */
(PID.TID 0000.0001)                 1.000000000000000E+00
(PID.TID 0000.0001)     ;
(PID.TID 0000.0001) implicSurfPress =  /* Surface Pressure implicit factor (0-1)*/
(PID.TID 0000.0001)                 1.000000000000000E+00
(PID.TID 0000.0001)     ;
(PID.TID 0000.0001) implicDiv2Dflow =  /* Barot. Flow Div. implicit factor (0-1)*/
(PID.TID 0000.0001)                 1.000000000000000E+00
(PID.TID 0000.0001)     ;
(PID.TID 0000.0001) exactConserv =  /* Exact Volume Conservation on/off flag*/
(PID.TID 0000.0001)                   T
(PID.TID 0000.0001)     ;
(PID.TID 0000.0001) linFSConserveTr = /* Tracer correction for Lin Free Surface on/off flag*/
(PID.TID 0000.0001)                   F
(PID.TID 0000.0001)     ;
(PID.TID 0000.0001) uniformLin_PhiSurf = /* use uniform Bo_surf on/off flag*/
(PID.TID 0000.0001)                   T
(PID.TID 0000.0001)     ;
(PID.TID 0000.0001) hFacMin =   /* minimum partial cell factor (hFac) */
(PID.TID 0000.0001)                 1.000000000000000E-01
(PID.TID 0000.0001)     ;
(PID.TID 0000.0001) hFacMinDr = /* minimum partial cell thickness ( m) */
(PID.TID 0000.0001)                 1.000000000000000E-01
(PID.TID 0000.0001)     ;
(PID.TID 0000.0001) nonlinFreeSurf = /* Non-linear Free Surf. options (-1,0,1,2,3)*/
(PID.TID 0000.0001)                       2
(PID.TID 0000.0001)      -1,0= Off ; 1,2,3= On, 2=+rescale gU,gV, 3=+update cg2d solv.
(PID.TID 0000.0001)     ;
(PID.TID 0000.0001) hFacInf =   /* lower threshold for hFac (nonlinFreeSurf only)*/
(PID.TID 0000.0001)                 2.000000000000000E-01
(PID.TID 0000.0001)     ;
(PID.TID 0000.0001) hFacSup =   /* upper threshold for hFac (nonlinFreeSurf only)*/
(PID.TID 0000.0001)                 2.000000000000000E+00
(PID.TID 0000.0001)     ;
(PID.TID 0000.0001) select_rStar = /* r* Vertical coord. options (=0 r coord.; >0 uses r*)*/
(PID.TID 0000.0001)                       2
(PID.TID 0000.0001)     ;
(PID.TID 0000.0001) selectAddFluid = /* option for mass source/sink of fluid (=0: off) */
(PID.TID 0000.0001)                       0
(PID.TID 0000.0001)     ;
(PID.TID 0000.0001) useRealFreshWaterFlux = /* Real Fresh Water Flux on/off flag*/
(PID.TID 0000.0001)                   T
(PID.TID 0000.0001)     ;
(PID.TID 0000.0001) temp_EvPrRn = /* Temp. of Evap/Prec/R (UNSET=use local T)(oC)*/
(PID.TID 0000.0001)                 1.234567000000000E+05
(PID.TID 0000.0001)     ;
(PID.TID 0000.0001) salt_EvPrRn = /* Salin. of Evap/Prec/R (UNSET=use local S)(psu)*/
(PID.TID 0000.0001)                 0.000000000000000E+00
(PID.TID 0000.0001)     ;
(PID.TID 0000.0001) temp_addMass = /* Temp. of addMass array (UNSET=use local T)(oC)*/
(PID.TID 0000.0001)                 1.234567000000000E+05
(PID.TID 0000.0001)     ;
(PID.TID 0000.0001) salt_addMass = /* Salin. of addMass array (UNSET=use local S)(psu)*/
(PID.TID 0000.0001)                 0.000000000000000E+00
(PID.TID 0000.0001)     ;
(PID.TID 0000.0001) use3Dsolver = /* use 3-D pressure solver on/off flag */
(PID.TID 0000.0001)                   F
(PID.TID 0000.0001)     ;
(PID.TID 0000.0001) nonHydrostatic =  /* Non-Hydrostatic on/off flag */
(PID.TID 0000.0001)                   F
(PID.TID 0000.0001)     ;
(PID.TID 0000.0001) nh_Am2 = /* Non-Hydrostatic terms scaling factor */
(PID.TID 0000.0001)                 1.000000000000000E+00
(PID.TID 0000.0001)     ;
(PID.TID 0000.0001) implicitNHPress = /* Non-Hyd Pressure implicit factor (0-1)*/
(PID.TID 0000.0001)                 1.000000000000000E+00
(PID.TID 0000.0001)     ;
(PID.TID 0000.0001) selectNHfreeSurf = /* Non-Hyd (free-)Surface option */
(PID.TID 0000.0001)                       0
(PID.TID 0000.0001)     ;
(PID.TID 0000.0001) quasiHydrostatic = /* Quasi-Hydrostatic on/off flag */
(PID.TID 0000.0001)                   F
(PID.TID 0000.0001)     ;
(PID.TID 0000.0001) calc_wVelocity = /* vertical velocity calculation on/off flag */
(PID.TID 0000.0001)                   T
(PID.TID 0000.0001)     ;
(PID.TID 0000.0001) momStepping =  /* Momentum equation on/off flag */
(PID.TID 0000.0001)                   T
(PID.TID 0000.0001)     ;
(PID.TID 0000.0001) vectorInvariantMomentum= /* Vector-Invariant Momentum on/off */
(PID.TID 0000.0001)                   T
(PID.TID 0000.0001)     ;
(PID.TID 0000.0001) momAdvection =  /* Momentum advection on/off flag */
(PID.TID 0000.0001)                   T
(PID.TID 0000.0001)     ;
(PID.TID 0000.0001) momViscosity =  /* Momentum viscosity on/off flag */
(PID.TID 0000.0001)                   T
(PID.TID 0000.0001)     ;
(PID.TID 0000.0001) momImplVertAdv= /* Momentum implicit vert. advection on/off*/
(PID.TID 0000.0001)                   F
(PID.TID 0000.0001)     ;
(PID.TID 0000.0001) implicitViscosity = /* Implicit viscosity on/off flag */
(PID.TID 0000.0001)                   F
(PID.TID 0000.0001)     ;
(PID.TID 0000.0001) metricTerms =  /* metric-Terms on/off flag */
(PID.TID 0000.0001)                   F
(PID.TID 0000.0001)     ;
(PID.TID 0000.0001) useNHMTerms = /* Non-Hydrostatic Metric-Terms on/off */
(PID.TID 0000.0001)                   F
(PID.TID 0000.0001)     ;
(PID.TID 0000.0001) selectCoriMap = /* Coriolis Map options (0,1,2,3)*/
(PID.TID 0000.0001)                       2
(PID.TID 0000.0001)     0= f-Plane ; 1= Beta-Plane ; 2= Spherical ; 3= read from file
(PID.TID 0000.0001)     ;
(PID.TID 0000.0001) use3dCoriolis = /* 3-D Coriolis on/off flag */
(PID.TID 0000.0001)                   F
(PID.TID 0000.0001)     ;
(PID.TID 0000.0001) useCoriolis =  /* Coriolis on/off flag */
(PID.TID 0000.0001)                   T
(PID.TID 0000.0001)     ;
(PID.TID 0000.0001) useCDscheme =  /* CD scheme on/off flag */
(PID.TID 0000.0001)                   F
(PID.TID 0000.0001)     ;
(PID.TID 0000.0001) useEnergyConservingCoriolis= /* Flx-Form Coriolis scheme flag */
(PID.TID 0000.0001)                   F
(PID.TID 0000.0001)     ;
(PID.TID 0000.0001) useJamartWetPoints= /* Coriolis WetPoints method flag */
(PID.TID 0000.0001)                   F
(PID.TID 0000.0001)     ;
(PID.TID 0000.0001) useJamartMomAdv= /* V.I Non-linear terms Jamart flag */
(PID.TID 0000.0001)                   F
(PID.TID 0000.0001)     ;
(PID.TID 0000.0001) useAbsVorticity= /* V.I Works with f+zeta in Coriolis */
(PID.TID 0000.0001)                   F
(PID.TID 0000.0001)     ;
(PID.TID 0000.0001) selectVortScheme= /* V.I Scheme selector for Vorticity-Term */
(PID.TID 0000.0001)                       1
(PID.TID 0000.0001)    = 0 : enstrophy (Shallow-Water Eq.) conserving scheme by Sadourny, JAS 75
(PID.TID 0000.0001)    = 1 : same as 0 with modified hFac
(PID.TID 0000.0001)    = 2 : energy conserving scheme (used by Sadourny in JAS 75 paper)
(PID.TID 0000.0001)    = 3 : energy (general) and enstrophy (2D, nonDiv.) conserving scheme
(PID.TID 0000.0001)          from Sadourny (Burridge & Haseler, ECMWF Rep.4, 1977)
(PID.TID 0000.0001)     ;
(PID.TID 0000.0001) upwindVorticity= /* V.I Upwind bias vorticity flag */
(PID.TID 0000.0001)                   F
(PID.TID 0000.0001)     ;
(PID.TID 0000.0001) highOrderVorticity= /* V.I High order vort. advect. flag */
(PID.TID 0000.0001)                   F
(PID.TID 0000.0001)     ;
(PID.TID 0000.0001) upwindShear= /* V.I Upwind vertical Shear advection flag */
(PID.TID 0000.0001)                   F
(PID.TID 0000.0001)     ;
(PID.TID 0000.0001) selectKEscheme= /* V.I Kinetic Energy scheme selector */
(PID.TID 0000.0001)                       0
(PID.TID 0000.0001)     ;
(PID.TID 0000.0001) momForcing =  /* Momentum forcing on/off flag */
(PID.TID 0000.0001)                   T
(PID.TID 0000.0001)     ;
(PID.TID 0000.0001) momPressureForcing =  /* Momentum pressure term on/off flag */
(PID.TID 0000.0001)                   T
(PID.TID 0000.0001)     ;
(PID.TID 0000.0001) implicitIntGravWave= /* Implicit Internal Gravity Wave flag */
(PID.TID 0000.0001)                   F
(PID.TID 0000.0001)     ;
(PID.TID 0000.0001) staggerTimeStep =   /* Stagger time stepping on/off flag */
(PID.TID 0000.0001)                   T
(PID.TID 0000.0001)     ;
(PID.TID 0000.0001) multiDimAdvection =   /* enable/disable Multi-Dim Advection */
(PID.TID 0000.0001)                   T
(PID.TID 0000.0001)     ;
(PID.TID 0000.0001) useMultiDimAdvec =   /* Multi-Dim Advection is/is-not used */
(PID.TID 0000.0001)                   T
(PID.TID 0000.0001)     ;
(PID.TID 0000.0001) implicitDiffusion = /* Implicit Diffusion on/off flag */
(PID.TID 0000.0001)                   T
(PID.TID 0000.0001)     ;
(PID.TID 0000.0001) tempStepping =  /* Temperature equation on/off flag */
(PID.TID 0000.0001)                   T
(PID.TID 0000.0001)     ;
(PID.TID 0000.0001) tempAdvection=  /* Temperature advection on/off flag */
(PID.TID 0000.0001)                   T
(PID.TID 0000.0001)     ;
(PID.TID 0000.0001) tempImplVertAdv = /* Temp. implicit vert. advection on/off */
(PID.TID 0000.0001)                   F
(PID.TID 0000.0001)     ;
(PID.TID 0000.0001) tempForcing  =  /* Temperature forcing on/off flag */
(PID.TID 0000.0001)                   T
(PID.TID 0000.0001)     ;
(PID.TID 0000.0001) tempIsActiveTr = /* Temp. is a dynamically Active Tracer */
(PID.TID 0000.0001)                   T
(PID.TID 0000.0001)     ;
(PID.TID 0000.0001) saltStepping =  /* Salinity equation on/off flag */
(PID.TID 0000.0001)                   T
(PID.TID 0000.0001)     ;
(PID.TID 0000.0001) saltAdvection=  /* Salinity advection on/off flag */
(PID.TID 0000.0001)                   T
(PID.TID 0000.0001)     ;
(PID.TID 0000.0001) saltImplVertAdv = /* Sali. implicit vert. advection on/off */
(PID.TID 0000.0001)                   F
(PID.TID 0000.0001)     ;
(PID.TID 0000.0001) saltForcing  =  /* Salinity forcing on/off flag */
(PID.TID 0000.0001)                   T
(PID.TID 0000.0001)     ;
(PID.TID 0000.0001) saltIsActiveTr = /* Salt  is a dynamically Active Tracer */
(PID.TID 0000.0001)                   T
(PID.TID 0000.0001)     ;
(PID.TID 0000.0001)  readBinaryPrec = /* Precision used for reading binary files */
(PID.TID 0000.0001)                      64
(PID.TID 0000.0001)     ;
(PID.TID 0000.0001) writeBinaryPrec = /* Precision used for writing binary files */
(PID.TID 0000.0001)                      32
(PID.TID 0000.0001)     ;
(PID.TID 0000.0001)  globalFiles = /* write "global" (=not per tile) files */
(PID.TID 0000.0001)                   F
(PID.TID 0000.0001)     ;
(PID.TID 0000.0001)  useSingleCpuIO = /* only master MPI process does I/O */
(PID.TID 0000.0001)                   F
(PID.TID 0000.0001)     ;
(PID.TID 0000.0001) /* debLev[*]  : level of debug & auxiliary message printing */
(PID.TID 0000.0001) debLevZero =  0 ; /* level of disabled aux. msg printing */
(PID.TID 0000.0001)    debLevA =  1 ; /* level of minimum  aux. msg printing */
(PID.TID 0000.0001)    debLevB =  2 ; /* level of low aux. print (report read-file opening)*/
(PID.TID 0000.0001)    debLevC =  3 ; /* level of moderate debug prt (most pkgs debug msg) */
(PID.TID 0000.0001)    debLevD =  4 ; /* level of enhanced debug prt (add DEBUG_STATS prt) */
(PID.TID 0000.0001)    debLevE =  5 ; /* level of extensive debug printing */
(PID.TID 0000.0001) debugLevel =  /* select debug printing level */
(PID.TID 0000.0001)                       1
(PID.TID 0000.0001)     ;
(PID.TID 0000.0001) //
(PID.TID 0000.0001) // Elliptic solver(s) paramters ( PARM02 in namelist )
(PID.TID 0000.0001) //
(PID.TID 0000.0001) cg2dMaxIters =   /* Upper limit on 2d con. grad iterations  */
(PID.TID 0000.0001)                     200
(PID.TID 0000.0001)     ;
(PID.TID 0000.0001) cg2dChkResFreq =   /* 2d con. grad convergence test frequency */
(PID.TID 0000.0001)                       1
(PID.TID 0000.0001)     ;
(PID.TID 0000.0001) cg2dTargetResidual =   /* 2d con. grad target residual  */
(PID.TID 0000.0001)                 1.000000000000000E-07
(PID.TID 0000.0001)     ;
(PID.TID 0000.0001) cg2dTargetResWunit =   /* CG2d target residual [W units] */
(PID.TID 0000.0001)                 1.000000000000000E-14
(PID.TID 0000.0001)     ;
(PID.TID 0000.0001) cg2dPreCondFreq =   /* Freq. for updating cg2d preconditioner */
(PID.TID 0000.0001)                       1
(PID.TID 0000.0001)     ;
(PID.TID 0000.0001) useSRCGSolver =  /* use single reduction CG solver(s) */
(PID.TID 0000.0001)                   F
(PID.TID 0000.0001)     ;
(PID.TID 0000.0001) printResidualFreq = /* Freq. for printing CG residual */
(PID.TID 0000.0001)                       0
(PID.TID 0000.0001)     ;
(PID.TID 0000.0001) //
(PID.TID 0000.0001) // Time stepping paramters ( PARM03 in namelist )
(PID.TID 0000.0001) //
(PID.TID 0000.0001) deltaTmom =   /* Momentum equation timestep ( s ) */
(PID.TID 0000.0001)                 1.200000000000000E+03
(PID.TID 0000.0001)     ;
(PID.TID 0000.0001) deltaTfreesurf = /* FreeSurface equation timestep ( s ) */
(PID.TID 0000.0001)                 8.640000000000000E+04
(PID.TID 0000.0001)     ;
(PID.TID 0000.0001) dTtracerLev =  /* Tracer equation timestep ( s ) */
(PID.TID 0000.0001)    15 @  8.640000000000000E+04              /* K =  1: 15 */
(PID.TID 0000.0001)     ;
(PID.TID 0000.0001) deltaTClock  =   /* Model clock timestep ( s ) */
(PID.TID 0000.0001)                 8.640000000000000E+04
(PID.TID 0000.0001)     ;
(PID.TID 0000.0001) cAdjFreq =   /* Convective adjustment interval ( s ) */
(PID.TID 0000.0001)                 0.000000000000000E+00
(PID.TID 0000.0001)     ;
(PID.TID 0000.0001) momForcingOutAB = /* =1: take Momentum Forcing out of Adams-Bash. stepping */
(PID.TID 0000.0001)                       0
(PID.TID 0000.0001)     ;
(PID.TID 0000.0001) tracForcingOutAB = /* =1: take T,S,pTr Forcing out of Adams-Bash. stepping */
(PID.TID 0000.0001)                       1
(PID.TID 0000.0001)     ;
(PID.TID 0000.0001) momDissip_In_AB = /* put Dissipation Tendency in Adams-Bash. stepping */
(PID.TID 0000.0001)                   T
(PID.TID 0000.0001)     ;
(PID.TID 0000.0001) doAB_onGtGs = /* apply AB on Tendencies (rather than on T,S)*/
(PID.TID 0000.0001)                   T
(PID.TID 0000.0001)     ;
(PID.TID 0000.0001) abEps =   /* Adams-Bashforth-2 stabilizing weight */
(PID.TID 0000.0001)                 1.000000000000000E-01
(PID.TID 0000.0001)     ;
(PID.TID 0000.0001) alph_AB =   /* Adams-Bashforth-3 primary factor */
(PID.TID 0000.0001)                 5.000000000000000E-01
(PID.TID 0000.0001)     ;
(PID.TID 0000.0001) beta_AB =   /* Adams-Bashforth-3 secondary factor */
(PID.TID 0000.0001)                 4.166666666666667E-01
(PID.TID 0000.0001)     ;
(PID.TID 0000.0001) startFromPickupAB2= /* start from AB-2 pickup */
(PID.TID 0000.0001)                   F
(PID.TID 0000.0001)     ;
(PID.TID 0000.0001) pickupStrictlyMatch= /* stop if pickup do not strictly match */
(PID.TID 0000.0001)                   F
(PID.TID 0000.0001)     ;
(PID.TID 0000.0001) nIter0   =   /* Run starting timestep number */
(PID.TID 0000.0001)                   72000
(PID.TID 0000.0001)     ;
(PID.TID 0000.0001) nTimeSteps = /* Number of timesteps */
(PID.TID 0000.0001)                      20
(PID.TID 0000.0001)     ;
(PID.TID 0000.0001) nEndIter =   /* Run ending timestep number */
(PID.TID 0000.0001)                   72020
(PID.TID 0000.0001)     ;
(PID.TID 0000.0001) baseTime =   /* Model base time ( s ) */
(PID.TID 0000.0001)                 0.000000000000000E+00
(PID.TID 0000.0001)     ;
(PID.TID 0000.0001) startTime =  /* Run start time ( s ) */
(PID.TID 0000.0001)                 6.220800000000000E+09
(PID.TID 0000.0001)     ;
(PID.TID 0000.0001) endTime  =   /* Integration ending time ( s ) */
(PID.TID 0000.0001)                 6.222528000000000E+09
(PID.TID 0000.0001)     ;
(PID.TID 0000.0001) pChkPtFreq = /* Permanent restart/pickup file interval ( s ) */
(PID.TID 0000.0001)                 1.728000000000000E+06
(PID.TID 0000.0001)     ;
(PID.TID 0000.0001) chkPtFreq  = /* Rolling restart/pickup file interval ( s ) */
(PID.TID 0000.0001)                 0.000000000000000E+00
(PID.TID 0000.0001)     ;
(PID.TID 0000.0001) pickup_write_mdsio =   /* Model IO flag. */
(PID.TID 0000.0001)                   T
(PID.TID 0000.0001)     ;
(PID.TID 0000.0001) pickup_read_mdsio =   /* Model IO flag. */
(PID.TID 0000.0001)                   T
(PID.TID 0000.0001)     ;
(PID.TID 0000.0001) pickup_write_immed =   /* Model IO flag. */
(PID.TID 0000.0001)                   F
(PID.TID 0000.0001)     ;
(PID.TID 0000.0001) writePickupAtEnd =   /* Model IO flag. */
(PID.TID 0000.0001)                   T
(PID.TID 0000.0001)     ;
(PID.TID 0000.0001) dumpFreq =   /* Model state write out interval ( s ). */
(PID.TID 0000.0001)                 8.640000000000000E+04
(PID.TID 0000.0001)     ;
(PID.TID 0000.0001) dumpInitAndLast= /* write out Initial & Last iter. model state */
(PID.TID 0000.0001)                   T
(PID.TID 0000.0001)     ;
(PID.TID 0000.0001) snapshot_mdsio =   /* Model IO flag. */
(PID.TID 0000.0001)                   T
(PID.TID 0000.0001)     ;
(PID.TID 0000.0001) monitorFreq =   /* Monitor output interval ( s ). */
(PID.TID 0000.0001)                 1.000000000000000E+00
(PID.TID 0000.0001)     ;
(PID.TID 0000.0001) monitorSelect = /* select group of variables to monitor */
(PID.TID 0000.0001)                       3
(PID.TID 0000.0001)     ;
(PID.TID 0000.0001) monitor_stdio =   /* Model IO flag. */
(PID.TID 0000.0001)                   T
(PID.TID 0000.0001)     ;
(PID.TID 0000.0001) externForcingPeriod =   /* forcing period (s) */
(PID.TID 0000.0001)                 2.592000000000000E+06
(PID.TID 0000.0001)     ;
(PID.TID 0000.0001) externForcingCycle =   /* period of the cyle (s). */
(PID.TID 0000.0001)                 3.110400000000000E+07
(PID.TID 0000.0001)     ;
(PID.TID 0000.0001) tauThetaClimRelax =   /* relaxation time scale (s) */
(PID.TID 0000.0001)                 5.184000000000000E+06
(PID.TID 0000.0001)     ;
(PID.TID 0000.0001) tauSaltClimRelax =   /* relaxation time scale (s) */
(PID.TID 0000.0001)                 6.220800000000000E+07
(PID.TID 0000.0001)     ;
(PID.TID 0000.0001) latBandClimRelax =   /* max. Lat. where relaxation */
(PID.TID 0000.0001)                 1.800000000000000E+02
(PID.TID 0000.0001)     ;
(PID.TID 0000.0001) //
(PID.TID 0000.0001) // Gridding paramters ( PARM04 in namelist )
(PID.TID 0000.0001) //
(PID.TID 0000.0001) usingCartesianGrid = /* Cartesian coordinates flag ( True/False ) */
(PID.TID 0000.0001)                   F
(PID.TID 0000.0001)     ;
(PID.TID 0000.0001) usingCylindricalGrid = /* Cylindrical coordinates flag ( True/False ) */
(PID.TID 0000.0001)                   F
(PID.TID 0000.0001)     ;
(PID.TID 0000.0001) usingSphericalPolarGrid = /* Spherical coordinates flag ( True/False ) */
(PID.TID 0000.0001)                   F
(PID.TID 0000.0001)     ;
(PID.TID 0000.0001) usingCurvilinearGrid = /* Curvilinear coordinates flag ( True/False ) */
(PID.TID 0000.0001)                   T
(PID.TID 0000.0001)     ;
(PID.TID 0000.0001) selectSigmaCoord = /* Hybrid-Sigma Vert. Coordinate option */
(PID.TID 0000.0001)                       0
(PID.TID 0000.0001)     ;
(PID.TID 0000.0001) Ro_SeaLevel = /* r(1) ( units of r ==  m ) */
(PID.TID 0000.0001)                 0.000000000000000E+00
(PID.TID 0000.0001)     ;
(PID.TID 0000.0001) rSigmaBnd = /* r/sigma transition ( units of r ==  m ) */
(PID.TID 0000.0001)                 1.234567000000000E+05
(PID.TID 0000.0001)     ;
(PID.TID 0000.0001) rkSign =   /* index orientation relative to vertical coordinate */
(PID.TID 0000.0001)                -1.000000000000000E+00
(PID.TID 0000.0001)     ;
(PID.TID 0000.0001) gravitySign = /* gravity orientation relative to vertical coordinate */
(PID.TID 0000.0001)                -1.000000000000000E+00
(PID.TID 0000.0001)     ;
(PID.TID 0000.0001) mass2rUnit = /* convert mass per unit area [kg/m2] to r-units [m] */
(PID.TID 0000.0001)                 9.661835748792270E-04
(PID.TID 0000.0001)     ;
(PID.TID 0000.0001) rUnit2mass = /* convert r-units [m] to mass per unit area [kg/m2] */
(PID.TID 0000.0001)                 1.035000000000000E+03
(PID.TID 0000.0001)     ;
(PID.TID 0000.0001) drC =   /* C spacing ( units of r ) */
(PID.TID 0000.0001)                 2.500000000000000E+01,      /* K =  1 */
(PID.TID 0000.0001)                 6.000000000000000E+01,      /* K =  2 */
(PID.TID 0000.0001)                 8.500000000000000E+01,      /* K =  3 */
(PID.TID 0000.0001)                 1.200000000000000E+02,      /* K =  4 */
(PID.TID 0000.0001)                 1.650000000000000E+02,      /* K =  5 */
(PID.TID 0000.0001)                 2.150000000000000E+02,      /* K =  6 */
(PID.TID 0000.0001)                 2.650000000000000E+02,      /* K =  7 */
(PID.TID 0000.0001)                 3.150000000000000E+02,      /* K =  8 */
(PID.TID 0000.0001)                 3.650000000000000E+02,      /* K =  9 */
(PID.TID 0000.0001)                 4.150000000000000E+02,      /* K = 10 */
(PID.TID 0000.0001)                 4.650000000000000E+02,      /* K = 11 */
(PID.TID 0000.0001)                 5.150000000000000E+02,      /* K = 12 */
(PID.TID 0000.0001)                 5.650000000000000E+02,      /* K = 13 */
(PID.TID 0000.0001)                 6.150000000000000E+02,      /* K = 14 */
(PID.TID 0000.0001)                 6.650000000000000E+02       /* K = 15 */
(PID.TID 0000.0001)     ;
(PID.TID 0000.0001) drF =   /* W spacing ( units of r ) */
(PID.TID 0000.0001)                 5.000000000000000E+01,      /* K =  1 */
(PID.TID 0000.0001)                 7.000000000000000E+01,      /* K =  2 */
(PID.TID 0000.0001)                 1.000000000000000E+02,      /* K =  3 */
(PID.TID 0000.0001)                 1.400000000000000E+02,      /* K =  4 */
(PID.TID 0000.0001)                 1.900000000000000E+02,      /* K =  5 */
(PID.TID 0000.0001)                 2.400000000000000E+02,      /* K =  6 */
(PID.TID 0000.0001)                 2.900000000000000E+02,      /* K =  7 */
(PID.TID 0000.0001)                 3.400000000000000E+02,      /* K =  8 */
(PID.TID 0000.0001)                 3.900000000000000E+02,      /* K =  9 */
(PID.TID 0000.0001)                 4.400000000000000E+02,      /* K = 10 */
(PID.TID 0000.0001)                 4.900000000000000E+02,      /* K = 11 */
(PID.TID 0000.0001)                 5.400000000000000E+02,      /* K = 12 */
(PID.TID 0000.0001)                 5.900000000000000E+02,      /* K = 13 */
(PID.TID 0000.0001)                 6.400000000000000E+02,      /* K = 14 */
(PID.TID 0000.0001)                 6.900000000000000E+02       /* K = 15 */
(PID.TID 0000.0001)     ;
(PID.TID 0000.0001) xgOrigin = /* X-axis origin of West  edge (cartesian: m, lat-lon: deg.) */
(PID.TID 0000.0001)                 0.000000000000000E+00
(PID.TID 0000.0001)     ;
(PID.TID 0000.0001) ygOrigin = /* Y-axis origin of South edge (cartesian: m, lat-lon: deg.) */
(PID.TID 0000.0001)                 0.000000000000000E+00
(PID.TID 0000.0001)     ;
(PID.TID 0000.0001) rSphere =  /* Radius ( ignored - cartesian, m - spherical ) */
(PID.TID 0000.0001)                 6.370000000000000E+06
(PID.TID 0000.0001)     ;
(PID.TID 0000.0001) radius_fromHorizGrid = /* sphere Radius of input horiz. grid */
(PID.TID 0000.0001)                 6.370000000000000E+06
(PID.TID 0000.0001)     ;
(PID.TID 0000.0001) deepAtmosphere = /* Deep/Shallow Atmosphere flag (True/False) */
(PID.TID 0000.0001)                   F
(PID.TID 0000.0001)     ;
(PID.TID 0000.0001) xC =  /* xC(:,1,:,1) : P-point X coord ( deg. or m if cartesian) */
(PID.TID 0000.0001)                -4.439521994760536E+01,      /* I =  1 */
(PID.TID 0000.0001)                -4.295641272275883E+01,      /* I =  2 */
(PID.TID 0000.0001)                -4.122055553388957E+01,      /* I =  3 */
(PID.TID 0000.0001)      . . .
(PID.TID 0000.0001)                 1.312205555338896E+02,      /* I = 94 */
(PID.TID 0000.0001)                 1.329564127227588E+02,      /* I = 95 */
(PID.TID 0000.0001)                 1.343952199476053E+02,      /* I = 96 */
(PID.TID 0000.0001)                 4.635509675007168E+01,      /* I = 97 */
(PID.TID 0000.0001)                 4.906731228843647E+01,      /* I = 98 */
(PID.TID 0000.0001)                 5.178550688214704E+01,      /* I = 99 */
(PID.TID 0000.0001)      . . .
(PID.TID 0000.0001)                -1.778001716525716E+02,      /* I =190 */
(PID.TID 0000.0001)                -1.779288225675308E+02,      /* I =191 */
(PID.TID 0000.0001)                -1.780367200854751E+02,      /* I =192 */
(PID.TID 0000.0001)                 1.356047800523947E+02,      /* I =193 */
(PID.TID 0000.0001)                 1.358367907661329E+02,      /* I =194 */
(PID.TID 0000.0001)                 1.359720382181193E+02,      /* I =195 */
(PID.TID 0000.0001)      . . .
(PID.TID 0000.0001)                -1.340279617818807E+02,      /* I =286 */
(PID.TID 0000.0001)                -1.341632092338671E+02,      /* I =287 */
(PID.TID 0000.0001)                -1.343952199476053E+02,      /* I =288 */
(PID.TID 0000.0001)                -8.812739148696656E+01,      /* I =289 */
(PID.TID 0000.0001)                -8.820362659721324E+01,      /* I =290 */
(PID.TID 0000.0001)                -8.826768106944316E+01,      /* I =291 */
(PID.TID 0000.0001)      . . .
(PID.TID 0000.0001)                 8.780017165257156E+01,      /* I =382 */
(PID.TID 0000.0001)                 8.792882256753080E+01,      /* I =383 */
(PID.TID 0000.0001)                 8.803672008547504E+01       /* I =384 */
(PID.TID 0000.0001)     ;
(PID.TID 0000.0001) yC =  /* yC(1,:,1,:) : P-point Y coord ( deg. or m if cartesian) */
(PID.TID 0000.0001)                -3.497677942598243E+01,      /* J =  1 */
(PID.TID 0000.0001)                -3.374005967394886E+01,      /* J =  2 */
(PID.TID 0000.0001)                -3.220655175667454E+01,      /* J =  3 */
(PID.TID 0000.0001)                -3.045756348838641E+01,      /* J =  4 */
(PID.TID 0000.0001)                -2.853728129852918E+01,      /* J =  5 */
(PID.TID 0000.0001)                -2.647426640173173E+01,      /* J =  6 */
(PID.TID 0000.0001)                -2.428936657094636E+01,      /* J =  7 */
(PID.TID 0000.0001)                -2.199915808312262E+01,      /* J =  8 */
(PID.TID 0000.0001)                -1.961768597440146E+01,      /* J =  9 */
(PID.TID 0000.0001)                -1.715743888281371E+01,      /* J = 10 */
(PID.TID 0000.0001)                -1.462993396899330E+01,      /* J = 11 */
(PID.TID 0000.0001)                -1.204608340464756E+01,      /* J = 12 */
(PID.TID 0000.0001)                -9.416429130284818E+00,      /* J = 13 */
(PID.TID 0000.0001)                -6.751293662992216E+00,      /* J = 14 */
(PID.TID 0000.0001)                -4.060875511835959E+00,      /* J = 15 */
(PID.TID 0000.0001)                -1.355307764409121E+00       /* J = 16 */
(PID.TID 0000.0001)     ;
(PID.TID 0000.0001) rcoord = /* P-point R coordinate (  units of r ) */
(PID.TID 0000.0001)                -2.500000000000000E+01,      /* K =  1 */
(PID.TID 0000.0001)                -8.500000000000000E+01,      /* K =  2 */
(PID.TID 0000.0001)                -1.700000000000000E+02,      /* K =  3 */
(PID.TID 0000.0001)                -2.900000000000000E+02,      /* K =  4 */
(PID.TID 0000.0001)                -4.550000000000000E+02,      /* K =  5 */
(PID.TID 0000.0001)                -6.700000000000000E+02,      /* K =  6 */
(PID.TID 0000.0001)                -9.350000000000000E+02,      /* K =  7 */
(PID.TID 0000.0001)                -1.250000000000000E+03,      /* K =  8 */
(PID.TID 0000.0001)                -1.615000000000000E+03,      /* K =  9 */
(PID.TID 0000.0001)                -2.030000000000000E+03,      /* K = 10 */
(PID.TID 0000.0001)                -2.495000000000000E+03,      /* K = 11 */
(PID.TID 0000.0001)                -3.010000000000000E+03,      /* K = 12 */
(PID.TID 0000.0001)                -3.575000000000000E+03,      /* K = 13 */
(PID.TID 0000.0001)                -4.190000000000000E+03,      /* K = 14 */
(PID.TID 0000.0001)                -4.855000000000000E+03       /* K = 15 */
(PID.TID 0000.0001)     ;
(PID.TID 0000.0001) rF =   /* W-Interf. R coordinate (  units of r ) */
(PID.TID 0000.0001)                 0.000000000000000E+00,      /* K =  1 */
(PID.TID 0000.0001)                -5.000000000000000E+01,      /* K =  2 */
(PID.TID 0000.0001)                -1.200000000000000E+02,      /* K =  3 */
(PID.TID 0000.0001)                -2.200000000000000E+02,      /* K =  4 */
(PID.TID 0000.0001)                -3.600000000000000E+02,      /* K =  5 */
(PID.TID 0000.0001)                -5.500000000000000E+02,      /* K =  6 */
(PID.TID 0000.0001)                -7.900000000000000E+02,      /* K =  7 */
(PID.TID 0000.0001)                -1.080000000000000E+03,      /* K =  8 */
(PID.TID 0000.0001)                -1.420000000000000E+03,      /* K =  9 */
(PID.TID 0000.0001)                -1.810000000000000E+03,      /* K = 10 */
(PID.TID 0000.0001)                -2.250000000000000E+03,      /* K = 11 */
(PID.TID 0000.0001)                -2.740000000000000E+03,      /* K = 12 */
(PID.TID 0000.0001)                -3.280000000000000E+03,      /* K = 13 */
(PID.TID 0000.0001)                -3.870000000000000E+03,      /* K = 14 */
(PID.TID 0000.0001)                -4.510000000000000E+03,      /* K = 15 */
(PID.TID 0000.0001)                -5.200000000000000E+03       /* K = 16 */
(PID.TID 0000.0001)     ;
(PID.TID 0000.0001) deepFacC = /* deep-model grid factor @ cell-Center (-) */
(PID.TID 0000.0001)    15 @  1.000000000000000E+00              /* K =  1: 15 */
(PID.TID 0000.0001)     ;
(PID.TID 0000.0001) deepFacF = /* deep-model grid factor @ W-Interface (-) */
(PID.TID 0000.0001)    16 @  1.000000000000000E+00              /* K =  1: 16 */
(PID.TID 0000.0001)     ;
(PID.TID 0000.0001) rVel2wUnit = /* convert units: rVel -> wSpeed (=1 if z-coord)*/
(PID.TID 0000.0001)    16 @  1.000000000000000E+00              /* K =  1: 16 */
(PID.TID 0000.0001)     ;
(PID.TID 0000.0001) wUnit2rVel = /* convert units: wSpeed -> rVel (=1 if z-coord)*/
(PID.TID 0000.0001)    16 @  1.000000000000000E+00              /* K =  1: 16 */
(PID.TID 0000.0001)     ;
(PID.TID 0000.0001) dBdrRef = /* Vertical grad. of reference buoyancy [(m/s/r)^2] */
(PID.TID 0000.0001)    15 @  0.000000000000000E+00              /* K =  1: 15 */
(PID.TID 0000.0001)     ;
(PID.TID 0000.0001) rotateGrid = /* use rotated grid ( True/False ) */
(PID.TID 0000.0001)                   F
(PID.TID 0000.0001)     ;
(PID.TID 0000.0001) phiEuler = /* Euler angle, rotation about original z-coordinate [rad] */
(PID.TID 0000.0001)                 0.000000000000000E+00
(PID.TID 0000.0001)     ;
(PID.TID 0000.0001) thetaEuler = /* Euler angle, rotation about new x-coordinate [rad] */
(PID.TID 0000.0001)                 0.000000000000000E+00
(PID.TID 0000.0001)     ;
(PID.TID 0000.0001) psiEuler = /* Euler angle, rotation about new z-coordinate [rad] */
(PID.TID 0000.0001)                 0.000000000000000E+00
(PID.TID 0000.0001)     ;
(PID.TID 0000.0001) dxF =  /* dxF(:,1,:,1) ( units: m ) */
(PID.TID 0000.0001)                 1.202082051331828E+05,      /* I =  1 */
(PID.TID 0000.0001)                 1.563594089971120E+05,      /* I =  2 */
(PID.TID 0000.0001)                 1.835530058121492E+05,      /* I =  3 */
(PID.TID 0000.0001)      . . .
(PID.TID 0000.0001)                 1.835530058121492E+05,      /* I = 94 */
(PID.TID 0000.0001)                 1.563594089971120E+05,      /* I = 95 */
(PID.TID 0000.0001)                 1.202082051331828E+05,      /* I = 96 */
(PID.TID 0000.0001)                 3.012844832048790E+05,      /* I = 97 */
(PID.TID 0000.0001)                 3.017314519159184E+05,      /* I = 98 */
(PID.TID 0000.0001)                 3.026061571839506E+05,      /* I = 99 */
(PID.TID 0000.0001)      . . .
(PID.TID 0000.0001)                 3.026061571839506E+05,      /* I =190 */
(PID.TID 0000.0001)                 3.017314519159184E+05,      /* I =191 */
(PID.TID 0000.0001)                 3.012844832048790E+05,      /* I =192 */
(PID.TID 0000.0001)                 1.202082051331828E+05,      /* I =193 */
(PID.TID 0000.0001)                 1.563594089971120E+05,      /* I =194 */
(PID.TID 0000.0001)                 1.835530058121492E+05,      /* I =195 */
(PID.TID 0000.0001)      . . .
(PID.TID 0000.0001)                 1.835530058121492E+05,      /* I =286 */
(PID.TID 0000.0001)                 1.563594089971120E+05,      /* I =287 */
(PID.TID 0000.0001)                 1.202082051331828E+05,      /* I =288 */
(PID.TID 0000.0001)                 3.012844832048790E+05,      /* I =289 */
(PID.TID 0000.0001)                 3.017314519159184E+05,      /* I =290 */
(PID.TID 0000.0001)                 3.026061571839506E+05,      /* I =291 */
(PID.TID 0000.0001)      . . .
(PID.TID 0000.0001)                 3.026061571839506E+05,      /* I =382 */
(PID.TID 0000.0001)                 3.017314519159184E+05,      /* I =383 */
(PID.TID 0000.0001)                 3.012844832048790E+05       /* I =384 */
(PID.TID 0000.0001)     ;
(PID.TID 0000.0001) dxF =  /* dxF(1,:,1,:) ( units: m ) */
(PID.TID 0000.0001)                 1.202082051331828E+05,      /* J =  1 */
(PID.TID 0000.0001)                 1.572908084538706E+05,      /* J =  2 */
(PID.TID 0000.0001)                 1.840412227747703E+05,      /* J =  3 */
(PID.TID 0000.0001)                 2.048868197919576E+05,      /* J =  4 */
(PID.TID 0000.0001)                 2.220405216043041E+05,      /* J =  5 */
(PID.TID 0000.0001)                 2.365892017348392E+05,      /* J =  6 */
(PID.TID 0000.0001)                 2.491250781852558E+05,      /* J =  7 */
(PID.TID 0000.0001)                 2.599949918261881E+05,      /* J =  8 */
(PID.TID 0000.0001)                 2.694110134598581E+05,      /* J =  9 */
(PID.TID 0000.0001)                 2.775055554645015E+05,      /* J = 10 */
(PID.TID 0000.0001)                 2.843615645344775E+05,      /* J = 11 */
(PID.TID 0000.0001)                 2.900303768613599E+05,      /* J = 12 */
(PID.TID 0000.0001)                 2.945429307892709E+05,      /* J = 13 */
(PID.TID 0000.0001)                 2.979171143158405E+05,      /* J = 14 */
(PID.TID 0000.0001)                 3.001626787528886E+05,      /* J = 15 */
(PID.TID 0000.0001)                 3.012844832048790E+05       /* J = 16 */
(PID.TID 0000.0001)     ;
(PID.TID 0000.0001) dyF =  /* dyF(:,1,:,1) ( units: m ) */
(PID.TID 0000.0001)                 1.202082051331828E+05,      /* I =  1 */
(PID.TID 0000.0001)                 1.572908084538706E+05,      /* I =  2 */
(PID.TID 0000.0001)                 1.840412227747703E+05,      /* I =  3 */
(PID.TID 0000.0001)      . . .
(PID.TID 0000.0001)                 1.840412227747703E+05,      /* I = 94 */
(PID.TID 0000.0001)                 1.572908084538706E+05,      /* I = 95 */
(PID.TID 0000.0001)                 1.202082051331828E+05,      /* I = 96 */
(PID.TID 0000.0001)                 3.012190981969055E+05,      /* I = 97 */
(PID.TID 0000.0001)                 3.016675528553907E+05,      /* I = 98 */
(PID.TID 0000.0001)                 3.025451404065074E+05,      /* I = 99 */
(PID.TID 0000.0001)      . . .
(PID.TID 0000.0001)                 3.025451404065074E+05,      /* I =190 */
(PID.TID 0000.0001)                 3.016675528553907E+05,      /* I =191 */
(PID.TID 0000.0001)                 3.012190981969055E+05,      /* I =192 */
(PID.TID 0000.0001)                 1.202082051331828E+05,      /* I =193 */
(PID.TID 0000.0001)                 1.572908084538706E+05,      /* I =194 */
(PID.TID 0000.0001)                 1.840412227747703E+05,      /* I =195 */
(PID.TID 0000.0001)      . . .
(PID.TID 0000.0001)                 1.840412227747703E+05,      /* I =286 */
(PID.TID 0000.0001)                 1.572908084538706E+05,      /* I =287 */
(PID.TID 0000.0001)                 1.202082051331828E+05,      /* I =288 */
(PID.TID 0000.0001)                 3.012190981969055E+05,      /* I =289 */
(PID.TID 0000.0001)                 3.016675528553907E+05,      /* I =290 */
(PID.TID 0000.0001)                 3.025451404065074E+05,      /* I =291 */
(PID.TID 0000.0001)      . . .
(PID.TID 0000.0001)                 3.025451404065074E+05,      /* I =382 */
(PID.TID 0000.0001)                 3.016675528553907E+05,      /* I =383 */
(PID.TID 0000.0001)                 3.012190981969055E+05       /* I =384 */
(PID.TID 0000.0001)     ;
(PID.TID 0000.0001) dyF =  /* dyF(1,:,1,:) ( units: m ) */
(PID.TID 0000.0001)                 1.202082051331828E+05,      /* J =  1 */
(PID.TID 0000.0001)                 1.563594089971120E+05,      /* J =  2 */
(PID.TID 0000.0001)                 1.835530058121492E+05,      /* J =  3 */
(PID.TID 0000.0001)                 2.045883481718707E+05,      /* J =  4 */
(PID.TID 0000.0001)                 2.218350349844185E+05,      /* J =  5 */
(PID.TID 0000.0001)                 2.364352994647058E+05,      /* J =  6 */
(PID.TID 0000.0001)                 2.490022710862746E+05,      /* J =  7 */
(PID.TID 0000.0001)                 2.598919724358304E+05,      /* J =  8 */
(PID.TID 0000.0001)                 2.693210245495156E+05,      /* J =  9 */
(PID.TID 0000.0001)                 2.774243179696503E+05,      /* J = 10 */
(PID.TID 0000.0001)                 2.842862532064524E+05,      /* J = 11 */
(PID.TID 0000.0001)                 2.899590699694043E+05,      /* J = 12 */
(PID.TID 0000.0001)                 2.944742915095688E+05,      /* J = 13 */
(PID.TID 0000.0001)                 2.978501920522794E+05,      /* J = 14 */
(PID.TID 0000.0001)                 3.000967749619962E+05,      /* J = 15 */
(PID.TID 0000.0001)                 3.012190981969055E+05       /* J = 16 */
(PID.TID 0000.0001)     ;
(PID.TID 0000.0001) dxG =  /* dxG(:,1,:,1) ( units: m ) */
(PID.TID 0000.0001)                 1.009837800879055E+05,      /* I =  1 */
(PID.TID 0000.0001)                 1.534505834330338E+05,      /* I =  2 */
(PID.TID 0000.0001)                 1.823321598773926E+05,      /* I =  3 */
(PID.TID 0000.0001)      . . .
(PID.TID 0000.0001)                 1.823321598773926E+05,      /* I = 94 */
(PID.TID 0000.0001)                 1.534505834330338E+05,      /* I = 95 */
(PID.TID 0000.0001)                 1.009837800879055E+05,      /* I = 96 */
(PID.TID 0000.0001)                 3.014246674484008E+05,      /* I = 97 */
(PID.TID 0000.0001)                 3.018694497480782E+05,      /* I = 98 */
(PID.TID 0000.0001)                 3.027399364062562E+05,      /* I = 99 */
(PID.TID 0000.0001)      . . .
(PID.TID 0000.0001)                 3.027399364062562E+05,      /* I =190 */
(PID.TID 0000.0001)                 3.018694497480782E+05,      /* I =191 */
(PID.TID 0000.0001)                 3.014246674484008E+05,      /* I =192 */
(PID.TID 0000.0001)                 1.009837800879055E+05,      /* I =193 */
(PID.TID 0000.0001)                 1.534505834330338E+05,      /* I =194 */
(PID.TID 0000.0001)                 1.823321598773926E+05,      /* I =195 */
(PID.TID 0000.0001)      . . .
(PID.TID 0000.0001)                 1.823321598773926E+05,      /* I =286 */
(PID.TID 0000.0001)                 1.534505834330338E+05,      /* I =287 */
(PID.TID 0000.0001)                 1.009837800879055E+05,      /* I =288 */
(PID.TID 0000.0001)                 3.014246674484008E+05,      /* I =289 */
(PID.TID 0000.0001)                 3.018694497480782E+05,      /* I =290 */
(PID.TID 0000.0001)                 3.027399364062562E+05,      /* I =291 */
(PID.TID 0000.0001)      . . .
(PID.TID 0000.0001)                 3.027399364062562E+05,      /* I =382 */
(PID.TID 0000.0001)                 3.018694497480782E+05,      /* I =383 */
(PID.TID 0000.0001)                 3.014246674484008E+05       /* I =384 */
(PID.TID 0000.0001)     ;
(PID.TID 0000.0001) dxG =  /* dxG(1,:,1,:) ( units: m ) */
(PID.TID 0000.0001)                 1.009837800879055E+05,      /* J =  1 */
(PID.TID 0000.0001)                 1.403701524205398E+05,      /* J =  2 */
(PID.TID 0000.0001)                 1.716197227386011E+05,      /* J =  3 */
(PID.TID 0000.0001)                 1.950254041626018E+05,      /* J =  4 */
(PID.TID 0000.0001)                 2.138410773065497E+05,      /* J =  5 */
(PID.TID 0000.0001)                 2.295958105911512E+05,      /* J =  6 */
(PID.TID 0000.0001)                 2.430829951739083E+05,      /* J =  7 */
(PID.TID 0000.0001)                 2.547526806712889E+05,      /* J =  8 */
(PID.TID 0000.0001)                 2.648750305193301E+05,      /* J =  9 */
(PID.TID 0000.0001)                 2.736173771018112E+05,      /* J = 10 */
(PID.TID 0000.0001)                 2.810845823202647E+05,      /* J = 11 */
(PID.TID 0000.0001)                 2.873420591008078E+05,      /* J = 12 */
(PID.TID 0000.0001)                 2.924298293668651E+05,      /* J = 13 */
(PID.TID 0000.0001)                 2.963715635865306E+05,      /* J = 14 */
(PID.TID 0000.0001)                 2.991805843171258E+05,      /* J = 15 */
(PID.TID 0000.0001)                 3.008638765647886E+05       /* J = 16 */
(PID.TID 0000.0001)     ;
(PID.TID 0000.0001) dyG =  /* dyG(:,1,:,1) ( units: m ) */
(PID.TID 0000.0001)                 1.009837800879055E+05,      /* I =  1 */
(PID.TID 0000.0001)                 1.403701524205398E+05,      /* I =  2 */
(PID.TID 0000.0001)                 1.716197227386011E+05,      /* I =  3 */
(PID.TID 0000.0001)      . . .
(PID.TID 0000.0001)                 1.950254041626018E+05,      /* I = 94 */
(PID.TID 0000.0001)                 1.716197227386011E+05,      /* I = 95 */
(PID.TID 0000.0001)                 1.403701524205398E+05,      /* I = 96 */
(PID.TID 0000.0001)                 3.011625828699101E+05,      /* I = 97 */
(PID.TID 0000.0001)                 3.013880313304323E+05,      /* I = 98 */
(PID.TID 0000.0001)                 3.020546438966793E+05,      /* I = 99 */
(PID.TID 0000.0001)      . . .
(PID.TID 0000.0001)                 3.031337933484788E+05,      /* I =190 */
(PID.TID 0000.0001)                 3.020546438966793E+05,      /* I =191 */
(PID.TID 0000.0001)                 3.013880313304323E+05,      /* I =192 */
(PID.TID 0000.0001)                 1.009837800879055E+05,      /* I =193 */
(PID.TID 0000.0001)                 1.403701524205398E+05,      /* I =194 */
(PID.TID 0000.0001)                 1.716197227386011E+05,      /* I =195 */
(PID.TID 0000.0001)      . . .
(PID.TID 0000.0001)                 1.950254041626018E+05,      /* I =286 */
(PID.TID 0000.0001)                 1.716197227386011E+05,      /* I =287 */
(PID.TID 0000.0001)                 1.403701524205398E+05,      /* I =288 */
(PID.TID 0000.0001)                 3.011625828699101E+05,      /* I =289 */
(PID.TID 0000.0001)                 3.013880313304323E+05,      /* I =290 */
(PID.TID 0000.0001)                 3.020546438966793E+05,      /* I =291 */
(PID.TID 0000.0001)      . . .
(PID.TID 0000.0001)                 3.031337933484788E+05,      /* I =382 */
(PID.TID 0000.0001)                 3.020546438966793E+05,      /* I =383 */
(PID.TID 0000.0001)                 3.013880313304323E+05       /* I =384 */
(PID.TID 0000.0001)     ;
(PID.TID 0000.0001) dyG =  /* dyG(1,:,1,:) ( units: m ) */
(PID.TID 0000.0001)                 1.009837800879055E+05,      /* J =  1 */
(PID.TID 0000.0001)                 1.534505834330338E+05,      /* J =  2 */
(PID.TID 0000.0001)                 1.823321598773926E+05,      /* J =  3 */
(PID.TID 0000.0001)                 2.038999045536999E+05,      /* J =  4 */
(PID.TID 0000.0001)                 2.213884732245467E+05,      /* J =  5 */
(PID.TID 0000.0001)                 2.361211699596122E+05,      /* J =  6 */
(PID.TID 0000.0001)                 2.487693460283865E+05,      /* J =  7 */
(PID.TID 0000.0001)                 2.597126963772147E+05,      /* J =  8 */
(PID.TID 0000.0001)                 2.691790288994575E+05,      /* J =  9 */
(PID.TID 0000.0001)                 2.773091043277394E+05,      /* J = 10 */
(PID.TID 0000.0001)                 2.841906470085516E+05,      /* J = 11 */
(PID.TID 0000.0001)                 2.898778860929753E+05,      /* J = 12 */
(PID.TID 0000.0001)                 2.944035815526416E+05,      /* J = 13 */
(PID.TID 0000.0001)                 2.977867909042096E+05,      /* J = 14 */
(PID.TID 0000.0001)                 3.000380090330854E+05,      /* J = 15 */
(PID.TID 0000.0001)                 3.011625828699101E+05       /* J = 16 */
(PID.TID 0000.0001)     ;
(PID.TID 0000.0001) dxC =  /* dxC(:,1,:,1) ( units: m ) */
(PID.TID 0000.0001)                 1.114203141013064E+05,      /* I =  1 */
(PID.TID 0000.0001)                 1.391343389937106E+05,      /* I =  2 */
(PID.TID 0000.0001)                 1.709574999026266E+05,      /* I =  3 */
(PID.TID 0000.0001)      . . .
(PID.TID 0000.0001)                 1.946503699269892E+05,      /* I = 94 */
(PID.TID 0000.0001)                 1.709574999026266E+05,      /* I = 95 */
(PID.TID 0000.0001)                 1.391343389937106E+05,      /* I = 96 */
(PID.TID 0000.0001)                 3.012281885409289E+05,      /* I = 97 */
(PID.TID 0000.0001)                 3.014528555318499E+05,      /* I = 98 */
(PID.TID 0000.0001)                 3.021172674809921E+05,      /* I = 99 */
(PID.TID 0000.0001)      . . .
(PID.TID 0000.0001)                 3.031928954490276E+05,      /* I =190 */
(PID.TID 0000.0001)                 3.021172674809921E+05,      /* I =191 */
(PID.TID 0000.0001)                 3.014528555318499E+05,      /* I =192 */
(PID.TID 0000.0001)                 1.114203141013064E+05,      /* I =193 */
(PID.TID 0000.0001)                 1.391343389937106E+05,      /* I =194 */
(PID.TID 0000.0001)                 1.709574999026266E+05,      /* I =195 */
(PID.TID 0000.0001)      . . .
(PID.TID 0000.0001)                 1.946503699269892E+05,      /* I =286 */
(PID.TID 0000.0001)                 1.709574999026266E+05,      /* I =287 */
(PID.TID 0000.0001)                 1.391343389937106E+05,      /* I =288 */
(PID.TID 0000.0001)                 3.012281885409289E+05,      /* I =289 */
(PID.TID 0000.0001)                 3.014528555318499E+05,      /* I =290 */
(PID.TID 0000.0001)                 3.021172674809921E+05,      /* I =291 */
(PID.TID 0000.0001)      . . .
(PID.TID 0000.0001)                 3.031928954490276E+05,      /* I =382 */
(PID.TID 0000.0001)                 3.021172674809921E+05,      /* I =383 */
(PID.TID 0000.0001)                 3.014528555318499E+05       /* I =384 */
(PID.TID 0000.0001)     ;
(PID.TID 0000.0001) dxC =  /* dxC(1,:,1,:) ( units: m ) */
(PID.TID 0000.0001)                 1.114203141013064E+05,      /* J =  1 */
(PID.TID 0000.0001)                 1.549545757850771E+05,      /* J =  2 */
(PID.TID 0000.0001)                 1.829777599966776E+05,      /* J =  3 */
(PID.TID 0000.0001)                 2.042717761866506E+05,      /* J =  4 */
(PID.TID 0000.0001)                 2.216367828252819E+05,      /* J =  5 */
(PID.TID 0000.0001)                 2.363029564123586E+05,      /* J =  6 */
(PID.TID 0000.0001)                 2.489113743322025E+05,      /* J =  7 */
(PID.TID 0000.0001)                 2.598293319150326E+05,      /* J =  8 */
(PID.TID 0000.0001)                 2.692787333338535E+05,      /* J =  9 */
(PID.TID 0000.0001)                 2.773972106720365E+05,      /* J = 10 */
(PID.TID 0000.0001)                 2.842706922224557E+05,      /* J = 11 */
(PID.TID 0000.0001)                 2.899523122489403E+05,      /* J = 12 */
(PID.TID 0000.0001)                 2.944741346384699E+05,      /* J = 13 */
(PID.TID 0000.0001)                 2.978547649292580E+05,      /* J = 14 */
(PID.TID 0000.0001)                 3.001044073506459E+05,      /* J = 15 */
(PID.TID 0000.0001)                 3.012281885409289E+05       /* J = 16 */
(PID.TID 0000.0001)     ;
(PID.TID 0000.0001) dyC =  /* dyC(:,1,:,1) ( units: m ) */
(PID.TID 0000.0001)                 1.114203141013064E+05,      /* I =  1 */
(PID.TID 0000.0001)                 1.549545757850771E+05,      /* I =  2 */
(PID.TID 0000.0001)                 1.829777599966776E+05,      /* I =  3 */
(PID.TID 0000.0001)      . . .
(PID.TID 0000.0001)                 1.829777599966776E+05,      /* I = 94 */
(PID.TID 0000.0001)                 1.549545757850771E+05,      /* I = 95 */
(PID.TID 0000.0001)                 1.114203141013064E+05,      /* I = 96 */
(PID.TID 0000.0001)                 3.013593857228136E+05,      /* I = 97 */
(PID.TID 0000.0001)                 3.018056440786431E+05,      /* I = 98 */
(PID.TID 0000.0001)                 3.026789946729719E+05,      /* I = 99 */
(PID.TID 0000.0001)      . . .
(PID.TID 0000.0001)                 3.026789946729719E+05,      /* I =190 */
(PID.TID 0000.0001)                 3.018056440786431E+05,      /* I =191 */
(PID.TID 0000.0001)                 3.013593857228136E+05,      /* I =192 */
(PID.TID 0000.0001)                 1.114203141013064E+05,      /* I =193 */
(PID.TID 0000.0001)                 1.549545757850771E+05,      /* I =194 */
(PID.TID 0000.0001)                 1.829777599966776E+05,      /* I =195 */
(PID.TID 0000.0001)      . . .
(PID.TID 0000.0001)                 1.829777599966776E+05,      /* I =286 */
(PID.TID 0000.0001)                 1.549545757850771E+05,      /* I =287 */
(PID.TID 0000.0001)                 1.114203141013064E+05,      /* I =288 */
(PID.TID 0000.0001)                 3.013593857228136E+05,      /* I =289 */
(PID.TID 0000.0001)                 3.018056440786431E+05,      /* I =290 */
(PID.TID 0000.0001)                 3.026789946729719E+05,      /* I =291 */
(PID.TID 0000.0001)      . . .
(PID.TID 0000.0001)                 3.026789946729719E+05,      /* I =382 */
(PID.TID 0000.0001)                 3.018056440786431E+05,      /* I =383 */
(PID.TID 0000.0001)                 3.013593857228136E+05       /* I =384 */
(PID.TID 0000.0001)     ;
(PID.TID 0000.0001) dyC =  /* dyC(1,:,1,:) ( units: m ) */
(PID.TID 0000.0001)                 1.114203141013064E+05,      /* J =  1 */
(PID.TID 0000.0001)                 1.391343389937106E+05,      /* J =  2 */
(PID.TID 0000.0001)                 1.709574999026266E+05,      /* J =  3 */
(PID.TID 0000.0001)                 1.946503699269892E+05,      /* J =  4 */
(PID.TID 0000.0001)                 2.135964483342134E+05,      /* J =  5 */
(PID.TID 0000.0001)                 2.294195678257306E+05,      /* J =  6 */
(PID.TID 0000.0001)                 2.429464709770498E+05,      /* J =  7 */
(PID.TID 0000.0001)                 2.546408290696998E+05,      /* J =  8 */
(PID.TID 0000.0001)                 2.647791839299727E+05,      /* J =  9 */
(PID.TID 0000.0001)                 2.735321911346108E+05,      /* J = 10 */
(PID.TID 0000.0001)                 2.810065951609633E+05,      /* J = 11 */
(PID.TID 0000.0001)                 2.872689479506990E+05,      /* J = 12 */
(PID.TID 0000.0001)                 2.923599955312932E+05,      /* J = 13 */
(PID.TID 0000.0001)                 2.963038832565530E+05,      /* J = 14 */
(PID.TID 0000.0001)                 2.991142470004740E+05,      /* J = 15 */
(PID.TID 0000.0001)                 3.007982711627968E+05       /* J = 16 */
(PID.TID 0000.0001)     ;
(PID.TID 0000.0001) dxV =  /* dxV(:,1,:,1) ( units: m ) */
(PID.TID 0000.0001)                 8.015229982413632E+04,      /* I =  1 */
(PID.TID 0000.0001)                 1.333130744933864E+05,      /* I =  2 */
(PID.TID 0000.0001)                 1.691744868129062E+05,      /* I =  3 */
(PID.TID 0000.0001)      . . .
(PID.TID 0000.0001)                 1.937548202849060E+05,      /* I = 94 */
(PID.TID 0000.0001)                 1.691744868129062E+05,      /* I = 95 */
(PID.TID 0000.0001)                 1.333130744933864E+05,      /* I = 96 */
(PID.TID 0000.0001)                 3.013686170436881E+05,      /* I = 97 */
(PID.TID 0000.0001)                 3.015922136961168E+05,      /* I = 98 */
(PID.TID 0000.0001)                 3.022533948177109E+05,      /* I = 99 */
(PID.TID 0000.0001)      . . .
(PID.TID 0000.0001)                 3.033238888442880E+05,      /* I =190 */
(PID.TID 0000.0001)                 3.022533948177109E+05,      /* I =191 */
(PID.TID 0000.0001)                 3.015922136961168E+05,      /* I =192 */
(PID.TID 0000.0001)                 8.015229982413632E+04,      /* I =193 */
(PID.TID 0000.0001)                 1.333130744933864E+05,      /* I =194 */
(PID.TID 0000.0001)                 1.691744868129062E+05,      /* I =195 */
(PID.TID 0000.0001)      . . .
(PID.TID 0000.0001)                 1.937548202849060E+05,      /* I =286 */
(PID.TID 0000.0001)                 1.691744868129062E+05,      /* I =287 */
(PID.TID 0000.0001)                 1.333130744933864E+05,      /* I =288 */
(PID.TID 0000.0001)                 3.013686170436881E+05,      /* I =289 */
(PID.TID 0000.0001)                 3.015922136961168E+05,      /* I =290 */
(PID.TID 0000.0001)                 3.022533948177109E+05,      /* I =291 */
(PID.TID 0000.0001)      . . .
(PID.TID 0000.0001)                 3.033238888442880E+05,      /* I =382 */
(PID.TID 0000.0001)                 3.022533948177109E+05,      /* I =383 */
(PID.TID 0000.0001)                 3.015922136961168E+05       /* I =384 */
(PID.TID 0000.0001)     ;
(PID.TID 0000.0001) dxV =  /* dxV(1,:,1,:) ( units: m ) */
(PID.TID 0000.0001)                 8.015229982413632E+04,      /* J =  1 */
(PID.TID 0000.0001)                 1.362652340208229E+05,      /* J =  2 */
(PID.TID 0000.0001)                 1.701080315742101E+05,      /* J =  3 */
(PID.TID 0000.0001)                 1.942331448101592E+05,      /* J =  4 */
(PID.TID 0000.0001)                 2.133486626971531E+05,      /* J =  5 */
(PID.TID 0000.0001)                 2.292584591272880E+05,      /* J =  6 */
(PID.TID 0000.0001)                 2.428369969078989E+05,      /* J =  7 */
(PID.TID 0000.0001)                 2.545652950875683E+05,      /* J =  8 */
(PID.TID 0000.0001)                 2.647274964828301E+05,      /* J =  9 */
(PID.TID 0000.0001)                 2.734980225206389E+05,      /* J = 10 */
(PID.TID 0000.0001)                 2.809856491525217E+05,      /* J = 11 */
(PID.TID 0000.0001)                 2.872580915202295E+05,      /* J = 12 */
(PID.TID 0000.0001)                 2.923567890694162E+05,      /* J = 13 */
(PID.TID 0000.0001)                 2.963063101754721E+05,      /* J = 14 */
(PID.TID 0000.0001)                 2.991205495886625E+05,      /* J = 15 */
(PID.TID 0000.0001)                 3.008068453676764E+05       /* J = 16 */
(PID.TID 0000.0001)     ;
(PID.TID 0000.0001) dyU =  /* dyU(:,1,:,1) ( units: m ) */
(PID.TID 0000.0001)                 8.015229982413632E+04,      /* I =  1 */
(PID.TID 0000.0001)                 1.362652340208229E+05,      /* I =  2 */
(PID.TID 0000.0001)                 1.701080315742101E+05,      /* I =  3 */
(PID.TID 0000.0001)      . . .
(PID.TID 0000.0001)                 1.942331448101592E+05,      /* I = 94 */
(PID.TID 0000.0001)                 1.701080315742101E+05,      /* I = 95 */
(PID.TID 0000.0001)                 1.362652340208229E+05,      /* I = 96 */
(PID.TID 0000.0001)                 3.013031486919771E+05,      /* I = 97 */
(PID.TID 0000.0001)                 3.015274890091515E+05,      /* I = 98 */
(PID.TID 0000.0001)                 3.021908563699420E+05,      /* I = 99 */
(PID.TID 0000.0001)      . . .
(PID.TID 0000.0001)                 3.032648502024415E+05,      /* I =190 */
(PID.TID 0000.0001)                 3.021908563699420E+05,      /* I =191 */
(PID.TID 0000.0001)                 3.015274890091515E+05,      /* I =192 */
(PID.TID 0000.0001)                 8.015229982413632E+04,      /* I =193 */
(PID.TID 0000.0001)                 1.362652340208229E+05,      /* I =194 */
(PID.TID 0000.0001)                 1.701080315742101E+05,      /* I =195 */
(PID.TID 0000.0001)      . . .
(PID.TID 0000.0001)                 1.942331448101592E+05,      /* I =286 */
(PID.TID 0000.0001)                 1.701080315742101E+05,      /* I =287 */
(PID.TID 0000.0001)                 1.362652340208229E+05,      /* I =288 */
(PID.TID 0000.0001)                 3.013031486919771E+05,      /* I =289 */
(PID.TID 0000.0001)                 3.015274890091515E+05,      /* I =290 */
(PID.TID 0000.0001)                 3.021908563699420E+05,      /* I =291 */
(PID.TID 0000.0001)      . . .
(PID.TID 0000.0001)                 3.032648502024415E+05,      /* I =382 */
(PID.TID 0000.0001)                 3.021908563699420E+05,      /* I =383 */
(PID.TID 0000.0001)                 3.015274890091515E+05       /* I =384 */
(PID.TID 0000.0001)     ;
(PID.TID 0000.0001) dyU =  /* dyU(1,:,1,:) ( units: m ) */
(PID.TID 0000.0001)                 8.015229982413632E+04,      /* J =  1 */
(PID.TID 0000.0001)                 1.333130744933864E+05,      /* J =  2 */
(PID.TID 0000.0001)                 1.691744868129062E+05,      /* J =  3 */
(PID.TID 0000.0001)                 1.937548202849060E+05,      /* J =  4 */
(PID.TID 0000.0001)                 2.130490056267208E+05,      /* J =  5 */
(PID.TID 0000.0001)                 2.290479919481738E+05,      /* J =  6 */
(PID.TID 0000.0001)                 2.426774358027003E+05,      /* J =  7 */
(PID.TID 0000.0001)                 2.544372984215561E+05,      /* J =  8 */
(PID.TID 0000.0001)                 2.646201463834826E+05,      /* J =  9 */
(PID.TID 0000.0001)                 2.734046499619031E+05,      /* J = 10 */
(PID.TID 0000.0001)                 2.809019351693761E+05,      /* J = 11 */
(PID.TID 0000.0001)                 2.871811105274442E+05,      /* J = 12 */
(PID.TID 0000.0001)                 2.922844849381675E+05,      /* J = 13 */
(PID.TID 0000.0001)                 2.962371870847826E+05,      /* J = 14 */
(PID.TID 0000.0001)                 2.990534755671296E+05,      /* J = 15 */
(PID.TID 0000.0001)                 3.007409169495504E+05       /* J = 16 */
(PID.TID 0000.0001)     ;
(PID.TID 0000.0001) rA  =  /* rA (:,1,:,1) ( units: m^2 ) */
(PID.TID 0000.0001)                 1.401900702255611E+10,      /* I =  1 */
(PID.TID 0000.0001)                 2.459906945574446E+10,      /* I =  2 */
(PID.TID 0000.0001)                 3.378518544307869E+10,      /* I =  3 */
(PID.TID 0000.0001)      . . .
(PID.TID 0000.0001)                 3.378518544304265E+10,      /* I = 94 */
(PID.TID 0000.0001)                 2.459906945574446E+10,      /* I = 95 */
(PID.TID 0000.0001)                 1.401900702259215E+10,      /* I = 96 */
(PID.TID 0000.0001)                 9.076111290422060E+10,      /* I = 97 */
(PID.TID 0000.0001)                 9.103111035233499E+10,      /* I = 98 */
(PID.TID 0000.0001)                 9.156064070993231E+10,      /* I = 99 */
(PID.TID 0000.0001)      . . .
(PID.TID 0000.0001)                 9.156064070993231E+10,      /* I =190 */
(PID.TID 0000.0001)                 9.103111035233499E+10,      /* I =191 */
(PID.TID 0000.0001)                 9.076111290418457E+10,      /* I =192 */
(PID.TID 0000.0001)                 1.401900702255611E+10,      /* I =193 */
(PID.TID 0000.0001)                 2.459906945574446E+10,      /* I =194 */
(PID.TID 0000.0001)                 3.378518544307869E+10,      /* I =195 */
(PID.TID 0000.0001)      . . .
(PID.TID 0000.0001)                 3.378518544304265E+10,      /* I =286 */
(PID.TID 0000.0001)                 2.459906945574446E+10,      /* I =287 */
(PID.TID 0000.0001)                 1.401900702259215E+10,      /* I =288 */
(PID.TID 0000.0001)                 9.076111290422060E+10,      /* I =289 */
(PID.TID 0000.0001)                 9.103111035233499E+10,      /* I =290 */
(PID.TID 0000.0001)                 9.156064070993231E+10,      /* I =291 */
(PID.TID 0000.0001)      . . .
(PID.TID 0000.0001)                 9.156064070993231E+10,      /* I =382 */
(PID.TID 0000.0001)                 9.103111035233499E+10,      /* I =383 */
(PID.TID 0000.0001)                 9.076111290418457E+10       /* I =384 */
(PID.TID 0000.0001)     ;
(PID.TID 0000.0001) rA  =  /* rA (1,:,1,:) ( units: m^2 ) */
(PID.TID 0000.0001)                 1.401900702255611E+10,      /* J =  1 */
(PID.TID 0000.0001)                 2.459906945574446E+10,      /* J =  2 */
(PID.TID 0000.0001)                 3.378518544307869E+10,      /* J =  3 */
(PID.TID 0000.0001)                 4.192037169898667E+10,      /* J =  4 */
(PID.TID 0000.0001)                 4.925938996118163E+10,      /* J =  5 */
(PID.TID 0000.0001)                 5.594154126607553E+10,      /* J =  6 */
(PID.TID 0000.0001)                 6.203683527776127E+10,      /* J =  7 */
(PID.TID 0000.0001)                 6.757541173817516E+10,      /* J =  8 */
(PID.TID 0000.0001)                 7.256353271748119E+10,      /* J =  9 */
(PID.TID 0000.0001)                 7.699293007098555E+10,      /* J = 10 */
(PID.TID 0000.0001)                 8.084683449728902E+10,      /* J = 11 */
(PID.TID 0000.0001)                 8.410423102799828E+10,      /* J = 12 */
(PID.TID 0000.0001)                 8.674306976737517E+10,      /* J = 13 */
(PID.TID 0000.0001)                 8.874277443041928E+10,      /* J = 14 */
(PID.TID 0000.0001)                 9.008620045350865E+10,      /* J = 15 */
(PID.TID 0000.0001)                 9.076111290418457E+10       /* J = 16 */
(PID.TID 0000.0001)     ;
(PID.TID 0000.0001) rAw =  /* rAw(:,1,:,1) ( units: m^2 ) */
(PID.TID 0000.0001)                 1.216690346714270E+10,      /* I =  1 */
(PID.TID 0000.0001)                 1.974052138506315E+10,      /* I =  2 */
(PID.TID 0000.0001)                 2.943712825252015E+10,      /* I =  3 */
(PID.TID 0000.0001)      . . .
(PID.TID 0000.0001)                 3.801790263325260E+10,      /* I = 94 */
(PID.TID 0000.0001)                 2.943712825251114E+10,      /* I = 95 */
(PID.TID 0000.0001)                 1.974052138509018E+10,      /* I = 96 */
(PID.TID 0000.0001)                 9.071447638299399E+10,      /* I = 97 */
(PID.TID 0000.0001)                 9.085012105610597E+10,      /* I = 98 */
(PID.TID 0000.0001)                 9.125179254955583E+10,      /* I = 99 */
(PID.TID 0000.0001)      . . .
(PID.TID 0000.0001)                 9.190392048045309E+10,      /* I =190 */
(PID.TID 0000.0001)                 9.125179254954683E+10,      /* I =191 */
(PID.TID 0000.0001)                 9.085012105606993E+10,      /* I =192 */
(PID.TID 0000.0001)                 1.216690346714270E+10,      /* I =193 */
(PID.TID 0000.0001)                 1.974052138506315E+10,      /* I =194 */
(PID.TID 0000.0001)                 2.943712825252015E+10,      /* I =195 */
(PID.TID 0000.0001)      . . .
(PID.TID 0000.0001)                 3.801790263325260E+10,      /* I =286 */
(PID.TID 0000.0001)                 2.943712825251114E+10,      /* I =287 */
(PID.TID 0000.0001)                 1.974052138509018E+10,      /* I =288 */
(PID.TID 0000.0001)                 9.071447638299399E+10,      /* I =289 */
(PID.TID 0000.0001)                 9.085012105610597E+10,      /* I =290 */
(PID.TID 0000.0001)                 9.125179254955583E+10,      /* I =291 */
(PID.TID 0000.0001)      . . .
(PID.TID 0000.0001)                 9.190392048045309E+10,      /* I =382 */
(PID.TID 0000.0001)                 9.125179254954683E+10,      /* I =383 */
(PID.TID 0000.0001)                 9.085012105606993E+10       /* I =384 */
(PID.TID 0000.0001)     ;
(PID.TID 0000.0001) rAw =  /* rAw(1,:,1,:) ( units: m^2 ) */
(PID.TID 0000.0001)                 1.216690346714270E+10,      /* J =  1 */
(PID.TID 0000.0001)                 2.390126200743558E+10,      /* J =  2 */
(PID.TID 0000.0001)                 3.341968103208270E+10,      /* J =  3 */
(PID.TID 0000.0001)                 4.168532893152940E+10,      /* J =  4 */
(PID.TID 0000.0001)                 4.909074590409593E+10,      /* J =  5 */
(PID.TID 0000.0001)                 5.581203765722643E+10,      /* J =  6 */
(PID.TID 0000.0001)                 6.193257577506788E+10,      /* J =  7 */
(PID.TID 0000.0001)                 6.748840226738273E+10,      /* J =  8 */
(PID.TID 0000.0001)                 7.248875782324815E+10,      /* J =  9 */
(PID.TID 0000.0001)                 7.692702995909871E+10,      /* J = 10 */
(PID.TID 0000.0001)                 8.078743937057304E+10,      /* J = 11 */
(PID.TID 0000.0001)                 8.404959656062837E+10,      /* J = 12 */
(PID.TID 0000.0001)                 8.669186205742538E+10,      /* J = 13 */
(PID.TID 0000.0001)                 8.869393350723613E+10,      /* J = 14 */
(PID.TID 0000.0001)                 9.003884657168852E+10,      /* J = 15 */
(PID.TID 0000.0001)                 9.071447638299399E+10       /* J = 16 */
(PID.TID 0000.0001)     ;
(PID.TID 0000.0001) rAs =  /* rAs(:,1,:,1) ( units: m^2 ) */
(PID.TID 0000.0001)                 1.216690346714270E+10,      /* I =  1 */
(PID.TID 0000.0001)                 2.390126200743558E+10,      /* I =  2 */
(PID.TID 0000.0001)                 3.341968103208270E+10,      /* I =  3 */
(PID.TID 0000.0001)      . . .
(PID.TID 0000.0001)                 3.341968103208270E+10,      /* I = 94 */
(PID.TID 0000.0001)                 2.390126200743558E+10,      /* I = 95 */
(PID.TID 0000.0001)                 1.216690346714270E+10,      /* I = 96 */
(PID.TID 0000.0001)                 9.083293515008307E+10,      /* I = 97 */
(PID.TID 0000.0001)                 9.110170898494536E+10,      /* I = 98 */
(PID.TID 0000.0001)                 9.162886297688426E+10,      /* I = 99 */
(PID.TID 0000.0001)      . . .
(PID.TID 0000.0001)                 9.162886297688426E+10,      /* I =190 */
(PID.TID 0000.0001)                 9.110170898494536E+10,      /* I =191 */
(PID.TID 0000.0001)                 9.083293515008307E+10,      /* I =192 */
(PID.TID 0000.0001)                 1.216690346714270E+10,      /* I =193 */
(PID.TID 0000.0001)                 2.390126200743558E+10,      /* I =194 */
(PID.TID 0000.0001)                 3.341968103208270E+10,      /* I =195 */
(PID.TID 0000.0001)      . . .
(PID.TID 0000.0001)                 3.341968103208270E+10,      /* I =286 */
(PID.TID 0000.0001)                 2.390126200743558E+10,      /* I =287 */
(PID.TID 0000.0001)                 1.216690346714270E+10,      /* I =288 */
(PID.TID 0000.0001)                 9.083293515008307E+10,      /* I =289 */
(PID.TID 0000.0001)                 9.110170898494536E+10,      /* I =290 */
(PID.TID 0000.0001)                 9.162886297688426E+10,      /* I =291 */
(PID.TID 0000.0001)      . . .
(PID.TID 0000.0001)                 9.162886297688426E+10,      /* I =382 */
(PID.TID 0000.0001)                 9.110170898494536E+10,      /* I =383 */
(PID.TID 0000.0001)                 9.083293515008307E+10       /* I =384 */
(PID.TID 0000.0001)     ;
(PID.TID 0000.0001) rAs =  /* rAs(1,:,1,:) ( units: m^2 ) */
(PID.TID 0000.0001)                 1.216690346714270E+10,      /* J =  1 */
(PID.TID 0000.0001)                 1.974052138506315E+10,      /* J =  2 */
(PID.TID 0000.0001)                 2.943712825252015E+10,      /* J =  3 */
(PID.TID 0000.0001)                 3.801790263324359E+10,      /* J =  4 */
(PID.TID 0000.0001)                 4.571243814189866E+10,      /* J =  5 */
(PID.TID 0000.0001)                 5.269930713599979E+10,      /* J =  6 */
(PID.TID 0000.0001)                 5.907428494299063E+10,      /* J =  7 */
(PID.TID 0000.0001)                 6.488320895111514E+10,      /* J =  8 */
(PID.TID 0000.0001)                 7.014205907741882E+10,      /* J =  9 */
(PID.TID 0000.0001)                 7.484854821847499E+10,      /* J = 10 */
(PID.TID 0000.0001)                 7.898934631431560E+10,      /* J = 11 */
(PID.TID 0000.0001)                 8.254500894894537E+10,      /* J = 12 */
(PID.TID 0000.0001)                 8.549360686473492E+10,      /* J = 13 */
(PID.TID 0000.0001)                 8.781353403175085E+10,      /* J = 14 */
(PID.TID 0000.0001)                 8.948571540392021E+10,      /* J = 15 */
(PID.TID 0000.0001)                 9.049530583086168E+10       /* J = 16 */
(PID.TID 0000.0001)     ;
(PID.TID 0000.0001) globalArea = /* Integrated horizontal Area (m^2) */
(PID.TID 0000.0001)                 3.638867375081599E+14
(PID.TID 0000.0001)     ;
(PID.TID 0000.0001) // =======================================================
(PID.TID 0000.0001) // End of Model config. summary
(PID.TID 0000.0001) // =======================================================
(PID.TID 0000.0001) 
(PID.TID 0000.0001) == Packages configuration : Check & print summary ==
(PID.TID 0000.0001) 
(PID.TID 0000.0001) GMREDI_CHECK: #define GMREDI
(PID.TID 0000.0001) GM_AdvForm =     /* if FALSE => use SkewFlux Form */
(PID.TID 0000.0001)                   F
(PID.TID 0000.0001)     ;
(PID.TID 0000.0001) GM_InMomAsStress = /* if TRUE => apply as Eddy Stress */
(PID.TID 0000.0001)                   F
(PID.TID 0000.0001)     ;
(PID.TID 0000.0001) GM_AdvSeparate = /* Calc Bolus & Euler Adv. separately */
(PID.TID 0000.0001)                   F
(PID.TID 0000.0001)     ;
(PID.TID 0000.0001) GM_ExtraDiag =   /* Tensor Extra Diag (line 1&2) non 0 */
(PID.TID 0000.0001)                   F
(PID.TID 0000.0001)     ;
(PID.TID 0000.0001) GM_isopycK =    /* Background Isopyc. Diffusivity [m^2/s] */
(PID.TID 0000.0001)                 1.000000000000000E+03
(PID.TID 0000.0001)     ;
(PID.TID 0000.0001) GM_skewflx*K =  /* Background GM_SkewFlx Diffusivity [m^2/s] */
(PID.TID 0000.0001)                 1.000000000000000E+03
(PID.TID 0000.0001)     ;
(PID.TID 0000.0001) GM_advec*K =    /* Backg. GM-Advec(=Bolus) Diffusivity [m^2/s]*/
(PID.TID 0000.0001)                 0.000000000000000E+00
(PID.TID 0000.0001)     ;
(PID.TID 0000.0001) GM_Kmin_horiz = /* Minimum Horizontal Diffusivity [m^2/s] */
(PID.TID 0000.0001)                 5.000000000000000E+01
(PID.TID 0000.0001)     ;
(PID.TID 0000.0001) GM_Visbeck_alpha = /* Visbeck alpha coeff. [-] */
(PID.TID 0000.0001)                 0.000000000000000E+00
(PID.TID 0000.0001)     ;
(PID.TID 0000.0001) GM_Small_Number =  /* epsilon used in slope calc */
(PID.TID 0000.0001)                 9.999999999999999E-21
(PID.TID 0000.0001)     ;
(PID.TID 0000.0001) GM_slopeSqCutoff = /* Slope^2 cut-off value */
(PID.TID 0000.0001)                 1.000000000000000E+08
(PID.TID 0000.0001)     ;
(PID.TID 0000.0001) GM_taper_scheme =  /* Type of Tapering/Clipping scheme */
(PID.TID 0000.0001)               'dm95                                    '
(PID.TID 0000.0001)     ;
(PID.TID 0000.0001) GM_maxSlope =  /* Maximum Slope (Tapering/Clipping) */
(PID.TID 0000.0001)                 1.000000000000000E-02
(PID.TID 0000.0001)     ;
(PID.TID 0000.0001) GM_facTrL2dz = /* Minimum Trans.Layer Thick. (factor of dz) */
(PID.TID 0000.0001)                 1.000000000000000E+00
(PID.TID 0000.0001)     ;
(PID.TID 0000.0001) GM_facTrL2ML = /* Max.Trans.Layer Thick. (factor of MxL Depth)*/
(PID.TID 0000.0001)                 5.000000000000000E+00
(PID.TID 0000.0001)     ;
(PID.TID 0000.0001) GM_maxTransLay = /* Maximum Transition Layer Thickness [m] */
(PID.TID 0000.0001)                 5.000000000000000E+02
(PID.TID 0000.0001)     ;
(PID.TID 0000.0001) GM_UseBVP = /* if TRUE => use bvp a la Ferrari et al. (2010) */
(PID.TID 0000.0001)                   F
(PID.TID 0000.0001)     ;
(PID.TID 0000.0001) GM_BVP_ModeNumber = /* Vertical mode number for BVP wave speed */
(PID.TID 0000.0001)                       1
(PID.TID 0000.0001)     ;
(PID.TID 0000.0001) GM_BVP_cMin = /* Minimum wave speed for BVP [m/s] */
(PID.TID 0000.0001)                 1.000000000000000E-01
(PID.TID 0000.0001)     ;
(PID.TID 0000.0001) GM_useSubMeso = /* if TRUE => use Sub-Meso param. (B.Fox-Kemper) */
(PID.TID 0000.0001)                   F
(PID.TID 0000.0001)     ;
(PID.TID 0000.0001) subMeso_Ceff = /* efficiency coeff. of Mixed-Layer Eddies [-] */
(PID.TID 0000.0001)                 7.000000000000001E-02
(PID.TID 0000.0001)     ;
(PID.TID 0000.0001) subMeso_invTau = /* inverse of Sub-Meso mixing time-scale [/s] */
(PID.TID 0000.0001)                 2.000000000000000E-06
(PID.TID 0000.0001)     ;
(PID.TID 0000.0001) subMeso_LfMin = /* minimum length-scale "Lf" [m] */
(PID.TID 0000.0001)                 1.000000000000000E+03
(PID.TID 0000.0001)     ;
(PID.TID 0000.0001) subMeso_Lmax = /* maximum grid-scale length [m] */
(PID.TID 0000.0001)                 1.100000000000000E+05
(PID.TID 0000.0001)     ;
(PID.TID 0000.0001) CTRL_CHECK: ctrl package
(PID.TID 0000.0001) COST_CHECK: cost package
(PID.TID 0000.0001) GRDCHK_CHECK: grdchk package
(PID.TID 0000.0001) GAD_CHECK: #define ALLOW_GENERIC_ADVDIFF
(PID.TID 0000.0001) // =======================================================
(PID.TID 0000.0001) // CONFIG_CHECK : Normal End
(PID.TID 0000.0001) // =======================================================
(PID.TID 0000.0001) 
(PID.TID 0000.0001) INI_CG2D: CG2D normalisation factor =  1.9156564154949553E-04
(PID.TID 0000.0001) INI_CG2D: cg2dTolerance = 5.809016360175296E-07 (Area=3.6388673751E+14)
(PID.TID 0000.0001) 
(PID.TID 0000.0001)  nRecords = 123 ; filePrec =  64 ; fileIter =     72000
(PID.TID 0000.0001)     nDims =   2 , dims:
(PID.TID 0000.0001)    1: 192   1 192
(PID.TID 0000.0001)    2:  32   1  32
(PID.TID 0000.0001)     nFlds =  11 , nFl3D =   8 , fields:
(PID.TID 0000.0001)  >Uvel    < >GuNm1   < >Vvel    < >GvNm1   < >Theta   < >GtNm1   < >Salt    < >GsNm1   < >EtaN    < >dEtaHdt < >EtaH    <
(PID.TID 0000.0001)   nTimRec =   0 , timeList:
(PID.TID 0000.0001) READ_MFLDS_3D_RL: read field: "Uvel    ", #   1 in fldList, rec=   1
(PID.TID 0000.0001) READ_MFLDS_3D_RL: read field: "Vvel    ", #   3 in fldList, rec=   3
(PID.TID 0000.0001) READ_MFLDS_3D_RL: read field: "Theta   ", #   5 in fldList, rec=   5
(PID.TID 0000.0001) READ_MFLDS_3D_RL: read field: "Salt    ", #   7 in fldList, rec=   7
(PID.TID 0000.0001) READ_MFLDS_3D_RL: read field: "GuNm1   ", #   2 in fldList, rec=   2
(PID.TID 0000.0001) READ_MFLDS_3D_RL: field: "GuNm2   " missing in file: pickup.0000072000
(PID.TID 0000.0001) READ_MFLDS_3D_RL: read field: "GvNm1   ", #   4 in fldList, rec=   4
(PID.TID 0000.0001) READ_MFLDS_3D_RL: field: "GvNm2   " missing in file: pickup.0000072000
(PID.TID 0000.0001) READ_MFLDS_3D_RL: read field: "EtaN    ", #   9 in fldList, rec= 121
(PID.TID 0000.0001) READ_MFLDS_3D_RL: read field: "dEtaHdt ", #  10 in fldList, rec= 122
(PID.TID 0000.0001) READ_MFLDS_3D_RL: read field: "EtaH    ", #  11 in fldList, rec= 123
(PID.TID 0000.0001) // =======================================================
(PID.TID 0000.0001) // Begin MONITOR dynamic field statistics
(PID.TID 0000.0001) // =======================================================
(PID.TID 0000.0001) %MON time_tsnumber                =                 72000
(PID.TID 0000.0001) %MON time_secondsf                =   6.2208000000000E+09
(PID.TID 0000.0001) %MON dynstat_eta_max              =   9.2249308874653E-01
(PID.TID 0000.0001) %MON dynstat_eta_min              =  -1.6181619580030E+00
(PID.TID 0000.0001) %MON dynstat_eta_mean             =   1.4386344596806E-14
(PID.TID 0000.0001) %MON dynstat_eta_sd               =   5.9907976973986E-01
(PID.TID 0000.0001) %MON dynstat_eta_del2             =   7.8581345364806E-04
(PID.TID 0000.0001) %MON dynstat_uvel_max             =   1.8639442347386E-01
(PID.TID 0000.0001) %MON dynstat_uvel_min             =  -2.8803502100767E-01
(PID.TID 0000.0001) %MON dynstat_uvel_mean            =  -4.8914430325890E-04
(PID.TID 0000.0001) %MON dynstat_uvel_sd              =   1.2021379389426E-02
(PID.TID 0000.0001) %MON dynstat_uvel_del2            =   5.1214215649781E-05
(PID.TID 0000.0001) %MON dynstat_vvel_max             =   1.7346247050018E-01
(PID.TID 0000.0001) %MON dynstat_vvel_min             =  -2.2519444280963E-01
(PID.TID 0000.0001) %MON dynstat_vvel_mean            =  -4.0398186384005E-04
(PID.TID 0000.0001) %MON dynstat_vvel_sd              =   1.2638380334010E-02
(PID.TID 0000.0001) %MON dynstat_vvel_del2            =   5.0639130168720E-05
(PID.TID 0000.0001) %MON dynstat_wvel_max             =   1.0315419012187E-04
(PID.TID 0000.0001) %MON dynstat_wvel_min             =  -2.0412353696425E-04
(PID.TID 0000.0001) %MON dynstat_wvel_mean            =  -7.5426404424407E-23
(PID.TID 0000.0001) %MON dynstat_wvel_sd              =   3.8379860233396E-06
(PID.TID 0000.0001) %MON dynstat_wvel_del2            =   2.6456681169339E-08
(PID.TID 0000.0001) %MON dynstat_theta_max            =   3.0925958904704E+01
(PID.TID 0000.0001) %MON dynstat_theta_min            =  -2.0000000000000E+00
(PID.TID 0000.0001) %MON dynstat_theta_mean           =   3.9091312053343E+00
(PID.TID 0000.0001) %MON dynstat_theta_sd             =   4.5711433204032E+00
(PID.TID 0000.0001) %MON dynstat_theta_del2           =   2.6589242567180E-03
(PID.TID 0000.0001) %MON dynstat_salt_max             =   4.1386265990462E+01
(PID.TID 0000.0001) %MON dynstat_salt_min             =   1.8383410676806E+01
(PID.TID 0000.0001) %MON dynstat_salt_mean            =   3.4772068623474E+01
(PID.TID 0000.0001) %MON dynstat_salt_sd              =   5.3145226117181E-01
(PID.TID 0000.0001) %MON dynstat_salt_del2            =   8.0693627005697E-04
(PID.TID 0000.0001) %MON forcing_qnet_max             =   4.6211611868841E+02
(PID.TID 0000.0001) %MON forcing_qnet_min             =  -2.0410376912710E+02
(PID.TID 0000.0001) %MON forcing_qnet_mean            =  -1.2329247921290E+01
(PID.TID 0000.0001) %MON forcing_qnet_sd              =   1.1327998988989E+02
(PID.TID 0000.0001) %MON forcing_qnet_del2            =   4.4323506322358E-01
(PID.TID 0000.0001) %MON forcing_qsw_max              =   0.0000000000000E+00
(PID.TID 0000.0001) %MON forcing_qsw_min              =   0.0000000000000E+00
(PID.TID 0000.0001) %MON forcing_qsw_mean             =   0.0000000000000E+00
(PID.TID 0000.0001) %MON forcing_qsw_sd               =   0.0000000000000E+00
(PID.TID 0000.0001) %MON forcing_qsw_del2             =   0.0000000000000E+00
(PID.TID 0000.0001) %MON forcing_empmr_max            =   0.0000000000000E+00
(PID.TID 0000.0001) %MON forcing_empmr_min            =   0.0000000000000E+00
(PID.TID 0000.0001) %MON forcing_empmr_mean           =   0.0000000000000E+00
(PID.TID 0000.0001) %MON forcing_empmr_sd             =   0.0000000000000E+00
(PID.TID 0000.0001) %MON forcing_empmr_del2           =   0.0000000000000E+00
(PID.TID 0000.0001) %MON forcing_fu_max               =   2.4892781143428E-01
(PID.TID 0000.0001) %MON forcing_fu_min               =  -2.5159107438040E-01
(PID.TID 0000.0001) %MON forcing_fu_mean              =  -3.8956966288612E-03
(PID.TID 0000.0001) %MON forcing_fu_sd                =   6.5480383395885E-02
(PID.TID 0000.0001) %MON forcing_fu_del2              =   2.3114393556995E-04
(PID.TID 0000.0001) %MON forcing_fv_max               =   2.9305960402537E-01
(PID.TID 0000.0001) %MON forcing_fv_min               =  -3.3950131228473E-01
(PID.TID 0000.0001) %MON forcing_fv_mean              =  -1.3743384707768E-02
(PID.TID 0000.0001) %MON forcing_fv_sd                =   7.6816469815204E-02
(PID.TID 0000.0001) %MON forcing_fv_del2              =   2.5671701728584E-04
(PID.TID 0000.0001) %MON advcfl_uvel_max              =   8.1692195603793E-02
(PID.TID 0000.0001) %MON advcfl_vvel_max              =   7.5609847114589E-02
(PID.TID 0000.0001) %MON advcfl_wvel_max              =   6.6551975825327E-02
(PID.TID 0000.0001) %MON advcfl_W_hf_max              =   7.3511900279873E-02
(PID.TID 0000.0001) %MON pe_b_mean                    =   4.7811655460464E-04
(PID.TID 0000.0001) %MON ke_max                       =   4.0700637549387E-02
(PID.TID 0000.0001) %MON ke_mean                      =   1.4067882101803E-04
(PID.TID 0000.0001) %MON ke_vol                       =   1.3398024453628E+18
(PID.TID 0000.0001) %MON vort_r_min                   =  -1.1843904755479E-06
(PID.TID 0000.0001) %MON vort_r_max                   =   1.2148454936551E-06
(PID.TID 0000.0001) %MON vort_a_mean                  =  -2.0493733748264E-05
(PID.TID 0000.0001) %MON vort_a_sd                    =   7.5053947910691E-05
(PID.TID 0000.0001) %MON vort_p_mean                  =  -2.4715773639925E-05
(PID.TID 0000.0001) %MON vort_p_sd                    =   1.2777078256013E-04
(PID.TID 0000.0001) %MON surfExpan_theta_mean         =   3.3855955095235E-08
(PID.TID 0000.0001) %MON surfExpan_salt_mean          =   1.3163665490079E-08
(PID.TID 0000.0001) // =======================================================
(PID.TID 0000.0001) // End MONITOR dynamic field statistics
(PID.TID 0000.0001) // =======================================================
 EXTERNAL_FIELDS_LOAD, it=     72000 : Reading new data, i0,i1=   12    1 (prev=   12    0 )
(PID.TID 0000.0001) SOLVE_FOR_PRESSURE: putPmEinXvector =    F
 cg2d: Sum(rhs),rhsMax =  -9.66338120633736E-12  4.27829651258201E+00
(PID.TID 0000.0001)                    cg2d_init_res =    1.97996442300056E-01
(PID.TID 0000.0001)                       cg2d_iters =    62
(PID.TID 0000.0001)                         cg2d_res =    5.28010244415989E-07
(PID.TID 0000.0001) // =======================================================
(PID.TID 0000.0001) // Begin MONITOR dynamic field statistics
(PID.TID 0000.0001) // =======================================================
(PID.TID 0000.0001) %MON time_tsnumber                =                 72001
(PID.TID 0000.0001) %MON time_secondsf                =   6.2208864000000E+09
(PID.TID 0000.0001) %MON dynstat_eta_max              =   9.1995572046866E-01
(PID.TID 0000.0001) %MON dynstat_eta_min              =  -1.6208656660430E+00
(PID.TID 0000.0001) %MON dynstat_eta_mean             =   1.4193977047279E-14
(PID.TID 0000.0001) %MON dynstat_eta_sd               =   5.9887315476673E-01
(PID.TID 0000.0001) %MON dynstat_eta_del2             =   7.9094050873445E-04
(PID.TID 0000.0001) %MON dynstat_uvel_max             =   1.8679494007781E-01
(PID.TID 0000.0001) %MON dynstat_uvel_min             =  -2.8776754891783E-01
(PID.TID 0000.0001) %MON dynstat_uvel_mean            =  -4.8899237825530E-04
(PID.TID 0000.0001) %MON dynstat_uvel_sd              =   1.2021281622921E-02
(PID.TID 0000.0001) %MON dynstat_uvel_del2            =   5.1199702711979E-05
(PID.TID 0000.0001) %MON dynstat_vvel_max             =   1.7379352572600E-01
(PID.TID 0000.0001) %MON dynstat_vvel_min             =  -2.2518089168121E-01
(PID.TID 0000.0001) %MON dynstat_vvel_mean            =  -4.0402669134000E-04
(PID.TID 0000.0001) %MON dynstat_vvel_sd              =   1.2641361726340E-02
(PID.TID 0000.0001) %MON dynstat_vvel_del2            =   5.0605320446836E-05
(PID.TID 0000.0001) %MON dynstat_wvel_max             =   1.0316903234604E-04
(PID.TID 0000.0001) %MON dynstat_wvel_min             =  -2.0439123329301E-04
(PID.TID 0000.0001) %MON dynstat_wvel_mean            =   2.8552076608107E-10
(PID.TID 0000.0001) %MON dynstat_wvel_sd              =   3.8359890728016E-06
(PID.TID 0000.0001) %MON dynstat_wvel_del2            =   2.6453775023320E-08
(PID.TID 0000.0001) %MON dynstat_theta_max            =   3.0937518037539E+01
(PID.TID 0000.0001) %MON dynstat_theta_min            =  -2.0035155663676E+00
(PID.TID 0000.0001) %MON dynstat_theta_mean           =   3.9091888334654E+00
(PID.TID 0000.0001) %MON dynstat_theta_sd             =   4.5710990129395E+00
(PID.TID 0000.0001) %MON dynstat_theta_del2           =   2.6413752718205E-03
(PID.TID 0000.0001) %MON dynstat_salt_max             =   4.1386683836132E+01
(PID.TID 0000.0001) %MON dynstat_salt_min             =   1.8383742758719E+01
(PID.TID 0000.0001) %MON dynstat_salt_mean            =   3.4772069007215E+01
(PID.TID 0000.0001) %MON dynstat_salt_sd              =   5.3143499902145E-01
(PID.TID 0000.0001) %MON dynstat_salt_del2            =   8.0250298733687E-04
(PID.TID 0000.0001) %MON forcing_qnet_max             =   4.5344826813507E+02
(PID.TID 0000.0001) %MON forcing_qnet_min             =  -2.1502574251756E+02
(PID.TID 0000.0001) %MON forcing_qnet_mean            =  -1.2145822391644E+01
(PID.TID 0000.0001) %MON forcing_qnet_sd              =   1.1565376981455E+02
(PID.TID 0000.0001) %MON forcing_qnet_del2            =   4.1640148928199E-01
(PID.TID 0000.0001) %MON forcing_qsw_max              =   0.0000000000000E+00
(PID.TID 0000.0001) %MON forcing_qsw_min              =   0.0000000000000E+00
(PID.TID 0000.0001) %MON forcing_qsw_mean             =   0.0000000000000E+00
(PID.TID 0000.0001) %MON forcing_qsw_sd               =   0.0000000000000E+00
(PID.TID 0000.0001) %MON forcing_qsw_del2             =   0.0000000000000E+00
(PID.TID 0000.0001) %MON forcing_empmr_max            =   7.6494447208479E-05
(PID.TID 0000.0001) %MON forcing_empmr_min            =  -1.5362614137596E-04
(PID.TID 0000.0001) %MON forcing_empmr_mean           =  -2.7256318706594E-21
(PID.TID 0000.0001) %MON forcing_empmr_sd             =   2.4051723601802E-05
(PID.TID 0000.0001) %MON forcing_empmr_del2           =   1.2276157049243E-07
(PID.TID 0000.0001) %MON forcing_fu_max               =   2.4760613571392E-01
(PID.TID 0000.0001) %MON forcing_fu_min               =  -2.0293190974520E-01
(PID.TID 0000.0001) %MON forcing_fu_mean              =  -4.5478806648627E-03
(PID.TID 0000.0001) %MON forcing_fu_sd                =   6.3937396831278E-02
(PID.TID 0000.0001) %MON forcing_fu_del2              =   2.0509729664672E-04
(PID.TID 0000.0001) %MON forcing_fv_max               =   2.5281098043587E-01
(PID.TID 0000.0001) %MON forcing_fv_min               =  -3.2691992401999E-01
(PID.TID 0000.0001) %MON forcing_fv_mean              =  -1.3684501518858E-02
(PID.TID 0000.0001) %MON forcing_fv_sd                =   7.5153512230531E-02
(PID.TID 0000.0001) %MON forcing_fv_del2              =   2.3373863441584E-04
(PID.TID 0000.0001) %MON advcfl_uvel_max              =   8.1616335445521E-02
(PID.TID 0000.0001) %MON advcfl_vvel_max              =   7.5754149423549E-02
(PID.TID 0000.0001) %MON advcfl_wvel_max              =   6.6639254930249E-02
(PID.TID 0000.0001) %MON advcfl_W_hf_max              =   7.3608320184015E-02
(PID.TID 0000.0001) %MON pe_b_mean                    =   4.7778681886976E-04
(PID.TID 0000.0001) %MON ke_max                       =   4.0599306491268E-02
(PID.TID 0000.0001) %MON ke_mean                      =   1.4071264753199E-04
(PID.TID 0000.0001) %MON ke_vol                       =   1.3398024453628E+18
(PID.TID 0000.0001) %MON vort_r_min                   =  -1.1880200923833E-06
(PID.TID 0000.0001) %MON vort_r_max                   =   1.2156200537852E-06
(PID.TID 0000.0001) %MON vort_a_mean                  =  -2.0493733748264E-05
(PID.TID 0000.0001) %MON vort_a_sd                    =   7.5053947739503E-05
(PID.TID 0000.0001) %MON vort_p_mean                  =  -2.4715773632851E-05
(PID.TID 0000.0001) %MON vort_p_sd                    =   1.2777077923654E-04
(PID.TID 0000.0001) %MON surfExpan_theta_mean         =   3.5393919886707E-08
(PID.TID 0000.0001) %MON surfExpan_salt_mean          =   1.3180613424288E-08
(PID.TID 0000.0001) // =======================================================
(PID.TID 0000.0001) // End MONITOR dynamic field statistics
(PID.TID 0000.0001) // =======================================================
 cg2d: Sum(rhs),rhsMax =  -9.69180291576777E-12  4.27316012227202E+00
(PID.TID 0000.0001)                    cg2d_init_res =    4.63532392364970E-01
(PID.TID 0000.0001)                       cg2d_iters =    63
(PID.TID 0000.0001)                         cg2d_res =    5.78166476718081E-07
(PID.TID 0000.0001) // =======================================================
(PID.TID 0000.0001) // Begin MONITOR dynamic field statistics
(PID.TID 0000.0001) // =======================================================
(PID.TID 0000.0001) %MON time_tsnumber                =                 72002
(PID.TID 0000.0001) %MON time_secondsf                =   6.2209728000000E+09
(PID.TID 0000.0001) %MON dynstat_eta_max              =   9.1814291634744E-01
(PID.TID 0000.0001) %MON dynstat_eta_min              =  -1.6199306806611E+00
(PID.TID 0000.0001) %MON dynstat_eta_mean             =   1.4496268910822E-14
(PID.TID 0000.0001) %MON dynstat_eta_sd               =   5.9860163336739E-01
(PID.TID 0000.0001) %MON dynstat_eta_del2             =   7.9058491781919E-04
(PID.TID 0000.0001) %MON dynstat_uvel_max             =   1.8714169126875E-01
(PID.TID 0000.0001) %MON dynstat_uvel_min             =  -2.8746956870657E-01
(PID.TID 0000.0001) %MON dynstat_uvel_mean            =  -4.8878638745863E-04
(PID.TID 0000.0001) %MON dynstat_uvel_sd              =   1.2021041694830E-02
(PID.TID 0000.0001) %MON dynstat_uvel_del2            =   5.1182503758901E-05
(PID.TID 0000.0001) %MON dynstat_vvel_max             =   1.7408597417886E-01
(PID.TID 0000.0001) %MON dynstat_vvel_min             =  -2.2515710936808E-01
(PID.TID 0000.0001) %MON dynstat_vvel_mean            =  -4.0388163982660E-04
(PID.TID 0000.0001) %MON dynstat_vvel_sd              =   1.2644505848495E-02
(PID.TID 0000.0001) %MON dynstat_vvel_del2            =   5.0571887547524E-05
(PID.TID 0000.0001) %MON dynstat_wvel_max             =   1.0332793865028E-04
(PID.TID 0000.0001) %MON dynstat_wvel_min             =  -2.0476688545752E-04
(PID.TID 0000.0001) %MON dynstat_wvel_mean            =   1.3577300578198E-10
(PID.TID 0000.0001) %MON dynstat_wvel_sd              =   3.8344552372457E-06
(PID.TID 0000.0001) %MON dynstat_wvel_del2            =   2.6461994045987E-08
(PID.TID 0000.0001) %MON dynstat_theta_max            =   3.0948578883528E+01
(PID.TID 0000.0001) %MON dynstat_theta_min            =  -2.0072105823917E+00
(PID.TID 0000.0001) %MON dynstat_theta_mean           =   3.9092463371378E+00
(PID.TID 0000.0001) %MON dynstat_theta_sd             =   4.5710616864938E+00
(PID.TID 0000.0001) %MON dynstat_theta_del2           =   2.6295615930006E-03
(PID.TID 0000.0001) %MON dynstat_salt_max             =   4.1387085216939E+01
(PID.TID 0000.0001) %MON dynstat_salt_min             =   1.8384081520131E+01
(PID.TID 0000.0001) %MON dynstat_salt_mean            =   3.4772069380716E+01
(PID.TID 0000.0001) %MON dynstat_salt_sd              =   5.3141695619725E-01
(PID.TID 0000.0001) %MON dynstat_salt_del2            =   7.9900349904694E-04
(PID.TID 0000.0001) %MON forcing_qnet_max             =   4.5335380716717E+02
(PID.TID 0000.0001) %MON forcing_qnet_min             =  -2.1405338853096E+02
(PID.TID 0000.0001) %MON forcing_qnet_mean            =  -1.2158050760287E+01
(PID.TID 0000.0001) %MON forcing_qnet_sd              =   1.1544877109799E+02
(PID.TID 0000.0001) %MON forcing_qnet_del2            =   4.1737635676168E-01
(PID.TID 0000.0001) %MON forcing_qsw_max              =   0.0000000000000E+00
(PID.TID 0000.0001) %MON forcing_qsw_min              =   0.0000000000000E+00
(PID.TID 0000.0001) %MON forcing_qsw_mean             =   0.0000000000000E+00
(PID.TID 0000.0001) %MON forcing_qsw_sd               =   0.0000000000000E+00
(PID.TID 0000.0001) %MON forcing_qsw_del2             =   0.0000000000000E+00
(PID.TID 0000.0001) %MON forcing_empmr_max            =   7.6494447208479E-05
(PID.TID 0000.0001) %MON forcing_empmr_min            =  -1.5362614137596E-04
(PID.TID 0000.0001) %MON forcing_empmr_mean           =  -2.7256318706594E-21
(PID.TID 0000.0001) %MON forcing_empmr_sd             =   2.4051723601802E-05
(PID.TID 0000.0001) %MON forcing_empmr_del2           =   1.2276157049243E-07
(PID.TID 0000.0001) %MON forcing_fu_max               =   2.4755808644372E-01
(PID.TID 0000.0001) %MON forcing_fu_min               =  -2.0607770640355E-01
(PID.TID 0000.0001) %MON forcing_fu_mean              =  -4.5044017291293E-03
(PID.TID 0000.0001) %MON forcing_fu_sd                =   6.3947166868600E-02
(PID.TID 0000.0001) %MON forcing_fu_del2              =   2.0524826999043E-04
(PID.TID 0000.0001) %MON forcing_fv_max               =   2.5549422200851E-01
(PID.TID 0000.0001) %MON forcing_fv_min               =  -3.2770782795392E-01
(PID.TID 0000.0001) %MON forcing_fv_mean              =  -1.3688427064785E-02
(PID.TID 0000.0001) %MON forcing_fv_sd                =   7.5192943168452E-02
(PID.TID 0000.0001) %MON forcing_fv_del2              =   2.3392164091250E-04
(PID.TID 0000.0001) %MON advcfl_uvel_max              =   8.1531822605316E-02
(PID.TID 0000.0001) %MON advcfl_vvel_max              =   7.5881623584074E-02
(PID.TID 0000.0001) %MON advcfl_wvel_max              =   6.6761731711431E-02
(PID.TID 0000.0001) %MON advcfl_W_hf_max              =   7.3743578004863E-02
(PID.TID 0000.0001) %MON pe_b_mean                    =   4.7735367226500E-04
(PID.TID 0000.0001) %MON ke_max                       =   4.0494512204700E-02
(PID.TID 0000.0001) %MON ke_mean                      =   1.4074672836908E-04
(PID.TID 0000.0001) %MON ke_vol                       =   1.3398024453628E+18
(PID.TID 0000.0001) %MON vort_r_min                   =  -1.1919427519650E-06
(PID.TID 0000.0001) %MON vort_r_max                   =   1.2167734251124E-06
(PID.TID 0000.0001) %MON vort_a_mean                  =  -2.0493733748264E-05
(PID.TID 0000.0001) %MON vort_a_sd                    =   7.5053947591932E-05
(PID.TID 0000.0001) %MON vort_p_mean                  =  -2.4715773740884E-05
(PID.TID 0000.0001) %MON vort_p_sd                    =   1.2777077007306E-04
(PID.TID 0000.0001) %MON surfExpan_theta_mean         =   3.5563985866161E-08
(PID.TID 0000.0001) %MON surfExpan_salt_mean          =   1.3466213339372E-08
(PID.TID 0000.0001) // =======================================================
(PID.TID 0000.0001) // End MONITOR dynamic field statistics
(PID.TID 0000.0001) // =======================================================
 cg2d: Sum(rhs),rhsMax =  -9.49285094975494E-12  4.26762372378297E+00
(PID.TID 0000.0001)                    cg2d_init_res =    4.71784801162128E-01
(PID.TID 0000.0001)                       cg2d_iters =    64
(PID.TID 0000.0001)                         cg2d_res =    4.75200787243738E-07
(PID.TID 0000.0001) // =======================================================
(PID.TID 0000.0001) // Begin MONITOR dynamic field statistics
(PID.TID 0000.0001) // =======================================================
(PID.TID 0000.0001) %MON time_tsnumber                =                 72003
(PID.TID 0000.0001) %MON time_secondsf                =   6.2210592000000E+09
(PID.TID 0000.0001) %MON dynstat_eta_max              =   9.1644127685743E-01
(PID.TID 0000.0001) %MON dynstat_eta_min              =  -1.6189131803034E+00
(PID.TID 0000.0001) %MON dynstat_eta_mean             =   1.4427566214562E-14
(PID.TID 0000.0001) %MON dynstat_eta_sd               =   5.9835388912427E-01
(PID.TID 0000.0001) %MON dynstat_eta_del2             =   7.8960613855935E-04
(PID.TID 0000.0001) %MON dynstat_uvel_max             =   1.8743271164750E-01
(PID.TID 0000.0001) %MON dynstat_uvel_min             =  -2.8714372135751E-01
(PID.TID 0000.0001) %MON dynstat_uvel_mean            =  -4.8852263751298E-04
(PID.TID 0000.0001) %MON dynstat_uvel_sd              =   1.2020617978707E-02
(PID.TID 0000.0001) %MON dynstat_uvel_del2            =   5.1162819346136E-05
(PID.TID 0000.0001) %MON dynstat_vvel_max             =   1.7433145976812E-01
(PID.TID 0000.0001) %MON dynstat_vvel_min             =  -2.2512354676034E-01
(PID.TID 0000.0001) %MON dynstat_vvel_mean            =  -4.0358525562809E-04
(PID.TID 0000.0001) %MON dynstat_vvel_sd              =   1.2647712774794E-02
(PID.TID 0000.0001) %MON dynstat_vvel_del2            =   5.0538429864452E-05
(PID.TID 0000.0001) %MON dynstat_wvel_max             =   1.0357240696547E-04
(PID.TID 0000.0001) %MON dynstat_wvel_min             =  -2.0508203392729E-04
(PID.TID 0000.0001) %MON dynstat_wvel_mean            =   5.9810513040698E-11
(PID.TID 0000.0001) %MON dynstat_wvel_sd              =   3.8329848820679E-06
(PID.TID 0000.0001) %MON dynstat_wvel_del2            =   2.6474698118823E-08
(PID.TID 0000.0001) %MON dynstat_theta_max            =   3.0959162611568E+01
(PID.TID 0000.0001) %MON dynstat_theta_min            =  -2.0111099367680E+00
(PID.TID 0000.0001) %MON dynstat_theta_mean           =   3.9093039691967E+00
(PID.TID 0000.0001) %MON dynstat_theta_sd             =   4.5710316755285E+00
(PID.TID 0000.0001) %MON dynstat_theta_del2           =   2.6156946994848E-03
(PID.TID 0000.0001) %MON dynstat_salt_max             =   4.1387470491745E+01
(PID.TID 0000.0001) %MON dynstat_salt_min             =   1.8384426772729E+01
(PID.TID 0000.0001) %MON dynstat_salt_mean            =   3.4772069767638E+01
(PID.TID 0000.0001) %MON dynstat_salt_sd              =   5.3139832860586E-01
(PID.TID 0000.0001) %MON dynstat_salt_del2            =   7.9538484127359E-04
(PID.TID 0000.0001) %MON forcing_qnet_max             =   4.5325934619927E+02
(PID.TID 0000.0001) %MON forcing_qnet_min             =  -2.1308103454435E+02
(PID.TID 0000.0001) %MON forcing_qnet_mean            =  -1.2170279128930E+01
(PID.TID 0000.0001) %MON forcing_qnet_sd              =   1.1525031618572E+02
(PID.TID 0000.0001) %MON forcing_qnet_del2            =   4.1847271762860E-01
(PID.TID 0000.0001) %MON forcing_qsw_max              =   0.0000000000000E+00
(PID.TID 0000.0001) %MON forcing_qsw_min              =   0.0000000000000E+00
(PID.TID 0000.0001) %MON forcing_qsw_mean             =   0.0000000000000E+00
(PID.TID 0000.0001) %MON forcing_qsw_sd               =   0.0000000000000E+00
(PID.TID 0000.0001) %MON forcing_qsw_del2             =   0.0000000000000E+00
(PID.TID 0000.0001) %MON forcing_empmr_max            =   7.6494447208479E-05
(PID.TID 0000.0001) %MON forcing_empmr_min            =  -1.5362614137596E-04
(PID.TID 0000.0001) %MON forcing_empmr_mean           =  -2.7256318706594E-21
(PID.TID 0000.0001) %MON forcing_empmr_sd             =   2.4051723601802E-05
(PID.TID 0000.0001) %MON forcing_empmr_del2           =   1.2276157049243E-07
(PID.TID 0000.0001) %MON forcing_fu_max               =   2.4751003717351E-01
(PID.TID 0000.0001) %MON forcing_fu_min               =  -2.0922350306190E-01
(PID.TID 0000.0001) %MON forcing_fu_mean              =  -4.4609227933959E-03
(PID.TID 0000.0001) %MON forcing_fu_sd                =   6.3970406478471E-02
(PID.TID 0000.0001) %MON forcing_fu_del2              =   2.0564087338622E-04
(PID.TID 0000.0001) %MON forcing_fv_max               =   2.5817746358114E-01
(PID.TID 0000.0001) %MON forcing_fv_min               =  -3.2849573188785E-01
(PID.TID 0000.0001) %MON forcing_fv_mean              =  -1.3692352610712E-02
(PID.TID 0000.0001) %MON forcing_fv_sd                =   7.5242720295677E-02
(PID.TID 0000.0001) %MON forcing_fv_del2              =   2.3430754301775E-04
(PID.TID 0000.0001) %MON advcfl_uvel_max              =   8.1439406116224E-02
(PID.TID 0000.0001) %MON advcfl_vvel_max              =   7.5988627293976E-02
(PID.TID 0000.0001) %MON advcfl_wvel_max              =   6.6864482004974E-02
(PID.TID 0000.0001) %MON advcfl_W_hf_max              =   7.3857090993783E-02
(PID.TID 0000.0001) %MON pe_b_mean                    =   4.7695862773094E-04
(PID.TID 0000.0001) %MON ke_max                       =   4.0386196198654E-02
(PID.TID 0000.0001) %MON ke_mean                      =   1.4077944649443E-04
(PID.TID 0000.0001) %MON ke_vol                       =   1.3398024453628E+18
(PID.TID 0000.0001) %MON vort_r_min                   =  -1.1961174879015E-06
(PID.TID 0000.0001) %MON vort_r_max                   =   1.2183806206698E-06
(PID.TID 0000.0001) %MON vort_a_mean                  =  -2.0493733748264E-05
(PID.TID 0000.0001) %MON vort_a_sd                    =   7.5053947450515E-05
(PID.TID 0000.0001) %MON vort_p_mean                  =  -2.4715773758038E-05
(PID.TID 0000.0001) %MON vort_p_sd                    =   1.2777076089225E-04
(PID.TID 0000.0001) %MON surfExpan_theta_mean         =   3.7892039313860E-08
(PID.TID 0000.0001) %MON surfExpan_salt_mean          =   1.3727449193304E-08
(PID.TID 0000.0001) // =======================================================
(PID.TID 0000.0001) // End MONITOR dynamic field statistics
(PID.TID 0000.0001) // =======================================================
 cg2d: Sum(rhs),rhsMax =  -9.66338120633736E-12  4.26250700344129E+00
(PID.TID 0000.0001)                    cg2d_init_res =    4.64057878492484E-01
(PID.TID 0000.0001)                       cg2d_iters =    64
(PID.TID 0000.0001)                         cg2d_res =    4.73678603815109E-07
(PID.TID 0000.0001) // =======================================================
(PID.TID 0000.0001) // Begin MONITOR dynamic field statistics
(PID.TID 0000.0001) // =======================================================
(PID.TID 0000.0001) %MON time_tsnumber                =                 72004
(PID.TID 0000.0001) %MON time_secondsf                =   6.2211456000000E+09
(PID.TID 0000.0001) %MON dynstat_eta_max              =   9.1468208779052E-01
(PID.TID 0000.0001) %MON dynstat_eta_min              =  -1.6181724098399E+00
(PID.TID 0000.0001) %MON dynstat_eta_mean             =   1.4290160822043E-14
(PID.TID 0000.0001) %MON dynstat_eta_sd               =   5.9815450387896E-01
(PID.TID 0000.0001) %MON dynstat_eta_del2             =   7.8869888649321E-04
(PID.TID 0000.0001) %MON dynstat_uvel_max             =   1.8766375016037E-01
(PID.TID 0000.0001) %MON dynstat_uvel_min             =  -2.8679232422535E-01
(PID.TID 0000.0001) %MON dynstat_uvel_mean            =  -4.8821265414853E-04
(PID.TID 0000.0001) %MON dynstat_uvel_sd              =   1.2020024198121E-02
(PID.TID 0000.0001) %MON dynstat_uvel_del2            =   5.1140823671996E-05
(PID.TID 0000.0001) %MON dynstat_vvel_max             =   1.7452664093651E-01
(PID.TID 0000.0001) %MON dynstat_vvel_min             =  -2.2508106571015E-01
(PID.TID 0000.0001) %MON dynstat_vvel_mean            =  -4.0317713964881E-04
(PID.TID 0000.0001) %MON dynstat_vvel_sd              =   1.2650879908445E-02
(PID.TID 0000.0001) %MON dynstat_vvel_del2            =   5.0504460618705E-05
(PID.TID 0000.0001) %MON dynstat_wvel_max             =   1.0389335805343E-04
(PID.TID 0000.0001) %MON dynstat_wvel_min             =  -2.0534191959322E-04
(PID.TID 0000.0001) %MON dynstat_wvel_mean            =   5.0465248146062E-11
(PID.TID 0000.0001) %MON dynstat_wvel_sd              =   3.8316452384841E-06
(PID.TID 0000.0001) %MON dynstat_wvel_del2            =   2.6493204776452E-08
(PID.TID 0000.0001) %MON dynstat_theta_max            =   3.0969289330570E+01
(PID.TID 0000.0001) %MON dynstat_theta_min            =  -2.0151809695326E+00
(PID.TID 0000.0001) %MON dynstat_theta_mean           =   3.9093619576183E+00
(PID.TID 0000.0001) %MON dynstat_theta_sd             =   4.5710089720703E+00
(PID.TID 0000.0001) %MON dynstat_theta_del2           =   2.6092028172303E-03
(PID.TID 0000.0001) %MON dynstat_salt_max             =   4.1387839317564E+01
(PID.TID 0000.0001) %MON dynstat_salt_min             =   1.8384778363834E+01
(PID.TID 0000.0001) %MON dynstat_salt_mean            =   3.4772070172675E+01
(PID.TID 0000.0001) %MON dynstat_salt_sd              =   5.3137961795628E-01
(PID.TID 0000.0001) %MON dynstat_salt_del2            =   7.9371215597876E-04
(PID.TID 0000.0001) %MON forcing_qnet_max             =   4.5316488523137E+02
(PID.TID 0000.0001) %MON forcing_qnet_min             =  -2.1210868055774E+02
(PID.TID 0000.0001) %MON forcing_qnet_mean            =  -1.2182507497573E+01
(PID.TID 0000.0001) %MON forcing_qnet_sd              =   1.1505843893838E+02
(PID.TID 0000.0001) %MON forcing_qnet_del2            =   4.1968961974738E-01
(PID.TID 0000.0001) %MON forcing_qsw_max              =   0.0000000000000E+00
(PID.TID 0000.0001) %MON forcing_qsw_min              =   0.0000000000000E+00
(PID.TID 0000.0001) %MON forcing_qsw_mean             =   0.0000000000000E+00
(PID.TID 0000.0001) %MON forcing_qsw_sd               =   0.0000000000000E+00
(PID.TID 0000.0001) %MON forcing_qsw_del2             =   0.0000000000000E+00
(PID.TID 0000.0001) %MON forcing_empmr_max            =   7.6494447208479E-05
(PID.TID 0000.0001) %MON forcing_empmr_min            =  -1.5362614137596E-04
(PID.TID 0000.0001) %MON forcing_empmr_mean           =  -2.7256318706594E-21
(PID.TID 0000.0001) %MON forcing_empmr_sd             =   2.4051723601802E-05
(PID.TID 0000.0001) %MON forcing_empmr_del2           =   1.2276157049243E-07
(PID.TID 0000.0001) %MON forcing_fu_max               =   2.4746198790331E-01
(PID.TID 0000.0001) %MON forcing_fu_min               =  -2.1236929972025E-01
(PID.TID 0000.0001) %MON forcing_fu_mean              =  -4.4174438576624E-03
(PID.TID 0000.0001) %MON forcing_fu_sd                =   6.4007100989353E-02
(PID.TID 0000.0001) %MON forcing_fu_del2              =   2.0627372714610E-04
(PID.TID 0000.0001) %MON forcing_fv_max               =   2.6086070515377E-01
(PID.TID 0000.0001) %MON forcing_fv_min               =  -3.2928363582178E-01
(PID.TID 0000.0001) %MON forcing_fv_mean              =  -1.3696278156640E-02
(PID.TID 0000.0001) %MON forcing_fv_sd                =   7.5302823094907E-02
(PID.TID 0000.0001) %MON forcing_fv_del2              =   2.3489534074143E-04
(PID.TID 0000.0001) %MON advcfl_uvel_max              =   8.1339743224003E-02
(PID.TID 0000.0001) %MON advcfl_vvel_max              =   7.6073704015525E-02
(PID.TID 0000.0001) %MON advcfl_wvel_max              =   6.6949214539073E-02
(PID.TID 0000.0001) %MON advcfl_W_hf_max              =   7.3950714441432E-02
(PID.TID 0000.0001) %MON pe_b_mean                    =   4.7664081357374E-04
(PID.TID 0000.0001) %MON ke_max                       =   4.0274393070457E-02
(PID.TID 0000.0001) %MON ke_mean                      =   1.4080976941474E-04
(PID.TID 0000.0001) %MON ke_vol                       =   1.3398024453628E+18
(PID.TID 0000.0001) %MON vort_r_min                   =  -1.2005187139715E-06
(PID.TID 0000.0001) %MON vort_r_max                   =   1.2203710074538E-06
(PID.TID 0000.0001) %MON vort_a_mean                  =  -2.0493733748264E-05
(PID.TID 0000.0001) %MON vort_a_sd                    =   7.5053947314347E-05
(PID.TID 0000.0001) %MON vort_p_mean                  =  -2.4715773732941E-05
(PID.TID 0000.0001) %MON vort_p_sd                    =   1.2777075307854E-04
(PID.TID 0000.0001) %MON surfExpan_theta_mean         =   4.0287976971585E-08
(PID.TID 0000.0001) %MON surfExpan_salt_mean          =   1.3883637714189E-08
(PID.TID 0000.0001) // =======================================================
(PID.TID 0000.0001) // End MONITOR dynamic field statistics
(PID.TID 0000.0001) // =======================================================
 cg2d: Sum(rhs),rhsMax =  -9.89075488178059E-12  4.25770388645475E+00
(PID.TID 0000.0001)                    cg2d_init_res =    4.63540494214602E-01
(PID.TID 0000.0001)                       cg2d_iters =    64
(PID.TID 0000.0001)                         cg2d_res =    4.71239738926786E-07
(PID.TID 0000.0001) // =======================================================
(PID.TID 0000.0001) // Begin MONITOR dynamic field statistics
(PID.TID 0000.0001) // =======================================================
(PID.TID 0000.0001) %MON time_tsnumber                =                 72005
(PID.TID 0000.0001) %MON time_secondsf                =   6.2212320000000E+09
(PID.TID 0000.0001) %MON dynstat_eta_max              =   9.1288618575094E-01
(PID.TID 0000.0001) %MON dynstat_eta_min              =  -1.6176044944079E+00
(PID.TID 0000.0001) %MON dynstat_eta_mean             =   1.4358863518302E-14
(PID.TID 0000.0001) %MON dynstat_eta_sd               =   5.9799597227101E-01
(PID.TID 0000.0001) %MON dynstat_eta_del2             =   7.8790248448698E-04
(PID.TID 0000.0001) %MON dynstat_uvel_max             =   1.8783121838993E-01
(PID.TID 0000.0001) %MON dynstat_uvel_min             =  -2.8641765970954E-01
(PID.TID 0000.0001) %MON dynstat_uvel_mean            =  -4.8789602699959E-04
(PID.TID 0000.0001) %MON dynstat_uvel_sd              =   1.2019323850875E-02
(PID.TID 0000.0001) %MON dynstat_uvel_del2            =   5.1116631438862E-05
(PID.TID 0000.0001) %MON dynstat_vvel_max             =   1.7466590665224E-01
(PID.TID 0000.0001) %MON dynstat_vvel_min             =  -2.2503037114410E-01
(PID.TID 0000.0001) %MON dynstat_vvel_mean            =  -4.0272133979056E-04
(PID.TID 0000.0001) %MON dynstat_vvel_sd              =   1.2653941174023E-02
(PID.TID 0000.0001) %MON dynstat_vvel_del2            =   5.0470121661569E-05
(PID.TID 0000.0001) %MON dynstat_wvel_max             =   1.0429031436732E-04
(PID.TID 0000.0001) %MON dynstat_wvel_min             =  -2.0554556545799E-04
(PID.TID 0000.0001) %MON dynstat_wvel_mean            =   5.6727985818712E-11
(PID.TID 0000.0001) %MON dynstat_wvel_sd              =   3.8304971491793E-06
(PID.TID 0000.0001) %MON dynstat_wvel_del2            =   2.6517653292354E-08
(PID.TID 0000.0001) %MON dynstat_theta_max            =   3.0978978563895E+01
(PID.TID 0000.0001) %MON dynstat_theta_min            =  -2.0194061904318E+00
(PID.TID 0000.0001) %MON dynstat_theta_mean           =   3.9094201646583E+00
(PID.TID 0000.0001) %MON dynstat_theta_sd             =   4.5709972539965E+00
(PID.TID 0000.0001) %MON dynstat_theta_del2           =   2.5983887280923E-03
(PID.TID 0000.0001) %MON dynstat_salt_max             =   4.1388191312935E+01
(PID.TID 0000.0001) %MON dynstat_salt_min             =   1.8385136136793E+01
(PID.TID 0000.0001) %MON dynstat_salt_mean            =   3.4772070591186E+01
(PID.TID 0000.0001) %MON dynstat_salt_sd              =   5.3136292865115E-01
(PID.TID 0000.0001) %MON dynstat_salt_del2            =   7.9026448450167E-04
(PID.TID 0000.0001) %MON forcing_qnet_max             =   4.5307042426348E+02
(PID.TID 0000.0001) %MON forcing_qnet_min             =  -2.1113632657113E+02
(PID.TID 0000.0001) %MON forcing_qnet_mean            =  -1.2194735866217E+01
(PID.TID 0000.0001) %MON forcing_qnet_sd              =   1.1487317231679E+02
(PID.TID 0000.0001) %MON forcing_qnet_del2            =   4.2102601790904E-01
(PID.TID 0000.0001) %MON forcing_qsw_max              =   0.0000000000000E+00
(PID.TID 0000.0001) %MON forcing_qsw_min              =   0.0000000000000E+00
(PID.TID 0000.0001) %MON forcing_qsw_mean             =   0.0000000000000E+00
(PID.TID 0000.0001) %MON forcing_qsw_sd               =   0.0000000000000E+00
(PID.TID 0000.0001) %MON forcing_qsw_del2             =   0.0000000000000E+00
(PID.TID 0000.0001) %MON forcing_empmr_max            =   7.6494447208479E-05
(PID.TID 0000.0001) %MON forcing_empmr_min            =  -1.5362614137596E-04
(PID.TID 0000.0001) %MON forcing_empmr_mean           =  -2.5159678806086E-21
(PID.TID 0000.0001) %MON forcing_empmr_sd             =   2.4051723601802E-05
(PID.TID 0000.0001) %MON forcing_empmr_del2           =   1.2276157049243E-07
(PID.TID 0000.0001) %MON forcing_fu_max               =   2.4741393863310E-01
(PID.TID 0000.0001) %MON forcing_fu_min               =  -2.1551509637860E-01
(PID.TID 0000.0001) %MON forcing_fu_mean              =  -4.3739649219290E-03
(PID.TID 0000.0001) %MON forcing_fu_sd                =   6.4057227278753E-02
(PID.TID 0000.0001) %MON forcing_fu_del2              =   2.0714462929353E-04
(PID.TID 0000.0001) %MON forcing_fv_max               =   2.6354394672640E-01
(PID.TID 0000.0001) %MON forcing_fv_min               =  -3.3007153975572E-01
(PID.TID 0000.0001) %MON forcing_fv_mean              =  -1.3700203702567E-02
(PID.TID 0000.0001) %MON forcing_fv_sd                =   7.5373226864996E-02
(PID.TID 0000.0001) %MON forcing_fv_del2              =   2.3568352349763E-04
(PID.TID 0000.0001) %MON advcfl_uvel_max              =   8.1233481260425E-02
(PID.TID 0000.0001) %MON advcfl_vvel_max              =   7.6134407979009E-02
(PID.TID 0000.0001) %MON advcfl_wvel_max              =   6.7015610775736E-02
(PID.TID 0000.0001) %MON advcfl_W_hf_max              =   7.4024090016010E-02
(PID.TID 0000.0001) %MON pe_b_mean                    =   4.7638819449040E-04
(PID.TID 0000.0001) %MON ke_max                       =   4.0159180721914E-02
(PID.TID 0000.0001) %MON ke_mean                      =   1.4083766402182E-04
(PID.TID 0000.0001) %MON ke_vol                       =   1.3398024453628E+18
(PID.TID 0000.0001) %MON vort_r_min                   =  -1.2051032546492E-06
(PID.TID 0000.0001) %MON vort_r_max                   =   1.2226666066888E-06
(PID.TID 0000.0001) %MON vort_a_mean                  =  -2.0493733748264E-05
(PID.TID 0000.0001) %MON vort_a_sd                    =   7.5053947177443E-05
(PID.TID 0000.0001) %MON vort_p_mean                  =  -2.4715773700647E-05
(PID.TID 0000.0001) %MON vort_p_sd                    =   1.2777074649146E-04
(PID.TID 0000.0001) %MON surfExpan_theta_mean         =   4.2280191168477E-08
(PID.TID 0000.0001) %MON surfExpan_salt_mean          =   1.3985010736995E-08
(PID.TID 0000.0001) // =======================================================
(PID.TID 0000.0001) // End MONITOR dynamic field statistics
(PID.TID 0000.0001) // =======================================================
 cg2d: Sum(rhs),rhsMax =  -9.83391146291979E-12  4.25319684979159E+00
(PID.TID 0000.0001)                    cg2d_init_res =    4.52616208163252E-01
(PID.TID 0000.0001)                       cg2d_iters =    64
(PID.TID 0000.0001)                         cg2d_res =    4.53532225675965E-07
(PID.TID 0000.0001) // =======================================================
(PID.TID 0000.0001) // Begin MONITOR dynamic field statistics
(PID.TID 0000.0001) // =======================================================
(PID.TID 0000.0001) %MON time_tsnumber                =                 72006
(PID.TID 0000.0001) %MON time_secondsf                =   6.2213184000000E+09
(PID.TID 0000.0001) %MON dynstat_eta_max              =   9.1113683373692E-01
(PID.TID 0000.0001) %MON dynstat_eta_min              =  -1.6171233970191E+00
(PID.TID 0000.0001) %MON dynstat_eta_mean             =   1.4235198665035E-14
(PID.TID 0000.0001) %MON dynstat_eta_sd               =   5.9786331884089E-01
(PID.TID 0000.0001) %MON dynstat_eta_del2             =   7.8718821583271E-04
(PID.TID 0000.0001) %MON dynstat_uvel_max             =   1.8793282661040E-01
(PID.TID 0000.0001) %MON dynstat_uvel_min             =  -2.8602183619017E-01
(PID.TID 0000.0001) %MON dynstat_uvel_mean            =  -4.8758675644996E-04
(PID.TID 0000.0001) %MON dynstat_uvel_sd              =   1.2018569497756E-02
(PID.TID 0000.0001) %MON dynstat_uvel_del2            =   5.1090746034130E-05
(PID.TID 0000.0001) %MON dynstat_vvel_max             =   1.7474692985334E-01
(PID.TID 0000.0001) %MON dynstat_vvel_min             =  -2.2497211333961E-01
(PID.TID 0000.0001) %MON dynstat_vvel_mean            =  -4.0228516550675E-04
(PID.TID 0000.0001) %MON dynstat_vvel_sd              =   1.2656812611458E-02
(PID.TID 0000.0001) %MON dynstat_vvel_del2            =   5.0435619819144E-05
(PID.TID 0000.0001) %MON dynstat_wvel_max             =   1.0474850458140E-04
(PID.TID 0000.0001) %MON dynstat_wvel_min             =  -2.0568876612570E-04
(PID.TID 0000.0001) %MON dynstat_wvel_mean            =   6.7880898210031E-11
(PID.TID 0000.0001) %MON dynstat_wvel_sd              =   3.8295886804328E-06
(PID.TID 0000.0001) %MON dynstat_wvel_del2            =   2.6548285322399E-08
(PID.TID 0000.0001) %MON dynstat_theta_max            =   3.0988249497037E+01
(PID.TID 0000.0001) %MON dynstat_theta_min            =  -2.0237661159914E+00
(PID.TID 0000.0001) %MON dynstat_theta_mean           =   3.9094786541825E+00
(PID.TID 0000.0001) %MON dynstat_theta_sd             =   4.5709927623466E+00
(PID.TID 0000.0001) %MON dynstat_theta_del2           =   2.5897802346520E-03
(PID.TID 0000.0001) %MON dynstat_salt_max             =   4.1388526298181E+01
(PID.TID 0000.0001) %MON dynstat_salt_min             =   1.8385499953131E+01
(PID.TID 0000.0001) %MON dynstat_salt_mean            =   3.4772071024178E+01
(PID.TID 0000.0001) %MON dynstat_salt_sd              =   5.3134607036363E-01
(PID.TID 0000.0001) %MON dynstat_salt_del2            =   7.8734102684334E-04
(PID.TID 0000.0001) %MON forcing_qnet_max             =   4.5297596329558E+02
(PID.TID 0000.0001) %MON forcing_qnet_min             =  -2.1016397258453E+02
(PID.TID 0000.0001) %MON forcing_qnet_mean            =  -1.2206964234860E+01
(PID.TID 0000.0001) %MON forcing_qnet_sd              =   1.1469454835547E+02
(PID.TID 0000.0001) %MON forcing_qnet_del2            =   4.2248077813955E-01
(PID.TID 0000.0001) %MON forcing_qsw_max              =   0.0000000000000E+00
(PID.TID 0000.0001) %MON forcing_qsw_min              =   0.0000000000000E+00
(PID.TID 0000.0001) %MON forcing_qsw_mean             =   0.0000000000000E+00
(PID.TID 0000.0001) %MON forcing_qsw_sd               =   0.0000000000000E+00
(PID.TID 0000.0001) %MON forcing_qsw_del2             =   0.0000000000000E+00
(PID.TID 0000.0001) %MON forcing_empmr_max            =   7.6494447208479E-05
(PID.TID 0000.0001) %MON forcing_empmr_min            =  -1.5362614137596E-04
(PID.TID 0000.0001) %MON forcing_empmr_mean           =  -2.9352958607101E-21
(PID.TID 0000.0001) %MON forcing_empmr_sd             =   2.4051723601802E-05
(PID.TID 0000.0001) %MON forcing_empmr_del2           =   1.2276157049243E-07
(PID.TID 0000.0001) %MON forcing_fu_max               =   2.4736588936290E-01
(PID.TID 0000.0001) %MON forcing_fu_min               =  -2.1866089303695E-01
(PID.TID 0000.0001) %MON forcing_fu_mean              =  -4.3304859861956E-03
(PID.TID 0000.0001) %MON forcing_fu_sd                =   6.4120753845867E-02
(PID.TID 0000.0001) %MON forcing_fu_del2              =   2.0825059330114E-04
(PID.TID 0000.0001) %MON forcing_fv_max               =   2.6622718829904E-01
(PID.TID 0000.0001) %MON forcing_fv_min               =  -3.3085944368965E-01
(PID.TID 0000.0001) %MON forcing_fv_mean              =  -1.3704129248494E-02
(PID.TID 0000.0001) %MON forcing_fv_sd                =   7.5453902771370E-02
(PID.TID 0000.0001) %MON forcing_fv_del2              =   2.3667008926707E-04
(PID.TID 0000.0001) %MON advcfl_uvel_max              =   8.1121218202080E-02
(PID.TID 0000.0001) %MON advcfl_vvel_max              =   7.6169724850892E-02
(PID.TID 0000.0001) %MON advcfl_wvel_max              =   6.7062299597211E-02
(PID.TID 0000.0001) %MON advcfl_W_hf_max              =   7.4075697559686E-02
(PID.TID 0000.0001) %MON pe_b_mean                    =   4.7617686357254E-04
(PID.TID 0000.0001) %MON ke_max                       =   4.0040640247270E-02
(PID.TID 0000.0001) %MON ke_mean                      =   1.4086275526011E-04
(PID.TID 0000.0001) %MON ke_vol                       =   1.3398024453628E+18
(PID.TID 0000.0001) %MON vort_r_min                   =  -1.2098297308396E-06
(PID.TID 0000.0001) %MON vort_r_max                   =   1.2252105593848E-06
(PID.TID 0000.0001) %MON vort_a_mean                  =  -2.0493733748264E-05
(PID.TID 0000.0001) %MON vort_a_sd                    =   7.5053947032421E-05
(PID.TID 0000.0001) %MON vort_p_mean                  =  -2.4715773669213E-05
(PID.TID 0000.0001) %MON vort_p_sd                    =   1.2777074083612E-04
(PID.TID 0000.0001) %MON surfExpan_theta_mean         =   4.3917965208199E-08
(PID.TID 0000.0001) %MON surfExpan_salt_mean          =   1.4048698248899E-08
(PID.TID 0000.0001) // =======================================================
(PID.TID 0000.0001) // End MONITOR dynamic field statistics
(PID.TID 0000.0001) // =======================================================
 cg2d: Sum(rhs),rhsMax =  -9.49285094975494E-12  4.24900187971374E+00
(PID.TID 0000.0001)                    cg2d_init_res =    4.48217043558110E-01
(PID.TID 0000.0001)                       cg2d_iters =    63
(PID.TID 0000.0001)                         cg2d_res =    5.71174713828355E-07
(PID.TID 0000.0001) // =======================================================
(PID.TID 0000.0001) // Begin MONITOR dynamic field statistics
(PID.TID 0000.0001) // =======================================================
(PID.TID 0000.0001) %MON time_tsnumber                =                 72007
(PID.TID 0000.0001) %MON time_secondsf                =   6.2214048000000E+09
(PID.TID 0000.0001) %MON dynstat_eta_max              =   9.0951256965924E-01
(PID.TID 0000.0001) %MON dynstat_eta_min              =  -1.6166822118176E+00
(PID.TID 0000.0001) %MON dynstat_eta_mean             =   1.4317641900547E-14
(PID.TID 0000.0001) %MON dynstat_eta_sd               =   5.9774496524443E-01
(PID.TID 0000.0001) %MON dynstat_eta_del2             =   7.8655330867215E-04
(PID.TID 0000.0001) %MON dynstat_uvel_max             =   1.8796706497889E-01
(PID.TID 0000.0001) %MON dynstat_uvel_min             =  -2.8560670982836E-01
(PID.TID 0000.0001) %MON dynstat_uvel_mean            =  -4.8726979708239E-04
(PID.TID 0000.0001) %MON dynstat_uvel_sd              =   1.2017811041293E-02
(PID.TID 0000.0001) %MON dynstat_uvel_del2            =   5.1063432031435E-05
(PID.TID 0000.0001) %MON dynstat_vvel_max             =   1.7476927331685E-01
(PID.TID 0000.0001) %MON dynstat_vvel_min             =  -2.2490691668153E-01
(PID.TID 0000.0001) %MON dynstat_vvel_mean            =  -4.0190609537413E-04
(PID.TID 0000.0001) %MON dynstat_vvel_sd              =   1.2659412986650E-02
(PID.TID 0000.0001) %MON dynstat_vvel_del2            =   5.0401164541234E-05
(PID.TID 0000.0001) %MON dynstat_wvel_max             =   1.0525788110722E-04
(PID.TID 0000.0001) %MON dynstat_wvel_min             =  -2.0576848212105E-04
(PID.TID 0000.0001) %MON dynstat_wvel_mean            =   8.1968297757807E-11
(PID.TID 0000.0001) %MON dynstat_wvel_sd              =   3.8289636437700E-06
(PID.TID 0000.0001) %MON dynstat_wvel_del2            =   2.6584711557537E-08
(PID.TID 0000.0001) %MON dynstat_theta_max            =   3.0997121152501E+01
(PID.TID 0000.0001) %MON dynstat_theta_min            =  -2.0282436372339E+00
(PID.TID 0000.0001) %MON dynstat_theta_mean           =   3.9095373802642E+00
(PID.TID 0000.0001) %MON dynstat_theta_sd             =   4.5709954466848E+00
(PID.TID 0000.0001) %MON dynstat_theta_del2           =   2.5810590552307E-03
(PID.TID 0000.0001) %MON dynstat_salt_max             =   4.1388844256905E+01
(PID.TID 0000.0001) %MON dynstat_salt_min             =   1.8385869696422E+01
(PID.TID 0000.0001) %MON dynstat_salt_mean            =   3.4772071470256E+01
(PID.TID 0000.0001) %MON dynstat_salt_sd              =   5.3132875531677E-01
(PID.TID 0000.0001) %MON dynstat_salt_del2            =   7.8442593734546E-04
(PID.TID 0000.0001) %MON forcing_qnet_max             =   4.5288150232768E+02
(PID.TID 0000.0001) %MON forcing_qnet_min             =  -2.0919161859792E+02
(PID.TID 0000.0001) %MON forcing_qnet_mean            =  -1.2219192603503E+01
(PID.TID 0000.0001) %MON forcing_qnet_sd              =   1.1452259813662E+02
(PID.TID 0000.0001) %MON forcing_qnet_del2            =   4.2405268227766E-01
(PID.TID 0000.0001) %MON forcing_qsw_max              =   0.0000000000000E+00
(PID.TID 0000.0001) %MON forcing_qsw_min              =   0.0000000000000E+00
(PID.TID 0000.0001) %MON forcing_qsw_mean             =   0.0000000000000E+00
(PID.TID 0000.0001) %MON forcing_qsw_sd               =   0.0000000000000E+00
(PID.TID 0000.0001) %MON forcing_qsw_del2             =   0.0000000000000E+00
(PID.TID 0000.0001) %MON forcing_empmr_max            =   7.6494447208479E-05
(PID.TID 0000.0001) %MON forcing_empmr_min            =  -1.5362614137596E-04
(PID.TID 0000.0001) %MON forcing_empmr_mean           =  -2.7256318706594E-21
(PID.TID 0000.0001) %MON forcing_empmr_sd             =   2.4051723601802E-05
(PID.TID 0000.0001) %MON forcing_empmr_del2           =   1.2276157049243E-07
(PID.TID 0000.0001) %MON forcing_fu_max               =   2.4731784009269E-01
(PID.TID 0000.0001) %MON forcing_fu_min               =  -2.2180668969530E-01
(PID.TID 0000.0001) %MON forcing_fu_mean              =  -4.2870070504621E-03
(PID.TID 0000.0001) %MON forcing_fu_sd                =   6.4197640910106E-02
(PID.TID 0000.0001) %MON forcing_fu_del2              =   2.0958789804308E-04
(PID.TID 0000.0001) %MON forcing_fv_max               =   2.6891042987167E-01
(PID.TID 0000.0001) %MON forcing_fv_min               =  -3.3164734762358E-01
(PID.TID 0000.0001) %MON forcing_fv_mean              =  -1.3708054794422E-02
(PID.TID 0000.0001) %MON forcing_fv_sd                =   7.5544817904543E-02
(PID.TID 0000.0001) %MON forcing_fv_del2              =   2.3785256950118E-04
(PID.TID 0000.0001) %MON advcfl_uvel_max              =   8.1003480491469E-02
(PID.TID 0000.0001) %MON advcfl_vvel_max              =   7.6179464051860E-02
(PID.TID 0000.0001) %MON advcfl_wvel_max              =   6.7088290019843E-02
(PID.TID 0000.0001) %MON advcfl_W_hf_max              =   7.4104439291437E-02
(PID.TID 0000.0001) %MON pe_b_mean                    =   4.7598835337526E-04
(PID.TID 0000.0001) %MON ke_max                       =   3.9918825977056E-02
(PID.TID 0000.0001) %MON ke_mean                      =   1.4088464557240E-04
(PID.TID 0000.0001) %MON ke_vol                       =   1.3398024453628E+18
(PID.TID 0000.0001) %MON vort_r_min                   =  -1.2146591421824E-06
(PID.TID 0000.0001) %MON vort_r_max                   =   1.2279540573958E-06
(PID.TID 0000.0001) %MON vort_a_mean                  =  -2.0493733748264E-05
(PID.TID 0000.0001) %MON vort_a_sd                    =   7.5053946877003E-05
(PID.TID 0000.0001) %MON vort_p_mean                  =  -2.4715773640580E-05
(PID.TID 0000.0001) %MON vort_p_sd                    =   1.2777073570664E-04
(PID.TID 0000.0001) %MON surfExpan_theta_mean         =   4.5286493326828E-08
(PID.TID 0000.0001) %MON surfExpan_salt_mean          =   1.4083216374432E-08
(PID.TID 0000.0001) // =======================================================
(PID.TID 0000.0001) // End MONITOR dynamic field statistics
(PID.TID 0000.0001) // =======================================================
 cg2d: Sum(rhs),rhsMax =  -9.66338120633736E-12  4.24513385397638E+00
(PID.TID 0000.0001)                    cg2d_init_res =    4.44922736078350E-01
(PID.TID 0000.0001)                       cg2d_iters =    63
(PID.TID 0000.0001)                         cg2d_res =    5.60855013573143E-07
(PID.TID 0000.0001) // =======================================================
(PID.TID 0000.0001) // Begin MONITOR dynamic field statistics
(PID.TID 0000.0001) // =======================================================
(PID.TID 0000.0001) %MON time_tsnumber                =                 72008
(PID.TID 0000.0001) %MON time_secondsf                =   6.2214912000000E+09
(PID.TID 0000.0001) %MON dynstat_eta_max              =   9.0798868513509E-01
(PID.TID 0000.0001) %MON dynstat_eta_min              =  -1.6162540977122E+00
(PID.TID 0000.0001) %MON dynstat_eta_mean             =   1.4248939204287E-14
(PID.TID 0000.0001) %MON dynstat_eta_sd               =   5.9763395941379E-01
(PID.TID 0000.0001) %MON dynstat_eta_del2             =   7.8597633697010E-04
(PID.TID 0000.0001) %MON dynstat_uvel_max             =   1.8793326648290E-01
(PID.TID 0000.0001) %MON dynstat_uvel_min             =  -2.8517385549085E-01
(PID.TID 0000.0001) %MON dynstat_uvel_mean            =  -4.8691861529739E-04
(PID.TID 0000.0001) %MON dynstat_uvel_sd              =   1.2017096637417E-02
(PID.TID 0000.0001) %MON dynstat_uvel_del2            =   5.1035091117150E-05
(PID.TID 0000.0001) %MON dynstat_vvel_max             =   1.7473389417497E-01
(PID.TID 0000.0001) %MON dynstat_vvel_min             =  -2.2483537976771E-01
(PID.TID 0000.0001) %MON dynstat_vvel_mean            =  -4.0159034307959E-04
(PID.TID 0000.0001) %MON dynstat_vvel_sd              =   1.2661668976108E-02
(PID.TID 0000.0001) %MON dynstat_vvel_del2            =   5.0366843121703E-05
(PID.TID 0000.0001) %MON dynstat_wvel_max             =   1.0582457085766E-04
(PID.TID 0000.0001) %MON dynstat_wvel_min             =  -2.0581346842709E-04
(PID.TID 0000.0001) %MON dynstat_wvel_mean            =   1.0198555467597E-10
(PID.TID 0000.0001) %MON dynstat_wvel_sd              =   3.8287357216593E-06
(PID.TID 0000.0001) %MON dynstat_wvel_del2            =   2.6627844621790E-08
(PID.TID 0000.0001) %MON dynstat_theta_max            =   3.1005612483246E+01
(PID.TID 0000.0001) %MON dynstat_theta_min            =  -2.0328232009058E+00
(PID.TID 0000.0001) %MON dynstat_theta_mean           =   3.9095964548303E+00
(PID.TID 0000.0001) %MON dynstat_theta_sd             =   4.5710061901692E+00
(PID.TID 0000.0001) %MON dynstat_theta_del2           =   2.5722855025480E-03
(PID.TID 0000.0001) %MON dynstat_salt_max             =   4.1389145261654E+01
(PID.TID 0000.0001) %MON dynstat_salt_min             =   1.8386245271700E+01
(PID.TID 0000.0001) %MON dynstat_salt_mean            =   3.4772071933045E+01
(PID.TID 0000.0001) %MON dynstat_salt_sd              =   5.3131170996974E-01
(PID.TID 0000.0001) %MON dynstat_salt_del2            =   7.8150138711213E-04
(PID.TID 0000.0001) %MON forcing_qnet_max             =   4.5278704135979E+02
(PID.TID 0000.0001) %MON forcing_qnet_min             =  -2.0821926461131E+02
(PID.TID 0000.0001) %MON forcing_qnet_mean            =  -1.2231420972146E+01
(PID.TID 0000.0001) %MON forcing_qnet_sd              =   1.1435735176461E+02
(PID.TID 0000.0001) %MON forcing_qnet_del2            =   4.2574043278125E-01
(PID.TID 0000.0001) %MON forcing_qsw_max              =   0.0000000000000E+00
(PID.TID 0000.0001) %MON forcing_qsw_min              =   0.0000000000000E+00
(PID.TID 0000.0001) %MON forcing_qsw_mean             =   0.0000000000000E+00
(PID.TID 0000.0001) %MON forcing_qsw_sd               =   0.0000000000000E+00
(PID.TID 0000.0001) %MON forcing_qsw_del2             =   0.0000000000000E+00
(PID.TID 0000.0001) %MON forcing_empmr_max            =   7.6494447208479E-05
(PID.TID 0000.0001) %MON forcing_empmr_min            =  -1.5362614137596E-04
(PID.TID 0000.0001) %MON forcing_empmr_mean           =  -2.3063038905579E-21
(PID.TID 0000.0001) %MON forcing_empmr_sd             =   2.4051723601802E-05
(PID.TID 0000.0001) %MON forcing_empmr_del2           =   1.2276157049243E-07
(PID.TID 0000.0001) %MON forcing_fu_max               =   2.4726979082249E-01
(PID.TID 0000.0001) %MON forcing_fu_min               =  -2.2495248635365E-01
(PID.TID 0000.0001) %MON forcing_fu_mean              =  -4.2435281147287E-03
(PID.TID 0000.0001) %MON forcing_fu_sd                =   6.4287840534767E-02
(PID.TID 0000.0001) %MON forcing_fu_del2              =   2.1115214806548E-04
(PID.TID 0000.0001) %MON forcing_fv_max               =   2.7159367144430E-01
(PID.TID 0000.0001) %MON forcing_fv_min               =  -3.3243525155752E-01
(PID.TID 0000.0001) %MON forcing_fv_mean              =  -1.3711980340349E-02
(PID.TID 0000.0001) %MON forcing_fv_sd                =   7.5645935346452E-02
(PID.TID 0000.0001) %MON forcing_fv_del2              =   2.3922805906111E-04
(PID.TID 0000.0001) %MON advcfl_uvel_max              =   8.0880714790673E-02
(PID.TID 0000.0001) %MON advcfl_vvel_max              =   7.6164042782343E-02
(PID.TID 0000.0001) %MON advcfl_wvel_max              =   6.7102957253211E-02
(PID.TID 0000.0001) %MON advcfl_W_hf_max              =   7.4120669668529E-02
(PID.TID 0000.0001) %MON pe_b_mean                    =   4.7581158040536E-04
(PID.TID 0000.0001) %MON ke_max                       =   3.9793761837286E-02
(PID.TID 0000.0001) %MON ke_mean                      =   1.4090299350188E-04
(PID.TID 0000.0001) %MON ke_vol                       =   1.3398024453628E+18
(PID.TID 0000.0001) %MON vort_r_min                   =  -1.2195556522365E-06
(PID.TID 0000.0001) %MON vort_r_max                   =   1.2308442489192E-06
(PID.TID 0000.0001) %MON vort_a_mean                  =  -2.0493733748264E-05
(PID.TID 0000.0001) %MON vort_a_sd                    =   7.5053946712657E-05
(PID.TID 0000.0001) %MON vort_p_mean                  =  -2.4715773615945E-05
(PID.TID 0000.0001) %MON vort_p_sd                    =   1.2777073075735E-04
(PID.TID 0000.0001) %MON surfExpan_theta_mean         =   4.6496994834659E-08
(PID.TID 0000.0001) %MON surfExpan_salt_mean          =   1.4098603417668E-08
(PID.TID 0000.0001) // =======================================================
(PID.TID 0000.0001) // End MONITOR dynamic field statistics
(PID.TID 0000.0001) // =======================================================
 cg2d: Sum(rhs),rhsMax =  -9.63495949690696E-12  4.24159888218953E+00
(PID.TID 0000.0001)                    cg2d_init_res =    4.41698811301268E-01
(PID.TID 0000.0001)                       cg2d_iters =    63
(PID.TID 0000.0001)                         cg2d_res =    5.49234774904029E-07
(PID.TID 0000.0001) // =======================================================
(PID.TID 0000.0001) // Begin MONITOR dynamic field statistics
(PID.TID 0000.0001) // =======================================================
(PID.TID 0000.0001) %MON time_tsnumber                =                 72009
(PID.TID 0000.0001) %MON time_secondsf                =   6.2215776000000E+09
(PID.TID 0000.0001) %MON dynstat_eta_max              =   9.0655172240028E-01
(PID.TID 0000.0001) %MON dynstat_eta_min              =  -1.6158162583715E+00
(PID.TID 0000.0001) %MON dynstat_eta_mean             =   1.4441306753814E-14
(PID.TID 0000.0001) %MON dynstat_eta_sd               =   5.9752707557970E-01
(PID.TID 0000.0001) %MON dynstat_eta_del2             =   7.8545406029598E-04
(PID.TID 0000.0001) %MON dynstat_uvel_max             =   1.8783165830077E-01
(PID.TID 0000.0001) %MON dynstat_uvel_min             =  -2.8472461988633E-01
(PID.TID 0000.0001) %MON dynstat_uvel_mean            =  -4.8650545099567E-04
(PID.TID 0000.0001) %MON dynstat_uvel_sd              =   1.2016466354762E-02
(PID.TID 0000.0001) %MON dynstat_uvel_del2            =   5.1006129458578E-05
(PID.TID 0000.0001) %MON dynstat_vvel_max             =   1.7464281971652E-01
(PID.TID 0000.0001) %MON dynstat_vvel_min             =  -2.2475804818794E-01
(PID.TID 0000.0001) %MON dynstat_vvel_mean            =  -4.0132324804375E-04
(PID.TID 0000.0001) %MON dynstat_vvel_sd              =   1.2663515116967E-02
(PID.TID 0000.0001) %MON dynstat_vvel_del2            =   5.0332635592190E-05
(PID.TID 0000.0001) %MON dynstat_wvel_max             =   1.0642149646926E-04
(PID.TID 0000.0001) %MON dynstat_wvel_min             =  -2.0579215871751E-04
(PID.TID 0000.0001) %MON dynstat_wvel_mean            =   1.2716730245396E-10
(PID.TID 0000.0001) %MON dynstat_wvel_sd              =   3.8288341235026E-06
(PID.TID 0000.0001) %MON dynstat_wvel_del2            =   2.6675248253801E-08
(PID.TID 0000.0001) %MON dynstat_theta_max            =   3.1013742416438E+01
(PID.TID 0000.0001) %MON dynstat_theta_min            =  -2.0374909900978E+00
(PID.TID 0000.0001) %MON dynstat_theta_mean           =   3.9096557959317E+00
(PID.TID 0000.0001) %MON dynstat_theta_sd             =   4.5710229712899E+00
(PID.TID 0000.0001) %MON dynstat_theta_del2           =   2.5651864850496E-03
(PID.TID 0000.0001) %MON dynstat_salt_max             =   4.1389429301206E+01
(PID.TID 0000.0001) %MON dynstat_salt_min             =   1.8386626603010E+01
(PID.TID 0000.0001) %MON dynstat_salt_mean            =   3.4772072410379E+01
(PID.TID 0000.0001) %MON dynstat_salt_sd              =   5.3129430493751E-01
(PID.TID 0000.0001) %MON dynstat_salt_del2            =   7.7942695206778E-04
(PID.TID 0000.0001) %MON forcing_qnet_max             =   4.5269258039189E+02
(PID.TID 0000.0001) %MON forcing_qnet_min             =  -2.0724691062470E+02
(PID.TID 0000.0001) %MON forcing_qnet_mean            =  -1.2243649340789E+01
(PID.TID 0000.0001) %MON forcing_qnet_sd              =   1.1419883834096E+02
(PID.TID 0000.0001) %MON forcing_qnet_del2            =   4.2754265772092E-01
(PID.TID 0000.0001) %MON forcing_qsw_max              =   0.0000000000000E+00
(PID.TID 0000.0001) %MON forcing_qsw_min              =   0.0000000000000E+00
(PID.TID 0000.0001) %MON forcing_qsw_mean             =   0.0000000000000E+00
(PID.TID 0000.0001) %MON forcing_qsw_sd               =   0.0000000000000E+00
(PID.TID 0000.0001) %MON forcing_qsw_del2             =   0.0000000000000E+00
(PID.TID 0000.0001) %MON forcing_empmr_max            =   7.6494447208479E-05
(PID.TID 0000.0001) %MON forcing_empmr_min            =  -1.5362614137596E-04
(PID.TID 0000.0001) %MON forcing_empmr_mean           =  -2.7256318706594E-21
(PID.TID 0000.0001) %MON forcing_empmr_sd             =   2.4051723601802E-05
(PID.TID 0000.0001) %MON forcing_empmr_del2           =   1.2276157049243E-07
(PID.TID 0000.0001) %MON forcing_fu_max               =   2.4722174155228E-01
(PID.TID 0000.0001) %MON forcing_fu_min               =  -2.2809828301201E-01
(PID.TID 0000.0001) %MON forcing_fu_mean              =  -4.2000491789953E-03
(PID.TID 0000.0001) %MON forcing_fu_sd                =   6.4391296774987E-02
(PID.TID 0000.0001) %MON forcing_fu_del2              =   2.1293834199113E-04
(PID.TID 0000.0001) %MON forcing_fv_max               =   2.7427691301694E-01
(PID.TID 0000.0001) %MON forcing_fv_min               =  -3.3322315549145E-01
(PID.TID 0000.0001) %MON forcing_fv_mean              =  -1.3715905886277E-02
(PID.TID 0000.0001) %MON forcing_fv_sd                =   7.5757214244312E-02
(PID.TID 0000.0001) %MON forcing_fv_del2              =   2.4079325037298E-04
(PID.TID 0000.0001) %MON advcfl_uvel_max              =   8.0753303051820E-02
(PID.TID 0000.0001) %MON advcfl_vvel_max              =   7.6124344708981E-02
(PID.TID 0000.0001) %MON advcfl_wvel_max              =   6.7096009483748E-02
(PID.TID 0000.0001) %MON advcfl_W_hf_max              =   7.4113036951986E-02
(PID.TID 0000.0001) %MON pe_b_mean                    =   4.7564140259836E-04
(PID.TID 0000.0001) %MON ke_max                       =   3.9665461991177E-02
(PID.TID 0000.0001) %MON ke_mean                      =   1.4091745192065E-04
(PID.TID 0000.0001) %MON ke_vol                       =   1.3398024453628E+18
(PID.TID 0000.0001) %MON vort_r_min                   =  -1.2244864079511E-06
(PID.TID 0000.0001) %MON vort_r_max                   =   1.2338256438719E-06
(PID.TID 0000.0001) %MON vort_a_mean                  =  -2.0493733748264E-05
(PID.TID 0000.0001) %MON vort_a_sd                    =   7.5053946544476E-05
(PID.TID 0000.0001) %MON vort_p_mean                  =  -2.4715773598078E-05
(PID.TID 0000.0001) %MON vort_p_sd                    =   1.2777072578425E-04
(PID.TID 0000.0001) %MON surfExpan_theta_mean         =   4.7573066192778E-08
(PID.TID 0000.0001) %MON surfExpan_salt_mean          =   1.4098817151986E-08
(PID.TID 0000.0001) // =======================================================
(PID.TID 0000.0001) // End MONITOR dynamic field statistics
(PID.TID 0000.0001) // =======================================================
 cg2d: Sum(rhs),rhsMax =  -9.60653778747655E-12  4.23840118602305E+00
(PID.TID 0000.0001)                    cg2d_init_res =    4.39396877822206E-01
(PID.TID 0000.0001)                       cg2d_iters =    63
(PID.TID 0000.0001)                         cg2d_res =    5.44070553095967E-07
(PID.TID 0000.0001) // =======================================================
(PID.TID 0000.0001) // Begin MONITOR dynamic field statistics
(PID.TID 0000.0001) // =======================================================
(PID.TID 0000.0001) %MON time_tsnumber                =                 72010
(PID.TID 0000.0001) %MON time_secondsf                =   6.2216640000000E+09
(PID.TID 0000.0001) %MON dynstat_eta_max              =   9.0518192480331E-01
(PID.TID 0000.0001) %MON dynstat_eta_min              =  -1.6153539008470E+00
(PID.TID 0000.0001) %MON dynstat_eta_mean             =   1.4317641900547E-14
(PID.TID 0000.0001) %MON dynstat_eta_sd               =   5.9742344390747E-01
(PID.TID 0000.0001) %MON dynstat_eta_del2             =   7.8500708620070E-04
(PID.TID 0000.0001) %MON dynstat_uvel_max             =   1.8766338450189E-01
(PID.TID 0000.0001) %MON dynstat_uvel_min             =  -2.8426018501597E-01
(PID.TID 0000.0001) %MON dynstat_uvel_mean            =  -4.8601342209374E-04
(PID.TID 0000.0001) %MON dynstat_uvel_sd              =   1.2015949388930E-02
(PID.TID 0000.0001) %MON dynstat_uvel_del2            =   5.0976805436664E-05
(PID.TID 0000.0001) %MON dynstat_vvel_max             =   1.7449893045958E-01
(PID.TID 0000.0001) %MON dynstat_vvel_min             =  -2.2467539736635E-01
(PID.TID 0000.0001) %MON dynstat_vvel_mean            =  -4.0107979790328E-04
(PID.TID 0000.0001) %MON dynstat_vvel_sd              =   1.2664900671841E-02
(PID.TID 0000.0001) %MON dynstat_vvel_del2            =   5.0298601621462E-05
(PID.TID 0000.0001) %MON dynstat_wvel_max             =   1.0703542482400E-04
(PID.TID 0000.0001) %MON dynstat_wvel_min             =  -2.0570060418107E-04
(PID.TID 0000.0001) %MON dynstat_wvel_mean            =   1.5208442520325E-10
(PID.TID 0000.0001) %MON dynstat_wvel_sd              =   3.8292195648715E-06
(PID.TID 0000.0001) %MON dynstat_wvel_del2            =   2.6725101304786E-08
(PID.TID 0000.0001) %MON dynstat_theta_max            =   3.1021529850488E+01
(PID.TID 0000.0001) %MON dynstat_theta_min            =  -2.0422347462837E+00
(PID.TID 0000.0001) %MON dynstat_theta_mean           =   3.9097153933049E+00
(PID.TID 0000.0001) %MON dynstat_theta_sd             =   4.5710475284509E+00
(PID.TID 0000.0001) %MON dynstat_theta_del2           =   2.5569205600824E-03
(PID.TID 0000.0001) %MON dynstat_salt_max             =   4.1389696016582E+01
(PID.TID 0000.0001) %MON dynstat_salt_min             =   1.8387013631263E+01
(PID.TID 0000.0001) %MON dynstat_salt_mean            =   3.4772072901376E+01
(PID.TID 0000.0001) %MON dynstat_salt_sd              =   5.3127679468216E-01
(PID.TID 0000.0001) %MON dynstat_salt_del2            =   7.7683004014535E-04
(PID.TID 0000.0001) %MON forcing_qnet_max             =   4.5259811942399E+02
(PID.TID 0000.0001) %MON forcing_qnet_min             =  -2.0627455663810E+02
(PID.TID 0000.0001) %MON forcing_qnet_mean            =  -1.2255877709432E+01
(PID.TID 0000.0001) %MON forcing_qnet_sd              =   1.1404708593992E+02
(PID.TID 0000.0001) %MON forcing_qnet_del2            =   4.2945791591934E-01
(PID.TID 0000.0001) %MON forcing_qsw_max              =   0.0000000000000E+00
(PID.TID 0000.0001) %MON forcing_qsw_min              =   0.0000000000000E+00
(PID.TID 0000.0001) %MON forcing_qsw_mean             =   0.0000000000000E+00
(PID.TID 0000.0001) %MON forcing_qsw_sd               =   0.0000000000000E+00
(PID.TID 0000.0001) %MON forcing_qsw_del2             =   0.0000000000000E+00
(PID.TID 0000.0001) %MON forcing_empmr_max            =   7.6494447208479E-05
(PID.TID 0000.0001) %MON forcing_empmr_min            =  -1.5362614137596E-04
(PID.TID 0000.0001) %MON forcing_empmr_mean           =  -1.8869759104565E-21
(PID.TID 0000.0001) %MON forcing_empmr_sd             =   2.4051723601802E-05
(PID.TID 0000.0001) %MON forcing_empmr_del2           =   1.2276157049243E-07
(PID.TID 0000.0001) %MON forcing_fu_max               =   2.4734156444157E-01
(PID.TID 0000.0001) %MON forcing_fu_min               =  -2.3124407967036E-01
(PID.TID 0000.0001) %MON forcing_fu_mean              =  -4.1565702432618E-03
(PID.TID 0000.0001) %MON forcing_fu_sd                =   6.4507945848906E-02
(PID.TID 0000.0001) %MON forcing_fu_del2              =   2.1494094672237E-04
(PID.TID 0000.0001) %MON forcing_fv_max               =   2.7696015458957E-01
(PID.TID 0000.0001) %MON forcing_fv_min               =  -3.3401105942538E-01
(PID.TID 0000.0001) %MON forcing_fv_mean              =  -1.3719831432204E-02
(PID.TID 0000.0001) %MON forcing_fv_sd                =   7.5878609891640E-02
(PID.TID 0000.0001) %MON forcing_fv_del2              =   2.4254447090673E-04
(PID.TID 0000.0001) %MON advcfl_uvel_max              =   8.0621580512868E-02
(PID.TID 0000.0001) %MON advcfl_vvel_max              =   7.6061625409021E-02
(PID.TID 0000.0001) %MON advcfl_wvel_max              =   6.7066159249978E-02
(PID.TID 0000.0001) %MON advcfl_W_hf_max              =   7.4080089453009E-02
(PID.TID 0000.0001) %MON pe_b_mean                    =   4.7547643186639E-04
(PID.TID 0000.0001) %MON ke_max                       =   3.9533951570715E-02
(PID.TID 0000.0001) %MON ke_mean                      =   1.4092772759745E-04
(PID.TID 0000.0001) %MON ke_vol                       =   1.3398024453628E+18
(PID.TID 0000.0001) %MON vort_r_min                   =  -1.2294209888814E-06
(PID.TID 0000.0001) %MON vort_r_max                   =   1.2368419700155E-06
(PID.TID 0000.0001) %MON vort_a_mean                  =  -2.0493733748264E-05
(PID.TID 0000.0001) %MON vort_a_sd                    =   7.5053946378990E-05
(PID.TID 0000.0001) %MON vort_p_mean                  =  -2.4715773588626E-05
(PID.TID 0000.0001) %MON vort_p_sd                    =   1.2777072069856E-04
(PID.TID 0000.0001) %MON surfExpan_theta_mean         =   4.8484944127475E-08
(PID.TID 0000.0001) %MON surfExpan_salt_mean          =   1.4094716471456E-08
(PID.TID 0000.0001) // =======================================================
(PID.TID 0000.0001) // End MONITOR dynamic field statistics
(PID.TID 0000.0001) // =======================================================
 cg2d: Sum(rhs),rhsMax =  -9.77706804405898E-12  4.23553911093792E+00
(PID.TID 0000.0001)                    cg2d_init_res =    4.36201489716784E-01
(PID.TID 0000.0001)                       cg2d_iters =    63
(PID.TID 0000.0001)                         cg2d_res =    5.41732712050589E-07
(PID.TID 0000.0001) // =======================================================
(PID.TID 0000.0001) // Begin MONITOR dynamic field statistics
(PID.TID 0000.0001) // =======================================================
(PID.TID 0000.0001) %MON time_tsnumber                =                 72011
(PID.TID 0000.0001) %MON time_secondsf                =   6.2217504000000E+09
(PID.TID 0000.0001) %MON dynstat_eta_max              =   9.0385582774950E-01
(PID.TID 0000.0001) %MON dynstat_eta_min              =  -1.6148611883112E+00
(PID.TID 0000.0001) %MON dynstat_eta_mean             =   1.4276420282791E-14
(PID.TID 0000.0001) %MON dynstat_eta_sd               =   5.9732323559743E-01
(PID.TID 0000.0001) %MON dynstat_eta_del2             =   7.8460706041080E-04
(PID.TID 0000.0001) %MON dynstat_uvel_max             =   1.8743051002211E-01
(PID.TID 0000.0001) %MON dynstat_uvel_min             =  -2.8378160698177E-01
(PID.TID 0000.0001) %MON dynstat_uvel_mean            =  -4.8544146461199E-04
(PID.TID 0000.0001) %MON dynstat_uvel_sd              =   1.2015565704480E-02
(PID.TID 0000.0001) %MON dynstat_uvel_del2            =   5.0947603424568E-05
(PID.TID 0000.0001) %MON dynstat_vvel_max             =   1.7430566032379E-01
(PID.TID 0000.0001) %MON dynstat_vvel_min             =  -2.2458783822602E-01
(PID.TID 0000.0001) %MON dynstat_vvel_mean            =  -4.0083382826772E-04
(PID.TID 0000.0001) %MON dynstat_vvel_sd              =   1.2665788084113E-02
(PID.TID 0000.0001) %MON dynstat_vvel_del2            =   5.0264734875953E-05
(PID.TID 0000.0001) %MON dynstat_wvel_max             =   1.0765402824346E-04
(PID.TID 0000.0001) %MON dynstat_wvel_min             =  -2.0553727273429E-04
(PID.TID 0000.0001) %MON dynstat_wvel_mean            =   1.7194436639804E-10
(PID.TID 0000.0001) %MON dynstat_wvel_sd              =   3.8298622213694E-06
(PID.TID 0000.0001) %MON dynstat_wvel_del2            =   2.6776843184968E-08
(PID.TID 0000.0001) %MON dynstat_theta_max            =   3.1028993585804E+01
(PID.TID 0000.0001) %MON dynstat_theta_min            =  -2.0470436556508E+00
(PID.TID 0000.0001) %MON dynstat_theta_mean           =   3.9097753515004E+00
(PID.TID 0000.0001) %MON dynstat_theta_sd             =   4.5710793659652E+00
(PID.TID 0000.0001) %MON dynstat_theta_del2           =   2.5489141180218E-03
(PID.TID 0000.0001) %MON dynstat_salt_max             =   4.1389945595581E+01
(PID.TID 0000.0001) %MON dynstat_salt_min             =   1.8387406313205E+01
(PID.TID 0000.0001) %MON dynstat_salt_mean            =   3.4772073408753E+01
(PID.TID 0000.0001) %MON dynstat_salt_sd              =   5.3125952620035E-01
(PID.TID 0000.0001) %MON dynstat_salt_del2            =   7.7426887725534E-04
(PID.TID 0000.0001) %MON forcing_qnet_max             =   4.5250365845610E+02
(PID.TID 0000.0001) %MON forcing_qnet_min             =  -2.0572520854632E+02
(PID.TID 0000.0001) %MON forcing_qnet_mean            =  -1.2268106078075E+01
(PID.TID 0000.0001) %MON forcing_qnet_sd              =   1.1390212158476E+02
(PID.TID 0000.0001) %MON forcing_qnet_del2            =   4.3148470219571E-01
(PID.TID 0000.0001) %MON forcing_qsw_max              =   0.0000000000000E+00
(PID.TID 0000.0001) %MON forcing_qsw_min              =   0.0000000000000E+00
(PID.TID 0000.0001) %MON forcing_qsw_mean             =   0.0000000000000E+00
(PID.TID 0000.0001) %MON forcing_qsw_sd               =   0.0000000000000E+00
(PID.TID 0000.0001) %MON forcing_qsw_del2             =   0.0000000000000E+00
(PID.TID 0000.0001) %MON forcing_empmr_max            =   7.6494447208479E-05
(PID.TID 0000.0001) %MON forcing_empmr_min            =  -1.5362614137596E-04
(PID.TID 0000.0001) %MON forcing_empmr_mean           =  -2.7256318706594E-21
(PID.TID 0000.0001) %MON forcing_empmr_sd             =   2.4051723601802E-05
(PID.TID 0000.0001) %MON forcing_empmr_del2           =   1.2276157049243E-07
(PID.TID 0000.0001) %MON forcing_fu_max               =   2.4760593894036E-01
(PID.TID 0000.0001) %MON forcing_fu_min               =  -2.3438987632871E-01
(PID.TID 0000.0001) %MON forcing_fu_mean              =  -4.1130913075284E-03
(PID.TID 0000.0001) %MON forcing_fu_sd                =   6.4637716330841E-02
(PID.TID 0000.0001) %MON forcing_fu_del2              =   2.1715397508819E-04
(PID.TID 0000.0001) %MON forcing_fv_max               =   2.7964339616220E-01
(PID.TID 0000.0001) %MON forcing_fv_min               =  -3.3479896335931E-01
(PID.TID 0000.0001) %MON forcing_fv_mean              =  -1.3723756978131E-02
(PID.TID 0000.0001) %MON forcing_fv_sd                =   7.6010073816084E-02
(PID.TID 0000.0001) %MON forcing_fv_del2              =   2.4447772305236E-04
(PID.TID 0000.0001) %MON advcfl_uvel_max              =   8.0485846704371E-02
(PID.TID 0000.0001) %MON advcfl_vvel_max              =   7.5977381679661E-02
(PID.TID 0000.0001) %MON advcfl_wvel_max              =   6.7012907034878E-02
(PID.TID 0000.0001) %MON advcfl_W_hf_max              =   7.4021288165763E-02
(PID.TID 0000.0001) %MON pe_b_mean                    =   4.7531693797910E-04
(PID.TID 0000.0001) %MON ke_max                       =   3.9399277748310E-02
(PID.TID 0000.0001) %MON ke_mean                      =   1.4093358727501E-04
(PID.TID 0000.0001) %MON ke_vol                       =   1.3398024453628E+18
(PID.TID 0000.0001) %MON vort_r_min                   =  -1.2343308843922E-06
(PID.TID 0000.0001) %MON vort_r_max                   =   1.2398368546806E-06
(PID.TID 0000.0001) %MON vort_a_mean                  =  -2.0493733748264E-05
(PID.TID 0000.0001) %MON vort_a_sd                    =   7.5053946222411E-05
(PID.TID 0000.0001) %MON vort_p_mean                  =  -2.4715773587879E-05
(PID.TID 0000.0001) %MON vort_p_sd                    =   1.2777071552624E-04
(PID.TID 0000.0001) %MON surfExpan_theta_mean         =   4.9196817085328E-08
(PID.TID 0000.0001) %MON surfExpan_salt_mean          =   1.4095218746821E-08
(PID.TID 0000.0001) // =======================================================
(PID.TID 0000.0001) // End MONITOR dynamic field statistics
(PID.TID 0000.0001) // =======================================================
 cg2d: Sum(rhs),rhsMax =  -9.54969436861575E-12  4.23300290381890E+00
(PID.TID 0000.0001)                    cg2d_init_res =    4.34086613538130E-01
(PID.TID 0000.0001)                       cg2d_iters =    63
(PID.TID 0000.0001)                         cg2d_res =    5.43207469658656E-07
(PID.TID 0000.0001) // =======================================================
(PID.TID 0000.0001) // Begin MONITOR dynamic field statistics
(PID.TID 0000.0001) // =======================================================
(PID.TID 0000.0001) %MON time_tsnumber                =                 72012
(PID.TID 0000.0001) %MON time_secondsf                =   6.2218368000000E+09
(PID.TID 0000.0001) %MON dynstat_eta_max              =   9.0256013396771E-01
(PID.TID 0000.0001) %MON dynstat_eta_min              =  -1.6143397405133E+00
(PID.TID 0000.0001) %MON dynstat_eta_mean             =   1.4413825675310E-14
(PID.TID 0000.0001) %MON dynstat_eta_sd               =   5.9722697954084E-01
(PID.TID 0000.0001) %MON dynstat_eta_del2             =   7.8426723707632E-04
(PID.TID 0000.0001) %MON dynstat_uvel_max             =   1.8713599649351E-01
(PID.TID 0000.0001) %MON dynstat_uvel_min             =  -2.8328982995675E-01
(PID.TID 0000.0001) %MON dynstat_uvel_mean            =  -4.8479982113556E-04
(PID.TID 0000.0001) %MON dynstat_uvel_sd              =   1.2015321203129E-02
(PID.TID 0000.0001) %MON dynstat_uvel_del2            =   5.0918839596577E-05
(PID.TID 0000.0001) %MON dynstat_vvel_max             =   1.7406677674176E-01
(PID.TID 0000.0001) %MON dynstat_vvel_min             =  -2.2449573008870E-01
(PID.TID 0000.0001) %MON dynstat_vvel_mean            =  -4.0056338333183E-04
(PID.TID 0000.0001) %MON dynstat_vvel_sd              =   1.2666155714495E-02
(PID.TID 0000.0001) %MON dynstat_vvel_del2            =   5.0231048345170E-05
(PID.TID 0000.0001) %MON dynstat_wvel_max             =   1.0826480144350E-04
(PID.TID 0000.0001) %MON dynstat_wvel_min             =  -2.0530164509302E-04
(PID.TID 0000.0001) %MON dynstat_wvel_mean            =   1.8346779553311E-10
(PID.TID 0000.0001) %MON dynstat_wvel_sd              =   3.8306986808733E-06
(PID.TID 0000.0001) %MON dynstat_wvel_del2            =   2.6828911924184E-08
(PID.TID 0000.0001) %MON dynstat_theta_max            =   3.1036152236877E+01
(PID.TID 0000.0001) %MON dynstat_theta_min            =  -2.0519080440573E+00
(PID.TID 0000.0001) %MON dynstat_theta_mean           =   3.9098355783318E+00
(PID.TID 0000.0001) %MON dynstat_theta_sd             =   4.5711182407979E+00
(PID.TID 0000.0001) %MON dynstat_theta_del2           =   2.5401260010835E-03
(PID.TID 0000.0001) %MON dynstat_salt_max             =   4.1390178179074E+01
(PID.TID 0000.0001) %MON dynstat_salt_min             =   1.8387804621343E+01
(PID.TID 0000.0001) %MON dynstat_salt_mean            =   3.4772073931071E+01
(PID.TID 0000.0001) %MON dynstat_salt_sd              =   5.3124213114015E-01
(PID.TID 0000.0001) %MON dynstat_salt_del2            =   7.7151047139990E-04
(PID.TID 0000.0001) %MON forcing_qnet_max             =   4.5240919748820E+02
(PID.TID 0000.0001) %MON forcing_qnet_min             =  -2.0540092066247E+02
(PID.TID 0000.0001) %MON forcing_qnet_mean            =  -1.2280334446718E+01
(PID.TID 0000.0001) %MON forcing_qnet_sd              =   1.1376397122458E+02
(PID.TID 0000.0001) %MON forcing_qnet_del2            =   4.3362145267556E-01
(PID.TID 0000.0001) %MON forcing_qsw_max              =   0.0000000000000E+00
(PID.TID 0000.0001) %MON forcing_qsw_min              =   0.0000000000000E+00
(PID.TID 0000.0001) %MON forcing_qsw_mean             =   0.0000000000000E+00
(PID.TID 0000.0001) %MON forcing_qsw_sd               =   0.0000000000000E+00
(PID.TID 0000.0001) %MON forcing_qsw_del2             =   0.0000000000000E+00
(PID.TID 0000.0001) %MON forcing_empmr_max            =   7.6494447208479E-05
(PID.TID 0000.0001) %MON forcing_empmr_min            =  -1.5362614137596E-04
(PID.TID 0000.0001) %MON forcing_empmr_mean           =  -2.7256318706594E-21
(PID.TID 0000.0001) %MON forcing_empmr_sd             =   2.4051723601802E-05
(PID.TID 0000.0001) %MON forcing_empmr_del2           =   1.2276157049243E-07
(PID.TID 0000.0001) %MON forcing_fu_max               =   2.4787031343914E-01
(PID.TID 0000.0001) %MON forcing_fu_min               =  -2.3765894517478E-01
(PID.TID 0000.0001) %MON forcing_fu_mean              =  -4.0696123717950E-03
(PID.TID 0000.0001) %MON forcing_fu_sd                =   6.4780529365136E-02
(PID.TID 0000.0001) %MON forcing_fu_del2              =   2.1957106468296E-04
(PID.TID 0000.0001) %MON forcing_fv_max               =   2.8232663773484E-01
(PID.TID 0000.0001) %MON forcing_fv_min               =  -3.3558686729325E-01
(PID.TID 0000.0001) %MON forcing_fv_mean              =  -1.3727682524059E-02
(PID.TID 0000.0001) %MON forcing_fv_sd                =   7.6151553873676E-02
(PID.TID 0000.0001) %MON forcing_fv_del2              =   2.4658872547121E-04
(PID.TID 0000.0001) %MON advcfl_uvel_max              =   8.0346369411712E-02
(PID.TID 0000.0001) %MON advcfl_vvel_max              =   7.5873255691700E-02
(PID.TID 0000.0001) %MON advcfl_wvel_max              =   6.6936083532216E-02
(PID.TID 0000.0001) %MON advcfl_W_hf_max              =   7.3936449574824E-02
(PID.TID 0000.0001) %MON pe_b_mean                    =   4.7516375978354E-04
(PID.TID 0000.0001) %MON ke_max                       =   3.9261511595760E-02
(PID.TID 0000.0001) %MON ke_mean                      =   1.4093483666027E-04
(PID.TID 0000.0001) %MON ke_vol                       =   1.3398024453628E+18
(PID.TID 0000.0001) %MON vort_r_min                   =  -1.2391892299369E-06
(PID.TID 0000.0001) %MON vort_r_max                   =   1.2427547598738E-06
(PID.TID 0000.0001) %MON vort_a_mean                  =  -2.0493733748264E-05
(PID.TID 0000.0001) %MON vort_a_sd                    =   7.5053946079404E-05
(PID.TID 0000.0001) %MON vort_p_mean                  =  -2.4715773593991E-05
(PID.TID 0000.0001) %MON vort_p_sd                    =   1.2777071033750E-04
(PID.TID 0000.0001) %MON surfExpan_theta_mean         =   4.9698835629880E-08
(PID.TID 0000.0001) %MON surfExpan_salt_mean          =   1.4106332922212E-08
(PID.TID 0000.0001) // =======================================================
(PID.TID 0000.0001) // End MONITOR dynamic field statistics
(PID.TID 0000.0001) // =======================================================
 cg2d: Sum(rhs),rhsMax =  -9.80548975348938E-12  4.23077337865541E+00
(PID.TID 0000.0001)                    cg2d_init_res =    4.32569088283572E-01
(PID.TID 0000.0001)                       cg2d_iters =    63
(PID.TID 0000.0001)                         cg2d_res =    5.46507041029730E-07
(PID.TID 0000.0001) // =======================================================
(PID.TID 0000.0001) // Begin MONITOR dynamic field statistics
(PID.TID 0000.0001) // =======================================================
(PID.TID 0000.0001) %MON time_tsnumber                =                 72013
(PID.TID 0000.0001) %MON time_secondsf                =   6.2219232000000E+09
(PID.TID 0000.0001) %MON dynstat_eta_max              =   9.0129131135298E-01
(PID.TID 0000.0001) %MON dynstat_eta_min              =  -1.6137948869441E+00
(PID.TID 0000.0001) %MON dynstat_eta_mean             =   1.4400085136058E-14
(PID.TID 0000.0001) %MON dynstat_eta_sd               =   5.9713470711386E-01
(PID.TID 0000.0001) %MON dynstat_eta_del2             =   7.8397452789915E-04
(PID.TID 0000.0001) %MON dynstat_uvel_max             =   1.8678365436935E-01
(PID.TID 0000.0001) %MON dynstat_uvel_min             =  -2.8278567840803E-01
(PID.TID 0000.0001) %MON dynstat_uvel_mean            =  -4.8410968516690E-04
(PID.TID 0000.0001) %MON dynstat_uvel_sd              =   1.2015209504321E-02
(PID.TID 0000.0001) %MON dynstat_uvel_del2            =   5.0890870963991E-05
(PID.TID 0000.0001) %MON dynstat_vvel_max             =   1.7378619304459E-01
(PID.TID 0000.0001) %MON dynstat_vvel_min             =  -2.2439941073638E-01
(PID.TID 0000.0001) %MON dynstat_vvel_mean            =  -4.0025450187304E-04
(PID.TID 0000.0001) %MON dynstat_vvel_sd              =   1.2665997727203E-02
(PID.TID 0000.0001) %MON dynstat_vvel_del2            =   5.0197545829174E-05
(PID.TID 0000.0001) %MON dynstat_wvel_max             =   1.0885503625331E-04
(PID.TID 0000.0001) %MON dynstat_wvel_min             =  -2.0499453142930E-04
(PID.TID 0000.0001) %MON dynstat_wvel_mean            =   1.8637442839622E-10
(PID.TID 0000.0001) %MON dynstat_wvel_sd              =   3.8316575956227E-06
(PID.TID 0000.0001) %MON dynstat_wvel_del2            =   2.6879801093093E-08
(PID.TID 0000.0001) %MON dynstat_theta_max            =   3.1043024002811E+01
(PID.TID 0000.0001) %MON dynstat_theta_min            =  -2.0568191480190E+00
(PID.TID 0000.0001) %MON dynstat_theta_mean           =   3.9098960766063E+00
(PID.TID 0000.0001) %MON dynstat_theta_sd             =   4.5711600180482E+00
(PID.TID 0000.0001) %MON dynstat_theta_del2           =   2.5346120468139E-03
(PID.TID 0000.0001) %MON dynstat_salt_max             =   4.1390393835531E+01
(PID.TID 0000.0001) %MON dynstat_salt_min             =   1.8388208545808E+01
(PID.TID 0000.0001) %MON dynstat_salt_mean            =   3.4772074467810E+01
(PID.TID 0000.0001) %MON dynstat_salt_sd              =   5.3122336587597E-01
(PID.TID 0000.0001) %MON dynstat_salt_del2            =   7.6960213820518E-04
(PID.TID 0000.0001) %MON forcing_qnet_max             =   4.5231473652030E+02
(PID.TID 0000.0001) %MON forcing_qnet_min             =  -2.0507663277863E+02
(PID.TID 0000.0001) %MON forcing_qnet_mean            =  -1.2292562815361E+01
(PID.TID 0000.0001) %MON forcing_qnet_sd              =   1.1363265971198E+02
(PID.TID 0000.0001) %MON forcing_qnet_del2            =   4.3586655012794E-01
(PID.TID 0000.0001) %MON forcing_qsw_max              =   0.0000000000000E+00
(PID.TID 0000.0001) %MON forcing_qsw_min              =   0.0000000000000E+00
(PID.TID 0000.0001) %MON forcing_qsw_mean             =   0.0000000000000E+00
(PID.TID 0000.0001) %MON forcing_qsw_sd               =   0.0000000000000E+00
(PID.TID 0000.0001) %MON forcing_qsw_del2             =   0.0000000000000E+00
(PID.TID 0000.0001) %MON forcing_empmr_max            =   7.6494447208479E-05
(PID.TID 0000.0001) %MON forcing_empmr_min            =  -1.5362614137596E-04
(PID.TID 0000.0001) %MON forcing_empmr_mean           =  -2.7256318706594E-21
(PID.TID 0000.0001) %MON forcing_empmr_sd             =   2.4051723601802E-05
(PID.TID 0000.0001) %MON forcing_empmr_del2           =   1.2276157049243E-07
(PID.TID 0000.0001) %MON forcing_fu_max               =   2.4813468793793E-01
(PID.TID 0000.0001) %MON forcing_fu_min               =  -2.4114197747619E-01
(PID.TID 0000.0001) %MON forcing_fu_mean              =  -4.0261334360615E-03
(PID.TID 0000.0001) %MON forcing_fu_sd                =   6.4936298899217E-02
(PID.TID 0000.0001) %MON forcing_fu_del2              =   2.2218555584494E-04
(PID.TID 0000.0001) %MON forcing_fv_max               =   2.8500987930747E-01
(PID.TID 0000.0001) %MON forcing_fv_min               =  -3.3637477122718E-01
(PID.TID 0000.0001) %MON forcing_fv_mean              =  -1.3731608069986E-02
(PID.TID 0000.0001) %MON forcing_fv_sd                =   7.6302994349070E-02
(PID.TID 0000.0001) %MON forcing_fv_del2              =   2.4887295503804E-04
(PID.TID 0000.0001) %MON advcfl_uvel_max              =   8.0203382469401E-02
(PID.TID 0000.0001) %MON advcfl_vvel_max              =   7.5750953211024E-02
(PID.TID 0000.0001) %MON advcfl_wvel_max              =   6.6835952888648E-02
(PID.TID 0000.0001) %MON advcfl_W_hf_max              =   7.3825866813995E-02
(PID.TID 0000.0001) %MON pe_b_mean                    =   4.7501694415795E-04
(PID.TID 0000.0001) %MON ke_max                       =   3.9120741975285E-02
(PID.TID 0000.0001) %MON ke_mean                      =   1.4093134025177E-04
(PID.TID 0000.0001) %MON ke_vol                       =   1.3398024453628E+18
(PID.TID 0000.0001) %MON vort_r_min                   =  -1.2439707629527E-06
(PID.TID 0000.0001) %MON vort_r_max                   =   1.2455418619372E-06
(PID.TID 0000.0001) %MON vort_a_mean                  =  -2.0493733748264E-05
(PID.TID 0000.0001) %MON vort_a_sd                    =   7.5053945952344E-05
(PID.TID 0000.0001) %MON vort_p_mean                  =  -2.4715773604943E-05
(PID.TID 0000.0001) %MON vort_p_sd                    =   1.2777070520739E-04
(PID.TID 0000.0001) %MON surfExpan_theta_mean         =   4.9970192222736E-08
(PID.TID 0000.0001) %MON surfExpan_salt_mean          =   1.4124049869676E-08
(PID.TID 0000.0001) // =======================================================
(PID.TID 0000.0001) // End MONITOR dynamic field statistics
(PID.TID 0000.0001) // =======================================================
 cg2d: Sum(rhs),rhsMax =  -9.66338120633736E-12  4.22882246060732E+00
(PID.TID 0000.0001)                    cg2d_init_res =    4.31328494192089E-01
(PID.TID 0000.0001)                       cg2d_iters =    63
(PID.TID 0000.0001)                         cg2d_res =    5.45096701328930E-07
(PID.TID 0000.0001) // =======================================================
(PID.TID 0000.0001) // Begin MONITOR dynamic field statistics
(PID.TID 0000.0001) // =======================================================
(PID.TID 0000.0001) %MON time_tsnumber                =                 72014
(PID.TID 0000.0001) %MON time_secondsf                =   6.2220096000000E+09
(PID.TID 0000.0001) %MON dynstat_eta_max              =   9.0004791300860E-01
(PID.TID 0000.0001) %MON dynstat_eta_min              =  -1.6132320561285E+00
(PID.TID 0000.0001) %MON dynstat_eta_mean             =   1.4537490528578E-14
(PID.TID 0000.0001) %MON dynstat_eta_sd               =   5.9704631900672E-01
(PID.TID 0000.0001) %MON dynstat_eta_del2             =   7.8381008365571E-04
(PID.TID 0000.0001) %MON dynstat_uvel_max             =   1.8637807445198E-01
(PID.TID 0000.0001) %MON dynstat_uvel_min             =  -2.8226983883888E-01
(PID.TID 0000.0001) %MON dynstat_uvel_mean            =  -4.8339453833980E-04
(PID.TID 0000.0001) %MON dynstat_uvel_sd              =   1.2015213078119E-02
(PID.TID 0000.0001) %MON dynstat_uvel_del2            =   5.0864046303417E-05
(PID.TID 0000.0001) %MON dynstat_vvel_max             =   1.7346774413771E-01
(PID.TID 0000.0001) %MON dynstat_vvel_min             =  -2.2429921688722E-01
(PID.TID 0000.0001) %MON dynstat_vvel_mean            =  -3.9990252624397E-04
(PID.TID 0000.0001) %MON dynstat_vvel_sd              =   1.2665325953176E-02
(PID.TID 0000.0001) %MON dynstat_vvel_del2            =   5.0164297749156E-05
(PID.TID 0000.0001) %MON dynstat_wvel_max             =   1.0941274475388E-04
(PID.TID 0000.0001) %MON dynstat_wvel_min             =  -2.0461772617259E-04
(PID.TID 0000.0001) %MON dynstat_wvel_mean            =   1.7867551465248E-10
(PID.TID 0000.0001) %MON dynstat_wvel_sd              =   3.8326787241931E-06
(PID.TID 0000.0001) %MON dynstat_wvel_del2            =   2.6928506677721E-08
(PID.TID 0000.0001) %MON dynstat_theta_max            =   3.1049626400223E+01
(PID.TID 0000.0001) %MON dynstat_theta_min            =  -2.0617688830305E+00
(PID.TID 0000.0001) %MON dynstat_theta_mean           =   3.9099568223687E+00
(PID.TID 0000.0001) %MON dynstat_theta_sd             =   4.5712110593857E+00
(PID.TID 0000.0001) %MON dynstat_theta_del2           =   2.5276789376488E-03
(PID.TID 0000.0001) %MON dynstat_salt_max             =   4.1390592598983E+01
(PID.TID 0000.0001) %MON dynstat_salt_min             =   1.8388618096679E+01
(PID.TID 0000.0001) %MON dynstat_salt_mean            =   3.4772075019425E+01
(PID.TID 0000.0001) %MON dynstat_salt_sd              =   5.3120516088568E-01
(PID.TID 0000.0001) %MON dynstat_salt_del2            =   7.6748105527378E-04
(PID.TID 0000.0001) %MON forcing_qnet_max             =   4.5222027555240E+02
(PID.TID 0000.0001) %MON forcing_qnet_min             =  -2.0475234489479E+02
(PID.TID 0000.0001) %MON forcing_qnet_mean            =  -1.2304791184004E+01
(PID.TID 0000.0001) %MON forcing_qnet_sd              =   1.1350821078146E+02
(PID.TID 0000.0001) %MON forcing_qnet_del2            =   4.3821832929352E-01
(PID.TID 0000.0001) %MON forcing_qsw_max              =   0.0000000000000E+00
(PID.TID 0000.0001) %MON forcing_qsw_min              =   0.0000000000000E+00
(PID.TID 0000.0001) %MON forcing_qsw_mean             =   0.0000000000000E+00
(PID.TID 0000.0001) %MON forcing_qsw_sd               =   0.0000000000000E+00
(PID.TID 0000.0001) %MON forcing_qsw_del2             =   0.0000000000000E+00
(PID.TID 0000.0001) %MON forcing_empmr_max            =   7.6494447208479E-05
(PID.TID 0000.0001) %MON forcing_empmr_min            =  -1.5362614137596E-04
(PID.TID 0000.0001) %MON forcing_empmr_mean           =  -2.7256318706594E-21
(PID.TID 0000.0001) %MON forcing_empmr_sd             =   2.4051723601802E-05
(PID.TID 0000.0001) %MON forcing_empmr_del2           =   1.2276157049243E-07
(PID.TID 0000.0001) %MON forcing_fu_max               =   2.4839906243671E-01
(PID.TID 0000.0001) %MON forcing_fu_min               =  -2.4462500977759E-01
(PID.TID 0000.0001) %MON forcing_fu_mean              =  -3.9826545003281E-03
(PID.TID 0000.0001) %MON forcing_fu_sd                =   6.5104931934298E-02
(PID.TID 0000.0001) %MON forcing_fu_del2              =   2.2499056699550E-04
(PID.TID 0000.0001) %MON forcing_fv_max               =   2.8769312088010E-01
(PID.TID 0000.0001) %MON forcing_fv_min               =  -3.3716267516111E-01
(PID.TID 0000.0001) %MON forcing_fv_mean              =  -1.3735533615913E-02
(PID.TID 0000.0001) %MON forcing_fv_sd                =   7.6464336061349E-02
(PID.TID 0000.0001) %MON forcing_fv_del2              =   2.5132568855654E-04
(PID.TID 0000.0001) %MON advcfl_uvel_max              =   8.0057080582792E-02
(PID.TID 0000.0001) %MON advcfl_vvel_max              =   7.5612145818894E-02
(PID.TID 0000.0001) %MON advcfl_wvel_max              =   6.6713100155893E-02
(PID.TID 0000.0001) %MON advcfl_W_hf_max              =   7.3690186914802E-02
(PID.TID 0000.0001) %MON pe_b_mean                    =   4.7487633018703E-04
(PID.TID 0000.0001) %MON ke_max                       =   3.8977065426789E-02
(PID.TID 0000.0001) %MON ke_mean                      =   1.4092305252894E-04
(PID.TID 0000.0001) %MON ke_vol                       =   1.3398024453628E+18
(PID.TID 0000.0001) %MON vort_r_min                   =  -1.2486519157332E-06
(PID.TID 0000.0001) %MON vort_r_max                   =   1.2481462742789E-06
(PID.TID 0000.0001) %MON vort_a_mean                  =  -2.0493733748264E-05
(PID.TID 0000.0001) %MON vort_a_sd                    =   7.5053945842052E-05
(PID.TID 0000.0001) %MON vort_p_mean                  =  -2.4715773618146E-05
(PID.TID 0000.0001) %MON vort_p_sd                    =   1.2777070019199E-04
(PID.TID 0000.0001) %MON surfExpan_theta_mean         =   5.0012907967289E-08
(PID.TID 0000.0001) %MON surfExpan_salt_mean          =   1.4144835278433E-08
(PID.TID 0000.0001) // =======================================================
(PID.TID 0000.0001) // End MONITOR dynamic field statistics
(PID.TID 0000.0001) // =======================================================
 cg2d: Sum(rhs),rhsMax =  -9.63495949690696E-12  4.22711470300476E+00
(PID.TID 0000.0001)                    cg2d_init_res =    4.30037124168698E-01
(PID.TID 0000.0001)                       cg2d_iters =    63
(PID.TID 0000.0001)                         cg2d_res =    5.43886546260948E-07
(PID.TID 0000.0001) // =======================================================
(PID.TID 0000.0001) // Begin MONITOR dynamic field statistics
(PID.TID 0000.0001) // =======================================================
(PID.TID 0000.0001) %MON time_tsnumber                =                 72015
(PID.TID 0000.0001) %MON time_secondsf                =   6.2220960000000E+09
(PID.TID 0000.0001) %MON dynstat_eta_max              =   8.9883807443817E-01
(PID.TID 0000.0001) %MON dynstat_eta_min              =  -1.6126552263326E+00
(PID.TID 0000.0001) %MON dynstat_eta_mean             =   1.4386344596806E-14
(PID.TID 0000.0001) %MON dynstat_eta_sd               =   5.9696131819172E-01
(PID.TID 0000.0001) %MON dynstat_eta_del2             =   7.8363864250464E-04
(PID.TID 0000.0001) %MON dynstat_uvel_max             =   1.8592454171999E-01
(PID.TID 0000.0001) %MON dynstat_uvel_min             =  -2.8174285574290E-01
(PID.TID 0000.0001) %MON dynstat_uvel_mean            =  -4.8266273997347E-04
(PID.TID 0000.0001) %MON dynstat_uvel_sd              =   1.2015301192723E-02
(PID.TID 0000.0001) %MON dynstat_uvel_del2            =   5.0838467621106E-05
(PID.TID 0000.0001) %MON dynstat_vvel_max             =   1.7311505718407E-01
(PID.TID 0000.0001) %MON dynstat_vvel_min             =  -2.2419548313885E-01
(PID.TID 0000.0001) %MON dynstat_vvel_mean            =  -3.9950939621111E-04
(PID.TID 0000.0001) %MON dynstat_vvel_sd              =   1.2664164448440E-02
(PID.TID 0000.0001) %MON dynstat_vvel_del2            =   5.0131320983515E-05
(PID.TID 0000.0001) %MON dynstat_wvel_max             =   1.0992774365677E-04
(PID.TID 0000.0001) %MON dynstat_wvel_min             =  -2.0417583045586E-04
(PID.TID 0000.0001) %MON dynstat_wvel_mean            =   1.6508145806259E-10
(PID.TID 0000.0001) %MON dynstat_wvel_sd              =   3.8336412710180E-06
(PID.TID 0000.0001) %MON dynstat_wvel_del2            =   2.6972554446857E-08
(PID.TID 0000.0001) %MON dynstat_theta_max            =   3.1055975984884E+01
(PID.TID 0000.0001) %MON dynstat_theta_min            =  -2.0667490223906E+00
(PID.TID 0000.0001) %MON dynstat_theta_mean           =   3.9100178403585E+00
(PID.TID 0000.0001) %MON dynstat_theta_sd             =   4.5712685780511E+00
(PID.TID 0000.0001) %MON dynstat_theta_del2           =   2.5230698977994E-03
(PID.TID 0000.0001) %MON dynstat_salt_max             =   4.1390774516763E+01
(PID.TID 0000.0001) %MON dynstat_salt_min             =   1.8389033306831E+01
(PID.TID 0000.0001) %MON dynstat_salt_mean            =   3.4772075587698E+01
(PID.TID 0000.0001) %MON dynstat_salt_sd              =   5.3118663796041E-01
(PID.TID 0000.0001) %MON dynstat_salt_del2            =   7.6574735486461E-04
(PID.TID 0000.0001) %MON forcing_qnet_max             =   4.5655909646370E+02
(PID.TID 0000.0001) %MON forcing_qnet_min             =  -2.0442805701094E+02
(PID.TID 0000.0001) %MON forcing_qnet_mean            =  -1.2317019552647E+01
(PID.TID 0000.0001) %MON forcing_qnet_sd              =   1.1339064702855E+02
(PID.TID 0000.0001) %MON forcing_qnet_del2            =   4.4067508217007E-01
(PID.TID 0000.0001) %MON forcing_qsw_max              =   0.0000000000000E+00
(PID.TID 0000.0001) %MON forcing_qsw_min              =   0.0000000000000E+00
(PID.TID 0000.0001) %MON forcing_qsw_mean             =   0.0000000000000E+00
(PID.TID 0000.0001) %MON forcing_qsw_sd               =   0.0000000000000E+00
(PID.TID 0000.0001) %MON forcing_qsw_del2             =   0.0000000000000E+00
(PID.TID 0000.0001) %MON forcing_empmr_max            =   7.6494447208479E-05
(PID.TID 0000.0001) %MON forcing_empmr_min            =  -1.5362614137596E-04
(PID.TID 0000.0001) %MON forcing_empmr_mean           =  -2.7256318706594E-21
(PID.TID 0000.0001) %MON forcing_empmr_sd             =   2.4051723601802E-05
(PID.TID 0000.0001) %MON forcing_empmr_del2           =   1.2276157049243E-07
(PID.TID 0000.0001) %MON forcing_fu_max               =   2.4866343693550E-01
(PID.TID 0000.0001) %MON forcing_fu_min               =  -2.4810804207900E-01
(PID.TID 0000.0001) %MON forcing_fu_mean              =  -3.9391755645947E-03
(PID.TID 0000.0001) %MON forcing_fu_sd                =   6.5286328792105E-02
(PID.TID 0000.0001) %MON forcing_fu_del2              =   2.2797906587778E-04
(PID.TID 0000.0001) %MON forcing_fv_max               =   2.9037636245273E-01
(PID.TID 0000.0001) %MON forcing_fv_min               =  -3.3795057909504E-01
(PID.TID 0000.0001) %MON forcing_fv_mean              =  -1.3739459161841E-02
(PID.TID 0000.0001) %MON forcing_fv_sd                =   7.6635516474945E-02
(PID.TID 0000.0001) %MON forcing_fv_del2              =   2.5394204351914E-04
(PID.TID 0000.0001) %MON advcfl_uvel_max              =   7.9907618180596E-02
(PID.TID 0000.0001) %MON advcfl_vvel_max              =   7.5458414544533E-02
(PID.TID 0000.0001) %MON advcfl_wvel_max              =   6.6569025476929E-02
(PID.TID 0000.0001) %MON advcfl_W_hf_max              =   7.3531065978445E-02
(PID.TID 0000.0001) %MON pe_b_mean                    =   4.7474112459090E-04
(PID.TID 0000.0001) %MON ke_max                       =   3.8830580129085E-02
(PID.TID 0000.0001) %MON ke_mean                      =   1.4090992203471E-04
(PID.TID 0000.0001) %MON ke_vol                       =   1.3398024453628E+18
(PID.TID 0000.0001) %MON vort_r_min                   =  -1.2532109725001E-06
(PID.TID 0000.0001) %MON vort_r_max                   =   1.2505186878226E-06
(PID.TID 0000.0001) %MON vort_a_mean                  =  -2.0493733748264E-05
(PID.TID 0000.0001) %MON vort_a_sd                    =   7.5053945746352E-05
(PID.TID 0000.0001) %MON vort_p_mean                  =  -2.4715773629649E-05
(PID.TID 0000.0001) %MON vort_p_sd                    =   1.2777069535678E-04
(PID.TID 0000.0001) %MON surfExpan_theta_mean         =   4.9863995701827E-08
(PID.TID 0000.0001) %MON surfExpan_salt_mean          =   1.4172130784847E-08
(PID.TID 0000.0001) // =======================================================
(PID.TID 0000.0001) // End MONITOR dynamic field statistics
(PID.TID 0000.0001) // =======================================================
 EXTERNAL_FIELDS_LOAD, it=     72015 : Reading new data, i0,i1=    1    2 (prev=   12    1 )
 cg2d: Sum(rhs),rhsMax =  -9.69180291576777E-12  4.22560897542637E+00
(PID.TID 0000.0001)                    cg2d_init_res =    4.29573143538087E-01
(PID.TID 0000.0001)                       cg2d_iters =    63
(PID.TID 0000.0001)                         cg2d_res =    5.47383317496429E-07
(PID.TID 0000.0001) // =======================================================
(PID.TID 0000.0001) // Begin MONITOR dynamic field statistics
(PID.TID 0000.0001) // =======================================================
(PID.TID 0000.0001) %MON time_tsnumber                =                 72016
(PID.TID 0000.0001) %MON time_secondsf                =   6.2221824000000E+09
(PID.TID 0000.0001) %MON dynstat_eta_max              =   8.9765437041198E-01
(PID.TID 0000.0001) %MON dynstat_eta_min              =  -1.6120670108617E+00
(PID.TID 0000.0001) %MON dynstat_eta_mean             =   1.4290160822043E-14
(PID.TID 0000.0001) %MON dynstat_eta_sd               =   5.9687899915743E-01
(PID.TID 0000.0001) %MON dynstat_eta_del2             =   7.8349722949205E-04
(PID.TID 0000.0001) %MON dynstat_uvel_max             =   1.8542893979852E-01
(PID.TID 0000.0001) %MON dynstat_uvel_min             =  -2.8120513423106E-01
(PID.TID 0000.0001) %MON dynstat_uvel_mean            =  -4.8192611296815E-04
(PID.TID 0000.0001) %MON dynstat_uvel_sd              =   1.2015433399194E-02
(PID.TID 0000.0001) %MON dynstat_uvel_del2            =   5.0814288241866E-05
(PID.TID 0000.0001) %MON dynstat_vvel_max             =   1.7273141802751E-01
(PID.TID 0000.0001) %MON dynstat_vvel_min             =  -2.2408853483942E-01
(PID.TID 0000.0001) %MON dynstat_vvel_mean            =  -3.9908188030439E-04
(PID.TID 0000.0001) %MON dynstat_vvel_sd              =   1.2662553517614E-02
(PID.TID 0000.0001) %MON dynstat_vvel_del2            =   5.0098566063928E-05
(PID.TID 0000.0001) %MON dynstat_wvel_max             =   1.1039331181543E-04
(PID.TID 0000.0001) %MON dynstat_wvel_min             =  -2.0367423319818E-04
(PID.TID 0000.0001) %MON dynstat_wvel_mean            =   1.4511020739409E-10
(PID.TID 0000.0001) %MON dynstat_wvel_sd              =   3.8345112319652E-06
(PID.TID 0000.0001) %MON dynstat_wvel_del2            =   2.7012742483645E-08
(PID.TID 0000.0001) %MON dynstat_theta_max            =   3.1062088047405E+01
(PID.TID 0000.0001) %MON dynstat_theta_min            =  -2.0717514854739E+00
(PID.TID 0000.0001) %MON dynstat_theta_mean           =   3.9100790485288E+00
(PID.TID 0000.0001) %MON dynstat_theta_sd             =   4.5713345077261E+00
(PID.TID 0000.0001) %MON dynstat_theta_del2           =   2.5170810185218E-03
(PID.TID 0000.0001) %MON dynstat_salt_max             =   4.1390939656972E+01
(PID.TID 0000.0001) %MON dynstat_salt_min             =   1.8389454235169E+01
(PID.TID 0000.0001) %MON dynstat_salt_mean            =   3.4772076170779E+01
(PID.TID 0000.0001) %MON dynstat_salt_sd              =   5.3116866495846E-01
(PID.TID 0000.0001) %MON dynstat_salt_del2            =   7.6328388668223E-04
(PID.TID 0000.0001) %MON forcing_qnet_max             =   4.6211611868841E+02
(PID.TID 0000.0001) %MON forcing_qnet_min             =  -2.0410376912710E+02
(PID.TID 0000.0001) %MON forcing_qnet_mean            =  -1.2329247921290E+01
(PID.TID 0000.0001) %MON forcing_qnet_sd              =   1.1327998988989E+02
(PID.TID 0000.0001) %MON forcing_qnet_del2            =   4.4323506322358E-01
(PID.TID 0000.0001) %MON forcing_qsw_max              =   0.0000000000000E+00
(PID.TID 0000.0001) %MON forcing_qsw_min              =   0.0000000000000E+00
(PID.TID 0000.0001) %MON forcing_qsw_mean             =   0.0000000000000E+00
(PID.TID 0000.0001) %MON forcing_qsw_sd               =   0.0000000000000E+00
(PID.TID 0000.0001) %MON forcing_qsw_del2             =   0.0000000000000E+00
(PID.TID 0000.0001) %MON forcing_empmr_max            =   7.6494447208479E-05
(PID.TID 0000.0001) %MON forcing_empmr_min            =  -1.5362614137596E-04
(PID.TID 0000.0001) %MON forcing_empmr_mean           =  -2.7256318706594E-21
(PID.TID 0000.0001) %MON forcing_empmr_sd             =   2.4051723601802E-05
(PID.TID 0000.0001) %MON forcing_empmr_del2           =   1.2276157049243E-07
(PID.TID 0000.0001) %MON forcing_fu_max               =   2.4892781143428E-01
(PID.TID 0000.0001) %MON forcing_fu_min               =  -2.5159107438040E-01
(PID.TID 0000.0001) %MON forcing_fu_mean              =  -3.8956966288612E-03
(PID.TID 0000.0001) %MON forcing_fu_sd                =   6.5480383395885E-02
(PID.TID 0000.0001) %MON forcing_fu_del2              =   2.3114393556995E-04
(PID.TID 0000.0001) %MON forcing_fv_max               =   2.9305960402537E-01
(PID.TID 0000.0001) %MON forcing_fv_min               =  -3.3950131228473E-01
(PID.TID 0000.0001) %MON forcing_fv_mean              =  -1.3743384707768E-02
(PID.TID 0000.0001) %MON forcing_fv_sd                =   7.6816469815204E-02
(PID.TID 0000.0001) %MON forcing_fv_del2              =   2.5671701728584E-04
(PID.TID 0000.0001) %MON advcfl_uvel_max              =   7.9755110159966E-02
(PID.TID 0000.0001) %MON advcfl_vvel_max              =   7.5291191640977E-02
(PID.TID 0000.0001) %MON advcfl_wvel_max              =   6.6405485842727E-02
(PID.TID 0000.0001) %MON advcfl_W_hf_max              =   7.3350446996059E-02
(PID.TID 0000.0001) %MON pe_b_mean                    =   4.7461020308826E-04
(PID.TID 0000.0001) %MON ke_max                       =   3.8681380845534E-02
(PID.TID 0000.0001) %MON ke_mean                      =   1.4089198498944E-04
(PID.TID 0000.0001) %MON ke_vol                       =   1.3398024453628E+18
(PID.TID 0000.0001) %MON vort_r_min                   =  -1.2576282309441E-06
(PID.TID 0000.0001) %MON vort_r_max                   =   1.2526121309000E-06
(PID.TID 0000.0001) %MON vort_a_mean                  =  -2.0493733748264E-05
(PID.TID 0000.0001) %MON vort_a_sd                    =   7.5053945663118E-05
(PID.TID 0000.0001) %MON vort_p_mean                  =  -2.4715773638600E-05
(PID.TID 0000.0001) %MON vort_p_sd                    =   1.2777069064887E-04
(PID.TID 0000.0001) %MON surfExpan_theta_mean         =   4.9533671236918E-08
(PID.TID 0000.0001) %MON surfExpan_salt_mean          =   1.4196980762474E-08
(PID.TID 0000.0001) // =======================================================
(PID.TID 0000.0001) // End MONITOR dynamic field statistics
(PID.TID 0000.0001) // =======================================================
 cg2d: Sum(rhs),rhsMax =  -9.83391146291979E-12  4.22414668845059E+00
(PID.TID 0000.0001)                    cg2d_init_res =    4.26130642632978E-01
(PID.TID 0000.0001)                       cg2d_iters =    63
(PID.TID 0000.0001)                         cg2d_res =    5.32268534698789E-07
(PID.TID 0000.0001) // =======================================================
(PID.TID 0000.0001) // Begin MONITOR dynamic field statistics
(PID.TID 0000.0001) // =======================================================
(PID.TID 0000.0001) %MON time_tsnumber                =                 72017
(PID.TID 0000.0001) %MON time_secondsf                =   6.2222688000000E+09
(PID.TID 0000.0001) %MON dynstat_eta_max              =   8.9652544027792E-01
(PID.TID 0000.0001) %MON dynstat_eta_min              =  -1.6114006368966E+00
(PID.TID 0000.0001) %MON dynstat_eta_mean             =   1.4358863518302E-14
(PID.TID 0000.0001) %MON dynstat_eta_sd               =   5.9679487062611E-01
(PID.TID 0000.0001) %MON dynstat_eta_del2             =   7.8336913959910E-04
(PID.TID 0000.0001) %MON dynstat_uvel_max             =   1.8537042338464E-01
(PID.TID 0000.0001) %MON dynstat_uvel_min             =  -2.8066220529214E-01
(PID.TID 0000.0001) %MON dynstat_uvel_mean            =  -4.8123014970471E-04
(PID.TID 0000.0001) %MON dynstat_uvel_sd              =   1.2015600400073E-02
(PID.TID 0000.0001) %MON dynstat_uvel_del2            =   5.0790184129691E-05
(PID.TID 0000.0001) %MON dynstat_vvel_max             =   1.7231939614295E-01
(PID.TID 0000.0001) %MON dynstat_vvel_min             =  -2.2397009842638E-01
(PID.TID 0000.0001) %MON dynstat_vvel_mean            =  -3.9864925358272E-04
(PID.TID 0000.0001) %MON dynstat_vvel_sd              =   1.2659979134399E-02
(PID.TID 0000.0001) %MON dynstat_vvel_del2            =   5.0065991332446E-05
(PID.TID 0000.0001) %MON dynstat_wvel_max             =   1.1079838222288E-04
(PID.TID 0000.0001) %MON dynstat_wvel_min             =  -2.0310547879127E-04
(PID.TID 0000.0001) %MON dynstat_wvel_mean            =   1.0679650589537E-10
(PID.TID 0000.0001) %MON dynstat_wvel_sd              =   3.8351594353330E-06
(PID.TID 0000.0001) %MON dynstat_wvel_del2            =   2.7047355928076E-08
(PID.TID 0000.0001) %MON dynstat_theta_max            =   3.1067783652062E+01
(PID.TID 0000.0001) %MON dynstat_theta_min            =  -2.0767989208927E+00
(PID.TID 0000.0001) %MON dynstat_theta_mean           =   3.9101410006057E+00
(PID.TID 0000.0001) %MON dynstat_theta_sd             =   4.5714099386006E+00
(PID.TID 0000.0001) %MON dynstat_theta_del2           =   2.5102695824192E-03
(PID.TID 0000.0001) %MON dynstat_salt_max             =   4.1391103549909E+01
(PID.TID 0000.0001) %MON dynstat_salt_min             =   1.8389876147001E+01
(PID.TID 0000.0001) %MON dynstat_salt_mean            =   3.4772076768659E+01
(PID.TID 0000.0001) %MON dynstat_salt_sd              =   5.3114978572987E-01
(PID.TID 0000.0001) %MON dynstat_salt_del2            =   7.6136013043486E-04
(PID.TID 0000.0001) %MON forcing_qnet_max             =   4.5753071201305E+02
(PID.TID 0000.0001) %MON forcing_qnet_min             =  -2.0101909770688E+02
(PID.TID 0000.0001) %MON forcing_qnet_mean            =  -1.2374912456645E+01
(PID.TID 0000.0001) %MON forcing_qnet_sd              =   1.1223184124370E+02
(PID.TID 0000.0001) %MON forcing_qnet_del2            =   4.4119059898150E-01
(PID.TID 0000.0001) %MON forcing_qsw_max              =   0.0000000000000E+00
(PID.TID 0000.0001) %MON forcing_qsw_min              =   0.0000000000000E+00
(PID.TID 0000.0001) %MON forcing_qsw_mean             =   0.0000000000000E+00
(PID.TID 0000.0001) %MON forcing_qsw_sd               =   0.0000000000000E+00
(PID.TID 0000.0001) %MON forcing_qsw_del2             =   0.0000000000000E+00
(PID.TID 0000.0001) %MON forcing_empmr_max            =   7.6494447208479E-05
(PID.TID 0000.0001) %MON forcing_empmr_min            =  -1.5362614137596E-04
(PID.TID 0000.0001) %MON forcing_empmr_mean           =  -2.7256318706594E-21
(PID.TID 0000.0001) %MON forcing_empmr_sd             =   2.4051723601802E-05
(PID.TID 0000.0001) %MON forcing_empmr_del2           =   1.2276157049243E-07
(PID.TID 0000.0001) %MON forcing_fu_max               =   2.4586080052368E-01
(PID.TID 0000.0001) %MON forcing_fu_min               =  -2.4690104382675E-01
(PID.TID 0000.0001) %MON forcing_fu_mean              =  -3.9278253198990E-03
(PID.TID 0000.0001) %MON forcing_fu_sd                =   6.5282090105345E-02
(PID.TID 0000.0001) %MON forcing_fu_del2              =   2.2765741152947E-04
(PID.TID 0000.0001) %MON forcing_fv_max               =   2.9225622243089E-01
(PID.TID 0000.0001) %MON forcing_fv_min               =  -3.3606226010595E-01
(PID.TID 0000.0001) %MON forcing_fv_mean              =  -1.3741594714266E-02
(PID.TID 0000.0001) %MON forcing_fv_sd                =   7.6550053729987E-02
(PID.TID 0000.0001) %MON forcing_fv_del2              =   2.5418174123344E-04
(PID.TID 0000.0001) %MON advcfl_uvel_max              =   7.9601125214240E-02
(PID.TID 0000.0001) %MON advcfl_vvel_max              =   7.5111597106151E-02
(PID.TID 0000.0001) %MON advcfl_wvel_max              =   6.6220050443645E-02
(PID.TID 0000.0001) %MON advcfl_W_hf_max              =   7.3145643927987E-02
(PID.TID 0000.0001) %MON pe_b_mean                    =   4.7447642238732E-04
(PID.TID 0000.0001) %MON ke_max                       =   3.8532655181268E-02
(PID.TID 0000.0001) %MON ke_mean                      =   1.4086313285880E-04
(PID.TID 0000.0001) %MON ke_vol                       =   1.3398024453628E+18
(PID.TID 0000.0001) %MON vort_r_min                   =  -1.2616794368469E-06
(PID.TID 0000.0001) %MON vort_r_max                   =   1.2541566403479E-06
(PID.TID 0000.0001) %MON vort_a_mean                  =  -2.0493733748264E-05
(PID.TID 0000.0001) %MON vort_a_sd                    =   7.5053945589763E-05
(PID.TID 0000.0001) %MON vort_p_mean                  =  -2.4715773642557E-05
(PID.TID 0000.0001) %MON vort_p_sd                    =   1.2777068612505E-04
(PID.TID 0000.0001) %MON surfExpan_theta_mean         =   4.8983322069948E-08
(PID.TID 0000.0001) %MON surfExpan_salt_mean          =   1.4243722525620E-08
(PID.TID 0000.0001) // =======================================================
(PID.TID 0000.0001) // End MONITOR dynamic field statistics
(PID.TID 0000.0001) // =======================================================
 cg2d: Sum(rhs),rhsMax =  -9.66338120633736E-12  4.22297627110994E+00
(PID.TID 0000.0001)                    cg2d_init_res =    4.27672046592627E-01
(PID.TID 0000.0001)                       cg2d_iters =    63
(PID.TID 0000.0001)                         cg2d_res =    5.27700130956716E-07
(PID.TID 0000.0001) // =======================================================
(PID.TID 0000.0001) // Begin MONITOR dynamic field statistics
(PID.TID 0000.0001) // =======================================================
(PID.TID 0000.0001) %MON time_tsnumber                =                 72018
(PID.TID 0000.0001) %MON time_secondsf                =   6.2223552000000E+09
(PID.TID 0000.0001) %MON dynstat_eta_max              =   8.9542258091604E-01
(PID.TID 0000.0001) %MON dynstat_eta_min              =  -1.6107558920062E+00
(PID.TID 0000.0001) %MON dynstat_eta_mean             =   1.4262679743539E-14
(PID.TID 0000.0001) %MON dynstat_eta_sd               =   5.9671497238401E-01
(PID.TID 0000.0001) %MON dynstat_eta_del2             =   7.8331960660929E-04
(PID.TID 0000.0001) %MON dynstat_uvel_max             =   1.8535645051030E-01
(PID.TID 0000.0001) %MON dynstat_uvel_min             =  -2.8011068047424E-01
(PID.TID 0000.0001) %MON dynstat_uvel_mean            =  -4.8056130515209E-04
(PID.TID 0000.0001) %MON dynstat_uvel_sd              =   1.2015689028995E-02
(PID.TID 0000.0001) %MON dynstat_uvel_del2            =   5.0766922995772E-05
(PID.TID 0000.0001) %MON dynstat_vvel_max             =   1.7188166159268E-01
(PID.TID 0000.0001) %MON dynstat_vvel_min             =  -2.2384659029741E-01
(PID.TID 0000.0001) %MON dynstat_vvel_mean            =  -3.9820989377081E-04
(PID.TID 0000.0001) %MON dynstat_vvel_sd              =   1.2656828780006E-02
(PID.TID 0000.0001) %MON dynstat_vvel_del2            =   5.0033141026237E-05
(PID.TID 0000.0001) %MON dynstat_wvel_max             =   1.1112781301490E-04
(PID.TID 0000.0001) %MON dynstat_wvel_min             =  -2.0247726216932E-04
(PID.TID 0000.0001) %MON dynstat_wvel_mean            =   7.7199825608403E-11
(PID.TID 0000.0001) %MON dynstat_wvel_sd              =   3.8355053079789E-06
(PID.TID 0000.0001) %MON dynstat_wvel_del2            =   2.7077686554110E-08
(PID.TID 0000.0001) %MON dynstat_theta_max            =   3.1073067953431E+01
(PID.TID 0000.0001) %MON dynstat_theta_min            =  -2.0818885449241E+00
(PID.TID 0000.0001) %MON dynstat_theta_mean           =   3.9102036140840E+00
(PID.TID 0000.0001) %MON dynstat_theta_sd             =   4.5714985793529E+00
(PID.TID 0000.0001) %MON dynstat_theta_del2           =   2.5090490519665E-03
(PID.TID 0000.0001) %MON dynstat_salt_max             =   4.1391268101754E+01
(PID.TID 0000.0001) %MON dynstat_salt_min             =   1.8390298787532E+01
(PID.TID 0000.0001) %MON dynstat_salt_mean            =   3.4772077381637E+01
(PID.TID 0000.0001) %MON dynstat_salt_sd              =   5.3113162513063E-01
(PID.TID 0000.0001) %MON dynstat_salt_del2            =   7.5987990523206E-04
(PID.TID 0000.0001) %MON forcing_qnet_max             =   4.5294530533769E+02
(PID.TID 0000.0001) %MON forcing_qnet_min             =  -1.9793442628666E+02
(PID.TID 0000.0001) %MON forcing_qnet_mean            =  -1.2420576992001E+01
(PID.TID 0000.0001) %MON forcing_qnet_sd              =   1.1119236898197E+02
(PID.TID 0000.0001) %MON forcing_qnet_del2            =   4.3924090499131E-01
(PID.TID 0000.0001) %MON forcing_qsw_max              =   0.0000000000000E+00
(PID.TID 0000.0001) %MON forcing_qsw_min              =   0.0000000000000E+00
(PID.TID 0000.0001) %MON forcing_qsw_mean             =   0.0000000000000E+00
(PID.TID 0000.0001) %MON forcing_qsw_sd               =   0.0000000000000E+00
(PID.TID 0000.0001) %MON forcing_qsw_del2             =   0.0000000000000E+00
(PID.TID 0000.0001) %MON forcing_empmr_max            =   7.6494447208479E-05
(PID.TID 0000.0001) %MON forcing_empmr_min            =  -1.5362614137596E-04
(PID.TID 0000.0001) %MON forcing_empmr_mean           =  -2.7256318706594E-21
(PID.TID 0000.0001) %MON forcing_empmr_sd             =   2.4051723601802E-05
(PID.TID 0000.0001) %MON forcing_empmr_del2           =   1.2276157049243E-07
(PID.TID 0000.0001) %MON forcing_fu_max               =   2.4279378961307E-01
(PID.TID 0000.0001) %MON forcing_fu_min               =  -2.4221101327311E-01
(PID.TID 0000.0001) %MON forcing_fu_mean              =  -3.9599540109368E-03
(PID.TID 0000.0001) %MON forcing_fu_sd                =   6.5097565012911E-02
(PID.TID 0000.0001) %MON forcing_fu_del2              =   2.2436904772888E-04
(PID.TID 0000.0001) %MON forcing_fv_max               =   2.9145284083641E-01
(PID.TID 0000.0001) %MON forcing_fv_min               =  -3.3262320792717E-01
(PID.TID 0000.0001) %MON forcing_fv_mean              =  -1.3739804720763E-02
(PID.TID 0000.0001) %MON forcing_fv_sd                =   7.6299912613877E-02
(PID.TID 0000.0001) %MON forcing_fv_del2              =   2.5181803534899E-04
(PID.TID 0000.0001) %MON advcfl_uvel_max              =   7.9444702314182E-02
(PID.TID 0000.0001) %MON advcfl_vvel_max              =   7.4920794782583E-02
(PID.TID 0000.0001) %MON advcfl_wvel_max              =   6.6015228118601E-02
(PID.TID 0000.0001) %MON advcfl_W_hf_max              =   7.2919429597377E-02
(PID.TID 0000.0001) %MON pe_b_mean                    =   4.7434938612655E-04
(PID.TID 0000.0001) %MON ke_max                       =   3.8382303936243E-02
(PID.TID 0000.0001) %MON ke_mean                      =   1.4082666751401E-04
(PID.TID 0000.0001) %MON ke_vol                       =   1.3398024453628E+18
(PID.TID 0000.0001) %MON vort_r_min                   =  -1.2655021561400E-06
(PID.TID 0000.0001) %MON vort_r_max                   =   1.2553044314359E-06
(PID.TID 0000.0001) %MON vort_a_mean                  =  -2.0493733748264E-05
(PID.TID 0000.0001) %MON vort_a_sd                    =   7.5053945529797E-05
(PID.TID 0000.0001) %MON vort_p_mean                  =  -2.4715773638880E-05
(PID.TID 0000.0001) %MON vort_p_sd                    =   1.2777068175764E-04
(PID.TID 0000.0001) %MON surfExpan_theta_mean         =   4.8399193573203E-08
(PID.TID 0000.0001) %MON surfExpan_salt_mean          =   1.4331838775229E-08
(PID.TID 0000.0001) // =======================================================
(PID.TID 0000.0001) // End MONITOR dynamic field statistics
(PID.TID 0000.0001) // =======================================================
 cg2d: Sum(rhs),rhsMax =  -9.74864633462857E-12  4.22179769208176E+00
(PID.TID 0000.0001)                    cg2d_init_res =    4.24205334811847E-01
(PID.TID 0000.0001)                       cg2d_iters =    63
(PID.TID 0000.0001)                         cg2d_res =    5.27589681650532E-07
(PID.TID 0000.0001) // =======================================================
(PID.TID 0000.0001) // Begin MONITOR dynamic field statistics
(PID.TID 0000.0001) // =======================================================
(PID.TID 0000.0001) %MON time_tsnumber                =                 72019
(PID.TID 0000.0001) %MON time_secondsf                =   6.2224416000000E+09
(PID.TID 0000.0001) %MON dynstat_eta_max              =   8.9434005819645E-01
(PID.TID 0000.0001) %MON dynstat_eta_min              =  -1.6101098971395E+00
(PID.TID 0000.0001) %MON dynstat_eta_mean             =   1.4441306753814E-14
(PID.TID 0000.0001) %MON dynstat_eta_sd               =   5.9663816499790E-01
(PID.TID 0000.0001) %MON dynstat_eta_del2             =   7.8328917380552E-04
(PID.TID 0000.0001) %MON dynstat_uvel_max             =   1.8527591212337E-01
(PID.TID 0000.0001) %MON dynstat_uvel_min             =  -2.7955162462941E-01
(PID.TID 0000.0001) %MON dynstat_uvel_mean            =  -4.7993337096653E-04
(PID.TID 0000.0001) %MON dynstat_uvel_sd              =   1.2015676728818E-02
(PID.TID 0000.0001) %MON dynstat_uvel_del2            =   5.0744355262959E-05
(PID.TID 0000.0001) %MON dynstat_vvel_max             =   1.7142067980556E-01
(PID.TID 0000.0001) %MON dynstat_vvel_min             =  -2.2371651088789E-01
(PID.TID 0000.0001) %MON dynstat_vvel_mean            =  -3.9775296939897E-04
(PID.TID 0000.0001) %MON dynstat_vvel_sd              =   1.2653113579555E-02
(PID.TID 0000.0001) %MON dynstat_vvel_del2            =   5.0000073456328E-05
(PID.TID 0000.0001) %MON dynstat_wvel_max             =   1.1138119713164E-04
(PID.TID 0000.0001) %MON dynstat_wvel_min             =  -2.0179529765396E-04
(PID.TID 0000.0001) %MON dynstat_wvel_mean            =   4.6054390347060E-11
(PID.TID 0000.0001) %MON dynstat_wvel_sd              =   3.8355322724137E-06
(PID.TID 0000.0001) %MON dynstat_wvel_del2            =   2.7104212514180E-08
(PID.TID 0000.0001) %MON dynstat_theta_max            =   3.1077942563820E+01
(PID.TID 0000.0001) %MON dynstat_theta_min            =  -2.0870257833953E+00
(PID.TID 0000.0001) %MON dynstat_theta_mean           =   3.9102668873060E+00
(PID.TID 0000.0001) %MON dynstat_theta_sd             =   4.5715972370395E+00
(PID.TID 0000.0001) %MON dynstat_theta_del2           =   2.5031482203007E-03
(PID.TID 0000.0001) %MON dynstat_salt_max             =   4.1391433209052E+01
(PID.TID 0000.0001) %MON dynstat_salt_min             =   1.8390721658005E+01
(PID.TID 0000.0001) %MON dynstat_salt_mean            =   3.4772078006955E+01
(PID.TID 0000.0001) %MON dynstat_salt_sd              =   5.3111296662269E-01
(PID.TID 0000.0001) %MON dynstat_salt_del2            =   7.5839171074045E-04
(PID.TID 0000.0001) %MON forcing_qnet_max             =   4.4835989866233E+02
(PID.TID 0000.0001) %MON forcing_qnet_min             =  -1.9586302274640E+02
(PID.TID 0000.0001) %MON forcing_qnet_mean            =  -1.2466241527356E+01
(PID.TID 0000.0001) %MON forcing_qnet_sd              =   1.1016181871259E+02
(PID.TID 0000.0001) %MON forcing_qnet_del2            =   4.3738724859626E-01
(PID.TID 0000.0001) %MON forcing_qsw_max              =   0.0000000000000E+00
(PID.TID 0000.0001) %MON forcing_qsw_min              =   0.0000000000000E+00
(PID.TID 0000.0001) %MON forcing_qsw_mean             =   0.0000000000000E+00
(PID.TID 0000.0001) %MON forcing_qsw_sd               =   0.0000000000000E+00
(PID.TID 0000.0001) %MON forcing_qsw_del2             =   0.0000000000000E+00
(PID.TID 0000.0001) %MON forcing_empmr_max            =   7.6494447208479E-05
(PID.TID 0000.0001) %MON forcing_empmr_min            =  -1.5362614137596E-04
(PID.TID 0000.0001) %MON forcing_empmr_mean           =  -2.7256318706594E-21
(PID.TID 0000.0001) %MON forcing_empmr_sd             =   2.4051723601802E-05
(PID.TID 0000.0001) %MON forcing_empmr_del2           =   1.2276157049243E-07
(PID.TID 0000.0001) %MON forcing_fu_max               =   2.3972677870247E-01
(PID.TID 0000.0001) %MON forcing_fu_min               =  -2.3770170012775E-01
(PID.TID 0000.0001) %MON forcing_fu_mean              =  -3.9920827019745E-03
(PID.TID 0000.0001) %MON forcing_fu_sd                =   6.4926925508109E-02
(PID.TID 0000.0001) %MON forcing_fu_del2              =   2.2128767840564E-04
(PID.TID 0000.0001) %MON forcing_fv_max               =   2.9064945924193E-01
(PID.TID 0000.0001) %MON forcing_fv_min               =  -3.2918415574839E-01
(PID.TID 0000.0001) %MON forcing_fv_mean              =  -1.3738014727260E-02
(PID.TID 0000.0001) %MON forcing_fv_sd                =   7.6066207026079E-02
(PID.TID 0000.0001) %MON forcing_fv_del2              =   2.4963077337507E-04
(PID.TID 0000.0001) %MON advcfl_uvel_max              =   7.9286143472034E-02
(PID.TID 0000.0001) %MON advcfl_vvel_max              =   7.4719859315989E-02
(PID.TID 0000.0001) %MON advcfl_wvel_max              =   6.5792881952085E-02
(PID.TID 0000.0001) %MON advcfl_W_hf_max              =   7.2673858087689E-02
(PID.TID 0000.0001) %MON pe_b_mean                    =   4.7422728028599E-04
(PID.TID 0000.0001) %MON ke_max                       =   3.8231026134713E-02
(PID.TID 0000.0001) %MON ke_mean                      =   1.4078247720059E-04
(PID.TID 0000.0001) %MON ke_vol                       =   1.3398024453628E+18
(PID.TID 0000.0001) %MON vort_r_min                   =  -1.2690381537780E-06
(PID.TID 0000.0001) %MON vort_r_max                   =   1.2559614387636E-06
(PID.TID 0000.0001) %MON vort_a_mean                  =  -2.0493733748264E-05
(PID.TID 0000.0001) %MON vort_a_sd                    =   7.5053945480788E-05
(PID.TID 0000.0001) %MON vort_p_mean                  =  -2.4715773622422E-05
(PID.TID 0000.0001) %MON vort_p_sd                    =   1.2777067750493E-04
(PID.TID 0000.0001) %MON surfExpan_theta_mean         =   4.7846765877733E-08
(PID.TID 0000.0001) %MON surfExpan_salt_mean          =   1.4453912878575E-08
(PID.TID 0000.0001) // =======================================================
(PID.TID 0000.0001) // End MONITOR dynamic field statistics
(PID.TID 0000.0001) // =======================================================
 cg2d: Sum(rhs),rhsMax =  -9.57811607804615E-12  4.22066224629992E+00
(PID.TID 0000.0001)                    cg2d_init_res =    4.20173383824803E-01
(PID.TID 0000.0001)                       cg2d_iters =    63
(PID.TID 0000.0001)                         cg2d_res =    5.06195607422443E-07
(PID.TID 0000.0001) // =======================================================
(PID.TID 0000.0001) // Begin MONITOR dynamic field statistics
(PID.TID 0000.0001) // =======================================================
(PID.TID 0000.0001) %MON time_tsnumber                =                 72020
(PID.TID 0000.0001) %MON time_secondsf                =   6.2225280000000E+09
(PID.TID 0000.0001) %MON dynstat_eta_max              =   8.9327778880787E-01
(PID.TID 0000.0001) %MON dynstat_eta_min              =  -1.6094663177306E+00
(PID.TID 0000.0001) %MON dynstat_eta_mean             =   1.4551231067830E-14
(PID.TID 0000.0001) %MON dynstat_eta_sd               =   5.9656505997480E-01
(PID.TID 0000.0001) %MON dynstat_eta_del2             =   7.8330695467617E-04
(PID.TID 0000.0001) %MON dynstat_uvel_max             =   1.8512569726694E-01
(PID.TID 0000.0001) %MON dynstat_uvel_min             =  -2.7898504596495E-01
(PID.TID 0000.0001) %MON dynstat_uvel_mean            =  -4.7934264655957E-04
(PID.TID 0000.0001) %MON dynstat_uvel_sd              =   1.2015507963543E-02
(PID.TID 0000.0001) %MON dynstat_uvel_del2            =   5.0722468778879E-05
(PID.TID 0000.0001) %MON dynstat_vvel_max             =   1.7093878724780E-01
(PID.TID 0000.0001) %MON dynstat_vvel_min             =  -2.2358019420851E-01
(PID.TID 0000.0001) %MON dynstat_vvel_mean            =  -3.9728998919915E-04
(PID.TID 0000.0001) %MON dynstat_vvel_sd              =   1.2648883490867E-02
(PID.TID 0000.0001) %MON dynstat_vvel_del2            =   4.9966720681301E-05
(PID.TID 0000.0001) %MON dynstat_wvel_max             =   1.1154492438370E-04
(PID.TID 0000.0001) %MON dynstat_wvel_min             =  -2.0106353363156E-04
(PID.TID 0000.0001) %MON dynstat_wvel_mean            =   1.5719138730903E-11
(PID.TID 0000.0001) %MON dynstat_wvel_sd              =   3.8351407395893E-06
(PID.TID 0000.0001) %MON dynstat_wvel_del2            =   2.7126683161072E-08
(PID.TID 0000.0001) %MON dynstat_theta_max            =   3.1082408074499E+01
(PID.TID 0000.0001) %MON dynstat_theta_min            =  -2.0922138344415E+00
(PID.TID 0000.0001) %MON dynstat_theta_mean           =   3.9103306906738E+00
(PID.TID 0000.0001) %MON dynstat_theta_sd             =   4.5717062263662E+00
(PID.TID 0000.0001) %MON dynstat_theta_del2           =   2.4986162284670E-03
(PID.TID 0000.0001) %MON dynstat_salt_max             =   4.1391598962010E+01
(PID.TID 0000.0001) %MON dynstat_salt_min             =   1.8391144315412E+01
(PID.TID 0000.0001) %MON dynstat_salt_mean            =   3.4772078643772E+01
(PID.TID 0000.0001) %MON dynstat_salt_sd              =   5.3109446980838E-01
(PID.TID 0000.0001) %MON dynstat_salt_del2            =   7.5654509114675E-04
(PID.TID 0000.0001) %MON forcing_qnet_max             =   4.4486238709081E+02
(PID.TID 0000.0001) %MON forcing_qnet_min             =  -1.9564239975390E+02
(PID.TID 0000.0001) %MON forcing_qnet_mean            =  -1.2511906062711E+01
(PID.TID 0000.0001) %MON forcing_qnet_sd              =   1.0914044317154E+02
(PID.TID 0000.0001) %MON forcing_qnet_del2            =   4.3563085574914E-01
(PID.TID 0000.0001) %MON forcing_qsw_max              =   0.0000000000000E+00
(PID.TID 0000.0001) %MON forcing_qsw_min              =   0.0000000000000E+00
(PID.TID 0000.0001) %MON forcing_qsw_mean             =   0.0000000000000E+00
(PID.TID 0000.0001) %MON forcing_qsw_sd               =   0.0000000000000E+00
(PID.TID 0000.0001) %MON forcing_qsw_del2             =   0.0000000000000E+00
(PID.TID 0000.0001) %MON forcing_empmr_max            =   7.6494447208479E-05
(PID.TID 0000.0001) %MON forcing_empmr_min            =  -1.5362614137596E-04
(PID.TID 0000.0001) %MON forcing_empmr_mean           =  -1.8869759104565E-21
(PID.TID 0000.0001) %MON forcing_empmr_sd             =   2.4051723601802E-05
(PID.TID 0000.0001) %MON forcing_empmr_del2           =   1.2276157049243E-07
(PID.TID 0000.0001) %MON forcing_fu_max               =   2.3665976779186E-01
(PID.TID 0000.0001) %MON forcing_fu_min               =  -2.3356264696351E-01
(PID.TID 0000.0001) %MON forcing_fu_mean              =  -4.0242113930123E-03
(PID.TID 0000.0001) %MON forcing_fu_sd                =   6.4770281337189E-02
(PID.TID 0000.0001) %MON forcing_fu_del2              =   2.1842206420252E-04
(PID.TID 0000.0001) %MON forcing_fv_max               =   2.8984607764745E-01
(PID.TID 0000.0001) %MON forcing_fv_min               =  -3.2574510356961E-01
(PID.TID 0000.0001) %MON forcing_fv_mean              =  -1.3736224733758E-02
(PID.TID 0000.0001) %MON forcing_fv_sd                =   7.5849088889787E-02
(PID.TID 0000.0001) %MON forcing_fv_del2              =   2.4762463092934E-04
(PID.TID 0000.0001) %MON advcfl_uvel_max              =   7.9125451015538E-02
(PID.TID 0000.0001) %MON advcfl_vvel_max              =   7.4509809139066E-02
(PID.TID 0000.0001) %MON advcfl_wvel_max              =   6.5554299267043E-02
(PID.TID 0000.0001) %MON advcfl_W_hf_max              =   7.2410354692042E-02
(PID.TID 0000.0001) %MON pe_b_mean                    =   4.7411107493948E-04
(PID.TID 0000.0001) %MON ke_max                       =   3.8078859872532E-02
(PID.TID 0000.0001) %MON ke_mean                      =   1.4073054360457E-04
(PID.TID 0000.0001) %MON ke_vol                       =   1.3398024453628E+18
(PID.TID 0000.0001) %MON vort_r_min                   =  -1.2722809388505E-06
(PID.TID 0000.0001) %MON vort_r_max                   =   1.2561156627257E-06
(PID.TID 0000.0001) %MON vort_a_mean                  =  -2.0493733748264E-05
(PID.TID 0000.0001) %MON vort_a_sd                    =   7.5053945440461E-05
(PID.TID 0000.0001) %MON vort_p_mean                  =  -2.4715773594281E-05
(PID.TID 0000.0001) %MON vort_p_sd                    =   1.2777067322267E-04
(PID.TID 0000.0001) %MON surfExpan_theta_mean         =   4.7351849173707E-08
(PID.TID 0000.0001) %MON surfExpan_salt_mean          =   1.4607790296816E-08
(PID.TID 0000.0001) // =======================================================
(PID.TID 0000.0001) // End MONITOR dynamic field statistics
(PID.TID 0000.0001) // =======================================================
(PID.TID 0000.0001) %CHECKPOINT     72020 0000072020
 --> f_ice     = 0.000000000000000D+00
 --> f_smrarea = 0.000000000000000D+00
 --> f_smrarea = 0.000000000000000D+00
 --> f_smrarea = 0.000000000000000D+00
 --> objf_test(bi,bj)   =  0.118456568659812D+05
 --> objf_tracer(bi,bj) =  0.000000000000000D+00
 --> objf_atl(bi,bj)    =  0.000000000000000D+00
 --> objf_test(bi,bj)   =  0.952598726224374D+04
 --> objf_tracer(bi,bj) =  0.000000000000000D+00
 --> objf_atl(bi,bj)    =  0.000000000000000D+00
 --> objf_test(bi,bj)   =  0.694500755517367D+04
 --> objf_tracer(bi,bj) =  0.000000000000000D+00
 --> objf_atl(bi,bj)    =  0.000000000000000D+00
 --> objf_test(bi,bj)   =  0.454206357623631D+04
 --> objf_tracer(bi,bj) =  0.000000000000000D+00
 --> objf_atl(bi,bj)    =  0.000000000000000D+00
 --> objf_test(bi,bj)   =  0.460173821169895D+04
 --> objf_tracer(bi,bj) =  0.000000000000000D+00
 --> objf_atl(bi,bj)    =  0.000000000000000D+00
 --> objf_test(bi,bj)   =  0.135687787181577D+05
 --> objf_tracer(bi,bj) =  0.000000000000000D+00
 --> objf_atl(bi,bj)    =  0.000000000000000D+00
 --> objf_test(bi,bj)   =  0.116265114387584D+05
 --> objf_tracer(bi,bj) =  0.000000000000000D+00
 --> objf_atl(bi,bj)    =  0.000000000000000D+00
 --> objf_test(bi,bj)   =  0.115335485591703D+05
 --> objf_tracer(bi,bj) =  0.000000000000000D+00
 --> objf_atl(bi,bj)    =  0.000000000000000D+00
 --> objf_test(bi,bj)   =  0.727554323638208D+04
 --> objf_tracer(bi,bj) =  0.000000000000000D+00
 --> objf_atl(bi,bj)    =  0.000000000000000D+00
 --> objf_test(bi,bj)   =  0.725992696528726D+04
 --> objf_tracer(bi,bj) =  0.000000000000000D+00
 --> objf_atl(bi,bj)    =  0.000000000000000D+00
 --> objf_test(bi,bj)   =  0.580655750963083D+04
 --> objf_tracer(bi,bj) =  0.000000000000000D+00
 --> objf_atl(bi,bj)    =  0.000000000000000D+00
 --> objf_test(bi,bj)   =  0.666394381654479D+04
 --> objf_tracer(bi,bj) =  0.000000000000000D+00
 --> objf_atl(bi,bj)    =  0.000000000000000D+00
  local fc =  0.101195263715265D+06
 global fc =  0.101195263715265D+06
 EXTERNAL_FIELDS_LOAD, it=     72000 : Reading new data, i0,i1=   12    1 (prev=   12    2 )
(PID.TID 0000.0001) SOLVE_FOR_PRESSURE: putPmEinXvector =    F
 cg2d: Sum(rhs),rhsMax =  -9.66338120633736E-12  4.27829651258201E+00
 cg2d: Sum(rhs),rhsMax =  -9.69180291576777E-12  4.27316012227202E+00
 cg2d: Sum(rhs),rhsMax =  -9.49285094975494E-12  4.26762372378297E+00
 cg2d: Sum(rhs),rhsMax =  -9.66338120633736E-12  4.26250700344129E+00
 cg2d: Sum(rhs),rhsMax =  -9.89075488178059E-12  4.25770388645475E+00
 cg2d: Sum(rhs),rhsMax =  -9.83391146291979E-12  4.25319684979159E+00
 cg2d: Sum(rhs),rhsMax =  -9.49285094975494E-12  4.24900187971374E+00
 cg2d: Sum(rhs),rhsMax =  -9.66338120633736E-12  4.24513385397638E+00
 cg2d: Sum(rhs),rhsMax =  -9.63495949690696E-12  4.24159888218953E+00
 cg2d: Sum(rhs),rhsMax =  -9.60653778747655E-12  4.23840118602305E+00
 cg2d: Sum(rhs),rhsMax =  -9.77706804405898E-12  4.23553911093792E+00
 cg2d: Sum(rhs),rhsMax =  -9.54969436861575E-12  4.23300290381890E+00
 cg2d: Sum(rhs),rhsMax =  -9.80548975348938E-12  4.23077337865541E+00
 cg2d: Sum(rhs),rhsMax =  -9.66338120633736E-12  4.22882246060732E+00
 cg2d: Sum(rhs),rhsMax =  -9.63495949690696E-12  4.22711470300476E+00
 EXTERNAL_FIELDS_LOAD, it=     72015 : Reading new data, i0,i1=    1    2 (prev=   12    1 )
 cg2d: Sum(rhs),rhsMax =  -9.69180291576777E-12  4.22560897542637E+00
 cg2d: Sum(rhs),rhsMax =  -9.83391146291979E-12  4.22414668845059E+00
 cg2d: Sum(rhs),rhsMax =  -9.66338120633736E-12  4.22297627110994E+00
 cg2d: Sum(rhs),rhsMax =  -9.74864633462857E-12  4.22179769208176E+00
 cg2d: Sum(rhs),rhsMax =  -9.57811607804615E-12  4.22066224629992E+00
(PID.TID 0000.0001) Did not write pickup because writePickupAtEnd = FALSE
 cg2d: Sum(rhs),rhsMax =  -9.57811607804615E-12  4.22066224629992E+00
(PID.TID 0000.0001) Did not write pickup because writePickupAtEnd = FALSE
 cg2d: Sum(rhs),rhsMax =  -9.57811607804615E-12  4.22066224629992E+00
(PID.TID 0000.0001) Did not write pickup because writePickupAtEnd = FALSE
(PID.TID 0000.0001) // =======================================================
(PID.TID 0000.0001) // Begin MONITOR dynamic field statistics
(PID.TID 0000.0001) // =======================================================
(PID.TID 0000.0001) %MON ad_time_tsnumber             =                 72020
(PID.TID 0000.0001) %MON ad_time_secondsf             =   6.2225280000000E+09
(PID.TID 0000.0001) %MON ad_dynstat_adeta_max         =   0.0000000000000E+00
(PID.TID 0000.0001) %MON ad_dynstat_adeta_min         =   0.0000000000000E+00
(PID.TID 0000.0001) %MON ad_dynstat_adeta_mean        =   0.0000000000000E+00
(PID.TID 0000.0001) %MON ad_dynstat_adeta_sd          =   0.0000000000000E+00
(PID.TID 0000.0001) %MON ad_dynstat_adeta_del2        =   0.0000000000000E+00
(PID.TID 0000.0001) %MON ad_dynstat_aduvel_max        =   0.0000000000000E+00
(PID.TID 0000.0001) %MON ad_dynstat_aduvel_min        =   0.0000000000000E+00
(PID.TID 0000.0001) %MON ad_dynstat_aduvel_mean       =   0.0000000000000E+00
(PID.TID 0000.0001) %MON ad_dynstat_aduvel_sd         =   0.0000000000000E+00
(PID.TID 0000.0001) %MON ad_dynstat_aduvel_del2       =   0.0000000000000E+00
(PID.TID 0000.0001) %MON ad_dynstat_advvel_max        =   0.0000000000000E+00
(PID.TID 0000.0001) %MON ad_dynstat_advvel_min        =   0.0000000000000E+00
(PID.TID 0000.0001) %MON ad_dynstat_advvel_mean       =   0.0000000000000E+00
(PID.TID 0000.0001) %MON ad_dynstat_advvel_sd         =   0.0000000000000E+00
(PID.TID 0000.0001) %MON ad_dynstat_advvel_del2       =   0.0000000000000E+00
(PID.TID 0000.0001) %MON ad_dynstat_adwvel_max        =   0.0000000000000E+00
(PID.TID 0000.0001) %MON ad_dynstat_adwvel_min        =   0.0000000000000E+00
(PID.TID 0000.0001) %MON ad_dynstat_adwvel_mean       =   0.0000000000000E+00
(PID.TID 0000.0001) %MON ad_dynstat_adwvel_sd         =   0.0000000000000E+00
(PID.TID 0000.0001) %MON ad_dynstat_adwvel_del2       =   0.0000000000000E+00
(PID.TID 0000.0001) %MON ad_dynstat_adtheta_max       =   1.8264727074448E+01
(PID.TID 0000.0001) %MON ad_dynstat_adtheta_min       =  -2.1784255522794E+01
(PID.TID 0000.0001) %MON ad_dynstat_adtheta_mean      =   6.1408103346394E-01
(PID.TID 0000.0001) %MON ad_dynstat_adtheta_sd        =   1.9169283352796E+00
(PID.TID 0000.0001) %MON ad_dynstat_adtheta_del2      =   7.7599780966224E-03
(PID.TID 0000.0001) %MON ad_dynstat_adsalt_max        =   0.0000000000000E+00
(PID.TID 0000.0001) %MON ad_dynstat_adsalt_min        =   0.0000000000000E+00
(PID.TID 0000.0001) %MON ad_dynstat_adsalt_mean       =   0.0000000000000E+00
(PID.TID 0000.0001) %MON ad_dynstat_adsalt_sd         =   0.0000000000000E+00
(PID.TID 0000.0001) %MON ad_dynstat_adsalt_del2       =   0.0000000000000E+00
(PID.TID 0000.0001) %MON ad_forcing_adqnet_max        =   0.0000000000000E+00
(PID.TID 0000.0001) %MON ad_forcing_adqnet_min        =   0.0000000000000E+00
(PID.TID 0000.0001) %MON ad_forcing_adqnet_mean       =   0.0000000000000E+00
(PID.TID 0000.0001) %MON ad_forcing_adqnet_sd         =   0.0000000000000E+00
(PID.TID 0000.0001) %MON ad_forcing_adqnet_del2       =   0.0000000000000E+00
(PID.TID 0000.0001) %MON ad_forcing_adqsw_max         =   0.0000000000000E+00
(PID.TID 0000.0001) %MON ad_forcing_adqsw_min         =   0.0000000000000E+00
(PID.TID 0000.0001) %MON ad_forcing_adqsw_mean        =   0.0000000000000E+00
(PID.TID 0000.0001) %MON ad_forcing_adqsw_sd          =   0.0000000000000E+00
(PID.TID 0000.0001) %MON ad_forcing_adqsw_del2        =   0.0000000000000E+00
(PID.TID 0000.0001) %MON ad_forcing_adempmr_max       =   0.0000000000000E+00
(PID.TID 0000.0001) %MON ad_forcing_adempmr_min       =   0.0000000000000E+00
(PID.TID 0000.0001) %MON ad_forcing_adempmr_mean      =   0.0000000000000E+00
(PID.TID 0000.0001) %MON ad_forcing_adempmr_sd        =   0.0000000000000E+00
(PID.TID 0000.0001) %MON ad_forcing_adempmr_del2      =   0.0000000000000E+00
(PID.TID 0000.0001) %MON ad_forcing_adfu_max          =   0.0000000000000E+00
(PID.TID 0000.0001) %MON ad_forcing_adfu_min          =   0.0000000000000E+00
(PID.TID 0000.0001) %MON ad_forcing_adfu_mean         =   0.0000000000000E+00
(PID.TID 0000.0001) %MON ad_forcing_adfu_sd           =   0.0000000000000E+00
(PID.TID 0000.0001) %MON ad_forcing_adfu_del2         =   0.0000000000000E+00
(PID.TID 0000.0001) %MON ad_forcing_adfv_max          =   0.0000000000000E+00
(PID.TID 0000.0001) %MON ad_forcing_adfv_min          =   0.0000000000000E+00
(PID.TID 0000.0001) %MON ad_forcing_adfv_mean         =   0.0000000000000E+00
(PID.TID 0000.0001) %MON ad_forcing_adfv_sd           =   0.0000000000000E+00
(PID.TID 0000.0001) %MON ad_forcing_adfv_del2         =   0.0000000000000E+00
(PID.TID 0000.0001) %MON ad_advcfl_aduvel_max         =   0.0000000000000E+00
(PID.TID 0000.0001) %MON ad_advcfl_advvel_max         =   0.0000000000000E+00
(PID.TID 0000.0001) %MON ad_advcfl_adwvel_max         =   0.0000000000000E+00
(PID.TID 0000.0001) %MON ad_advcfl_adW_hf_max         =   0.0000000000000E+00
(PID.TID 0000.0001) // =======================================================
(PID.TID 0000.0001) // End MONITOR dynamic field statistics
(PID.TID 0000.0001) // =======================================================
 cg2d: Sum(rhs),rhsMax =  -5.42101086242752E-19  1.74906049595377E-04
 cg2d: Sum(rhs),rhsMax =  -9.74864633462857E-12  4.22179769208176E+00
 cg2d: Sum(rhs),rhsMax =  -9.74864633462857E-12  4.22179769208176E+00
(PID.TID 0000.0001) // =======================================================
(PID.TID 0000.0001) // Begin MONITOR dynamic field statistics
(PID.TID 0000.0001) // =======================================================
(PID.TID 0000.0001) %MON ad_time_tsnumber             =                 72019
(PID.TID 0000.0001) %MON ad_time_secondsf             =   6.2224416000000E+09
(PID.TID 0000.0001) %MON ad_dynstat_adeta_max         =   0.0000000000000E+00
(PID.TID 0000.0001) %MON ad_dynstat_adeta_min         =   0.0000000000000E+00
(PID.TID 0000.0001) %MON ad_dynstat_adeta_mean        =   0.0000000000000E+00
(PID.TID 0000.0001) %MON ad_dynstat_adeta_sd          =   0.0000000000000E+00
(PID.TID 0000.0001) %MON ad_dynstat_adeta_del2        =   0.0000000000000E+00
(PID.TID 0000.0001) %MON ad_dynstat_aduvel_max        =   1.8373179525332E+01
(PID.TID 0000.0001) %MON ad_dynstat_aduvel_min        =  -5.2729366486838E+01
(PID.TID 0000.0001) %MON ad_dynstat_aduvel_mean       =   4.6552266502894E-02
(PID.TID 0000.0001) %MON ad_dynstat_aduvel_sd         =   1.1048761786918E+00
(PID.TID 0000.0001) %MON ad_dynstat_aduvel_del2       =   1.1338502746953E-02
(PID.TID 0000.0001) %MON ad_dynstat_advvel_max        =   3.3948607010288E+01
(PID.TID 0000.0001) %MON ad_dynstat_advvel_min        =  -1.7206273326864E+01
(PID.TID 0000.0001) %MON ad_dynstat_advvel_mean       =  -1.7957239181006E-02
(PID.TID 0000.0001) %MON ad_dynstat_advvel_sd         =   1.0663540622564E+00
(PID.TID 0000.0001) %MON ad_dynstat_advvel_del2       =   9.3866883319019E-03
(PID.TID 0000.0001) %MON ad_dynstat_adwvel_max        =   5.9019226456793E+01
(PID.TID 0000.0001) %MON ad_dynstat_adwvel_min        =  -3.4831679813662E+01
(PID.TID 0000.0001) %MON ad_dynstat_adwvel_mean       =  -1.1007190964698E-03
(PID.TID 0000.0001) %MON ad_dynstat_adwvel_sd         =   6.4473129645790E-01
(PID.TID 0000.0001) %MON ad_dynstat_adwvel_del2       =   8.7550322232139E-03
(PID.TID 0000.0001) %MON ad_dynstat_adtheta_max       =   5.6187190311327E+01
(PID.TID 0000.0001) %MON ad_dynstat_adtheta_min       =  -6.6773258761614E+01
(PID.TID 0000.0001) %MON ad_dynstat_adtheta_mean      =   6.1257951597848E-01
(PID.TID 0000.0001) %MON ad_dynstat_adtheta_sd        =   1.9289319097874E+00
(PID.TID 0000.0001) %MON ad_dynstat_adtheta_del2      =   1.1905552247519E-02
(PID.TID 0000.0001) %MON ad_dynstat_adsalt_max        =   2.3551290906075E+02
(PID.TID 0000.0001) %MON ad_dynstat_adsalt_min        =  -2.3601726665243E+02
(PID.TID 0000.0001) %MON ad_dynstat_adsalt_mean       =  -1.1114341667606E-03
(PID.TID 0000.0001) %MON ad_dynstat_adsalt_sd         =   1.0966265987268E+00
(PID.TID 0000.0001) %MON ad_dynstat_adsalt_del2       =   3.3713803918897E-02
(PID.TID 0000.0001) %MON ad_forcing_adqnet_max        =   0.0000000000000E+00
(PID.TID 0000.0001) %MON ad_forcing_adqnet_min        =   0.0000000000000E+00
(PID.TID 0000.0001) %MON ad_forcing_adqnet_mean       =   0.0000000000000E+00
(PID.TID 0000.0001) %MON ad_forcing_adqnet_sd         =   0.0000000000000E+00
(PID.TID 0000.0001) %MON ad_forcing_adqnet_del2       =   0.0000000000000E+00
(PID.TID 0000.0001) %MON ad_forcing_adqsw_max         =   2.6022217995770E-04
(PID.TID 0000.0001) %MON ad_forcing_adqsw_min         =  -2.3682986557135E-04
(PID.TID 0000.0001) %MON ad_forcing_adqsw_mean        =   1.8906886742971E-05
(PID.TID 0000.0001) %MON ad_forcing_adqsw_sd          =   4.9639817330179E-05
(PID.TID 0000.0001) %MON ad_forcing_adqsw_del2        =   7.0452877190885E-07
(PID.TID 0000.0001) %MON ad_forcing_adempmr_max       =   0.0000000000000E+00
(PID.TID 0000.0001) %MON ad_forcing_adempmr_min       =   0.0000000000000E+00
(PID.TID 0000.0001) %MON ad_forcing_adempmr_mean      =   0.0000000000000E+00
(PID.TID 0000.0001) %MON ad_forcing_adempmr_sd        =   0.0000000000000E+00
(PID.TID 0000.0001) %MON ad_forcing_adempmr_del2      =   0.0000000000000E+00
(PID.TID 0000.0001) %MON ad_forcing_adfu_max          =   0.0000000000000E+00
(PID.TID 0000.0001) %MON ad_forcing_adfu_min          =   0.0000000000000E+00
(PID.TID 0000.0001) %MON ad_forcing_adfu_mean         =   0.0000000000000E+00
(PID.TID 0000.0001) %MON ad_forcing_adfu_sd           =   0.0000000000000E+00
(PID.TID 0000.0001) %MON ad_forcing_adfu_del2         =   0.0000000000000E+00
(PID.TID 0000.0001) %MON ad_forcing_adfv_max          =   0.0000000000000E+00
(PID.TID 0000.0001) %MON ad_forcing_adfv_min          =   0.0000000000000E+00
(PID.TID 0000.0001) %MON ad_forcing_adfv_mean         =   0.0000000000000E+00
(PID.TID 0000.0001) %MON ad_forcing_adfv_sd           =   0.0000000000000E+00
(PID.TID 0000.0001) %MON ad_forcing_adfv_del2         =   0.0000000000000E+00
(PID.TID 0000.0001) %MON ad_advcfl_aduvel_max         =   1.9489226054286E+01
(PID.TID 0000.0001) %MON ad_advcfl_advvel_max         =   1.2171009332434E+01
(PID.TID 0000.0001) %MON ad_advcfl_adwvel_max         =   8.4987686097782E+04
(PID.TID 0000.0001) %MON ad_advcfl_adW_hf_max         =   1.0198599009246E+05
(PID.TID 0000.0001) // =======================================================
(PID.TID 0000.0001) // End MONITOR dynamic field statistics
(PID.TID 0000.0001) // =======================================================
 cg2d: Sum(rhs),rhsMax =   9.75781955236954E-19  1.43944275630948E-03
 cg2d: Sum(rhs),rhsMax =  -9.66338120633736E-12  4.22297627110994E+00
 cg2d: Sum(rhs),rhsMax =  -9.66338120633736E-12  4.22297627110994E+00
(PID.TID 0000.0001) // =======================================================
(PID.TID 0000.0001) // Begin MONITOR dynamic field statistics
(PID.TID 0000.0001) // =======================================================
(PID.TID 0000.0001) %MON ad_time_tsnumber             =                 72018
(PID.TID 0000.0001) %MON ad_time_secondsf             =   6.2223552000000E+09
(PID.TID 0000.0001) %MON ad_dynstat_adeta_max         =   0.0000000000000E+00
(PID.TID 0000.0001) %MON ad_dynstat_adeta_min         =   0.0000000000000E+00
(PID.TID 0000.0001) %MON ad_dynstat_adeta_mean        =   0.0000000000000E+00
(PID.TID 0000.0001) %MON ad_dynstat_adeta_sd          =   0.0000000000000E+00
(PID.TID 0000.0001) %MON ad_dynstat_adeta_del2        =   0.0000000000000E+00
(PID.TID 0000.0001) %MON ad_dynstat_aduvel_max        =   3.7511479412650E+01
(PID.TID 0000.0001) %MON ad_dynstat_aduvel_min        =  -1.0305320886536E+02
(PID.TID 0000.0001) %MON ad_dynstat_aduvel_mean       =   1.0365983791400E-01
(PID.TID 0000.0001) %MON ad_dynstat_aduvel_sd         =   2.1696950475963E+00
(PID.TID 0000.0001) %MON ad_dynstat_aduvel_del2       =   2.2149880531792E-02
(PID.TID 0000.0001) %MON ad_dynstat_advvel_max        =   6.4883984159792E+01
(PID.TID 0000.0001) %MON ad_dynstat_advvel_min        =  -3.3099334292799E+01
(PID.TID 0000.0001) %MON ad_dynstat_advvel_mean       =  -8.6505105203230E-03
(PID.TID 0000.0001) %MON ad_dynstat_advvel_sd         =   2.0929710107772E+00
(PID.TID 0000.0001) %MON ad_dynstat_advvel_del2       =   1.8379557037975E-02
(PID.TID 0000.0001) %MON ad_dynstat_adwvel_max        =   7.5993035870918E+01
(PID.TID 0000.0001) %MON ad_dynstat_adwvel_min        =  -4.4851049665922E+01
(PID.TID 0000.0001) %MON ad_dynstat_adwvel_mean       =  -1.6326294862324E-03
(PID.TID 0000.0001) %MON ad_dynstat_adwvel_sd         =   8.3568026429131E-01
(PID.TID 0000.0001) %MON ad_dynstat_adwvel_del2       =   1.1191077944038E-02
(PID.TID 0000.0001) %MON ad_dynstat_adtheta_max       =   5.9030402155405E+01
(PID.TID 0000.0001) %MON ad_dynstat_adtheta_min       =  -7.1330950588068E+01
(PID.TID 0000.0001) %MON ad_dynstat_adtheta_mean      =   6.1265313904720E-01
(PID.TID 0000.0001) %MON ad_dynstat_adtheta_sd        =   1.9304401695809E+00
(PID.TID 0000.0001) %MON ad_dynstat_adtheta_del2      =   1.2935872730939E-02
(PID.TID 0000.0001) %MON ad_dynstat_adsalt_max        =   2.4953100391242E+02
(PID.TID 0000.0001) %MON ad_dynstat_adsalt_min        =  -2.5009210994339E+02
(PID.TID 0000.0001) %MON ad_dynstat_adsalt_mean       =  -3.5573673060750E-03
(PID.TID 0000.0001) %MON ad_dynstat_adsalt_sd         =   1.3270032004020E+00
(PID.TID 0000.0001) %MON ad_dynstat_adsalt_del2       =   4.0639878014513E-02
(PID.TID 0000.0001) %MON ad_forcing_adqnet_max        =   0.0000000000000E+00
(PID.TID 0000.0001) %MON ad_forcing_adqnet_min        =   0.0000000000000E+00
(PID.TID 0000.0001) %MON ad_forcing_adqnet_mean       =   0.0000000000000E+00
(PID.TID 0000.0001) %MON ad_forcing_adqnet_sd         =   0.0000000000000E+00
(PID.TID 0000.0001) %MON ad_forcing_adqnet_del2       =   0.0000000000000E+00
(PID.TID 0000.0001) %MON ad_forcing_adqsw_max         =   1.1534846235978E-03
(PID.TID 0000.0001) %MON ad_forcing_adqsw_min         =  -9.4173468999711E-04
(PID.TID 0000.0001) %MON ad_forcing_adqsw_mean        =   3.8239998663115E-05
(PID.TID 0000.0001) %MON ad_forcing_adqsw_sd          =   1.0150101285955E-04
(PID.TID 0000.0001) %MON ad_forcing_adqsw_del2        =   2.0500590891465E-06
(PID.TID 0000.0001) %MON ad_forcing_adempmr_max       =   0.0000000000000E+00
(PID.TID 0000.0001) %MON ad_forcing_adempmr_min       =   0.0000000000000E+00
(PID.TID 0000.0001) %MON ad_forcing_adempmr_mean      =   0.0000000000000E+00
(PID.TID 0000.0001) %MON ad_forcing_adempmr_sd        =   0.0000000000000E+00
(PID.TID 0000.0001) %MON ad_forcing_adempmr_del2      =   0.0000000000000E+00
(PID.TID 0000.0001) %MON ad_forcing_adfu_max          =   0.0000000000000E+00
(PID.TID 0000.0001) %MON ad_forcing_adfu_min          =   0.0000000000000E+00
(PID.TID 0000.0001) %MON ad_forcing_adfu_mean         =   0.0000000000000E+00
(PID.TID 0000.0001) %MON ad_forcing_adfu_sd           =   0.0000000000000E+00
(PID.TID 0000.0001) %MON ad_forcing_adfu_del2         =   0.0000000000000E+00
(PID.TID 0000.0001) %MON ad_forcing_adfv_max          =   0.0000000000000E+00
(PID.TID 0000.0001) %MON ad_forcing_adfv_min          =   0.0000000000000E+00
(PID.TID 0000.0001) %MON ad_forcing_adfv_mean         =   0.0000000000000E+00
(PID.TID 0000.0001) %MON ad_forcing_adfv_sd           =   0.0000000000000E+00
(PID.TID 0000.0001) %MON ad_forcing_adfv_del2         =   0.0000000000000E+00
(PID.TID 0000.0001) %MON ad_advcfl_aduvel_max         =   3.8089349768651E+01
(PID.TID 0000.0001) %MON ad_advcfl_advvel_max         =   2.3261737263476E+01
(PID.TID 0000.0001) %MON ad_advcfl_adwvel_max         =   1.0942997165412E+05
(PID.TID 0000.0001) %MON ad_advcfl_adW_hf_max         =   1.3131695308687E+05
(PID.TID 0000.0001) // =======================================================
(PID.TID 0000.0001) // End MONITOR dynamic field statistics
(PID.TID 0000.0001) // =======================================================
 cg2d: Sum(rhs),rhsMax =   7.58941520739853E-19  2.34008233752033E-03
 cg2d: Sum(rhs),rhsMax =  -9.83391146291979E-12  4.22414668845059E+00
 cg2d: Sum(rhs),rhsMax =  -9.83391146291979E-12  4.22414668845059E+00
(PID.TID 0000.0001) // =======================================================
(PID.TID 0000.0001) // Begin MONITOR dynamic field statistics
(PID.TID 0000.0001) // =======================================================
(PID.TID 0000.0001) %MON ad_time_tsnumber             =                 72017
(PID.TID 0000.0001) %MON ad_time_secondsf             =   6.2222688000000E+09
(PID.TID 0000.0001) %MON ad_dynstat_adeta_max         =   0.0000000000000E+00
(PID.TID 0000.0001) %MON ad_dynstat_adeta_min         =   0.0000000000000E+00
(PID.TID 0000.0001) %MON ad_dynstat_adeta_mean        =   0.0000000000000E+00
(PID.TID 0000.0001) %MON ad_dynstat_adeta_sd          =   0.0000000000000E+00
(PID.TID 0000.0001) %MON ad_dynstat_adeta_del2        =   0.0000000000000E+00
(PID.TID 0000.0001) %MON ad_dynstat_aduvel_max        =   8.0424534309436E+01
(PID.TID 0000.0001) %MON ad_dynstat_aduvel_min        =  -1.5180544493675E+02
(PID.TID 0000.0001) %MON ad_dynstat_aduvel_mean       =   1.5562589337182E-01
(PID.TID 0000.0001) %MON ad_dynstat_aduvel_sd         =   3.1961912072287E+00
(PID.TID 0000.0001) %MON ad_dynstat_aduvel_del2       =   3.2465281672512E-02
(PID.TID 0000.0001) %MON ad_dynstat_advvel_max        =   9.2134407563330E+01
(PID.TID 0000.0001) %MON ad_dynstat_advvel_min        =  -5.0989914344849E+01
(PID.TID 0000.0001) %MON ad_dynstat_advvel_mean       =   2.9916037757424E-02
(PID.TID 0000.0001) %MON ad_dynstat_advvel_sd         =   3.0825188913446E+00
(PID.TID 0000.0001) %MON ad_dynstat_advvel_del2       =   2.7004987426713E-02
(PID.TID 0000.0001) %MON ad_dynstat_adwvel_max        =   1.0540121254250E+02
(PID.TID 0000.0001) %MON ad_dynstat_adwvel_min        =  -6.2168054769629E+01
(PID.TID 0000.0001) %MON ad_dynstat_adwvel_mean       =  -2.5685314291623E-03
(PID.TID 0000.0001) %MON ad_dynstat_adwvel_sd         =   1.1514744461718E+00
(PID.TID 0000.0001) %MON ad_dynstat_adwvel_del2       =   1.5397855387517E-02
(PID.TID 0000.0001) %MON ad_dynstat_adtheta_max       =   5.8109264103594E+01
(PID.TID 0000.0001) %MON ad_dynstat_adtheta_min       =  -7.9988499292633E+01
(PID.TID 0000.0001) %MON ad_dynstat_adtheta_mean      =   6.1306862584711E-01
(PID.TID 0000.0001) %MON ad_dynstat_adtheta_sd        =   1.9324431640280E+00
(PID.TID 0000.0001) %MON ad_dynstat_adtheta_del2      =   1.3792185827239E-02
(PID.TID 0000.0001) %MON ad_dynstat_adsalt_max        =   2.5658408940859E+02
(PID.TID 0000.0001) %MON ad_dynstat_adsalt_min        =  -2.5806323009909E+02
(PID.TID 0000.0001) %MON ad_dynstat_adsalt_mean       =  -7.5428886646776E-03
(PID.TID 0000.0001) %MON ad_dynstat_adsalt_sd         =   1.5705752195873E+00
(PID.TID 0000.0001) %MON ad_dynstat_adsalt_del2       =   4.6747869158000E-02
(PID.TID 0000.0001) %MON ad_forcing_adqnet_max        =   0.0000000000000E+00
(PID.TID 0000.0001) %MON ad_forcing_adqnet_min        =   0.0000000000000E+00
(PID.TID 0000.0001) %MON ad_forcing_adqnet_mean       =   0.0000000000000E+00
(PID.TID 0000.0001) %MON ad_forcing_adqnet_sd         =   0.0000000000000E+00
(PID.TID 0000.0001) %MON ad_forcing_adqnet_del2       =   0.0000000000000E+00
(PID.TID 0000.0001) %MON ad_forcing_adqsw_max         =   2.5100287215871E-03
(PID.TID 0000.0001) %MON ad_forcing_adqsw_min         =  -1.0716745225074E-03
(PID.TID 0000.0001) %MON ad_forcing_adqsw_mean        =   5.7743274600756E-05
(PID.TID 0000.0001) %MON ad_forcing_adqsw_sd          =   1.5585887453218E-04
(PID.TID 0000.0001) %MON ad_forcing_adqsw_del2        =   3.7911482418464E-06
(PID.TID 0000.0001) %MON ad_forcing_adempmr_max       =   0.0000000000000E+00
(PID.TID 0000.0001) %MON ad_forcing_adempmr_min       =   0.0000000000000E+00
(PID.TID 0000.0001) %MON ad_forcing_adempmr_mean      =   0.0000000000000E+00
(PID.TID 0000.0001) %MON ad_forcing_adempmr_sd        =   0.0000000000000E+00
(PID.TID 0000.0001) %MON ad_forcing_adempmr_del2      =   0.0000000000000E+00
(PID.TID 0000.0001) %MON ad_forcing_adfu_max          =   0.0000000000000E+00
(PID.TID 0000.0001) %MON ad_forcing_adfu_min          =   0.0000000000000E+00
(PID.TID 0000.0001) %MON ad_forcing_adfu_mean         =   0.0000000000000E+00
(PID.TID 0000.0001) %MON ad_forcing_adfu_sd           =   0.0000000000000E+00
(PID.TID 0000.0001) %MON ad_forcing_adfu_del2         =   0.0000000000000E+00
(PID.TID 0000.0001) %MON ad_forcing_adfv_max          =   0.0000000000000E+00
(PID.TID 0000.0001) %MON ad_forcing_adfv_min          =   0.0000000000000E+00
(PID.TID 0000.0001) %MON ad_forcing_adfv_mean         =   0.0000000000000E+00
(PID.TID 0000.0001) %MON ad_forcing_adfv_sd           =   0.0000000000000E+00
(PID.TID 0000.0001) %MON ad_forcing_adfv_del2         =   0.0000000000000E+00
(PID.TID 0000.0001) %MON ad_advcfl_aduvel_max         =   5.6108594313993E+01
(PID.TID 0000.0001) %MON ad_advcfl_advvel_max         =   3.3031362198505E+01
(PID.TID 0000.0001) %MON ad_advcfl_adwvel_max         =   1.5177774606121E+05
(PID.TID 0000.0001) %MON ad_advcfl_adW_hf_max         =   1.8213466398356E+05
(PID.TID 0000.0001) // =======================================================
(PID.TID 0000.0001) // End MONITOR dynamic field statistics
(PID.TID 0000.0001) // =======================================================
 cg2d: Sum(rhs),rhsMax =  -1.95156391047391E-18  2.74395093027432E-03
 EXTERNAL_FIELDS_LOAD, it=     72015 : Reading new data, i0,i1=    1    2 (prev=   12    2 )
 cg2d: Sum(rhs),rhsMax =  -9.69180291576777E-12  4.22560897542637E+00
 EXTERNAL_FIELDS_LOAD, it=     72015 : Reading new data, i0,i1=    1    2 (prev=   12    2 )
 cg2d: Sum(rhs),rhsMax =  -9.69180291576777E-12  4.22560897542637E+00
(PID.TID 0000.0001) // =======================================================
(PID.TID 0000.0001) // Begin MONITOR dynamic field statistics
(PID.TID 0000.0001) // =======================================================
(PID.TID 0000.0001) %MON ad_time_tsnumber             =                 72016
(PID.TID 0000.0001) %MON ad_time_secondsf             =   6.2221824000000E+09
(PID.TID 0000.0001) %MON ad_dynstat_adeta_max         =   0.0000000000000E+00
(PID.TID 0000.0001) %MON ad_dynstat_adeta_min         =   0.0000000000000E+00
(PID.TID 0000.0001) %MON ad_dynstat_adeta_mean        =   0.0000000000000E+00
(PID.TID 0000.0001) %MON ad_dynstat_adeta_sd          =   0.0000000000000E+00
(PID.TID 0000.0001) %MON ad_dynstat_adeta_del2        =   0.0000000000000E+00
(PID.TID 0000.0001) %MON ad_dynstat_aduvel_max        =   1.5008102244290E+02
(PID.TID 0000.0001) %MON ad_dynstat_aduvel_min        =  -1.9817922302104E+02
(PID.TID 0000.0001) %MON ad_dynstat_aduvel_mean       =   1.9025826269042E-01
(PID.TID 0000.0001) %MON ad_dynstat_aduvel_sd         =   4.1777914370405E+00
(PID.TID 0000.0001) %MON ad_dynstat_aduvel_del2       =   4.2603266272232E-02
(PID.TID 0000.0001) %MON ad_dynstat_advvel_max        =   1.2269018257554E+02
(PID.TID 0000.0001) %MON ad_dynstat_advvel_min        =  -7.8796549426775E+01
(PID.TID 0000.0001) %MON ad_dynstat_advvel_mean       =   8.9972174359253E-02
(PID.TID 0000.0001) %MON ad_dynstat_advvel_sd         =   4.0299992174125E+00
(PID.TID 0000.0001) %MON ad_dynstat_advvel_del2       =   3.5517726990521E-02
(PID.TID 0000.0001) %MON ad_dynstat_adwvel_max        =   1.3345630444196E+02
(PID.TID 0000.0001) %MON ad_dynstat_adwvel_min        =  -7.8855190640748E+01
(PID.TID 0000.0001) %MON ad_dynstat_adwvel_mean       =  -3.4431015045453E-03
(PID.TID 0000.0001) %MON ad_dynstat_adwvel_sd         =   1.4623954126233E+00
(PID.TID 0000.0001) %MON ad_dynstat_adwvel_del2       =   1.9457864938945E-02
(PID.TID 0000.0001) %MON ad_dynstat_adtheta_max       =   6.0420437760926E+01
(PID.TID 0000.0001) %MON ad_dynstat_adtheta_min       =  -8.4477900678358E+01
(PID.TID 0000.0001) %MON ad_dynstat_adtheta_mean      =   6.1373190524675E-01
(PID.TID 0000.0001) %MON ad_dynstat_adtheta_sd        =   1.9338070271495E+00
(PID.TID 0000.0001) %MON ad_dynstat_adtheta_del2      =   1.4415264431293E-02
(PID.TID 0000.0001) %MON ad_dynstat_adsalt_max        =   2.6927101607475E+02
(PID.TID 0000.0001) %MON ad_dynstat_adsalt_min        =  -2.7173443931080E+02
(PID.TID 0000.0001) %MON ad_dynstat_adsalt_mean       =  -1.2677136527092E-02
(PID.TID 0000.0001) %MON ad_dynstat_adsalt_sd         =   1.7773884278602E+00
(PID.TID 0000.0001) %MON ad_dynstat_adsalt_del2       =   5.1466427752462E-02
(PID.TID 0000.0001) %MON ad_forcing_adqnet_max        =   0.0000000000000E+00
(PID.TID 0000.0001) %MON ad_forcing_adqnet_min        =   0.0000000000000E+00
(PID.TID 0000.0001) %MON ad_forcing_adqnet_mean       =   0.0000000000000E+00
(PID.TID 0000.0001) %MON ad_forcing_adqnet_sd         =   0.0000000000000E+00
(PID.TID 0000.0001) %MON ad_forcing_adqnet_del2       =   0.0000000000000E+00
(PID.TID 0000.0001) %MON ad_forcing_adqsw_max         =   3.8813481411071E-03
(PID.TID 0000.0001) %MON ad_forcing_adqsw_min         =  -1.2808821006614E-03
(PID.TID 0000.0001) %MON ad_forcing_adqsw_mean        =   7.7345376088996E-05
(PID.TID 0000.0001) %MON ad_forcing_adqsw_sd          =   2.1162234213344E-04
(PID.TID 0000.0001) %MON ad_forcing_adqsw_del2        =   5.7568494287611E-06
(PID.TID 0000.0001) %MON ad_forcing_adempmr_max       =   0.0000000000000E+00
(PID.TID 0000.0001) %MON ad_forcing_adempmr_min       =   0.0000000000000E+00
(PID.TID 0000.0001) %MON ad_forcing_adempmr_mean      =   0.0000000000000E+00
(PID.TID 0000.0001) %MON ad_forcing_adempmr_sd        =   0.0000000000000E+00
(PID.TID 0000.0001) %MON ad_forcing_adempmr_del2      =   0.0000000000000E+00
(PID.TID 0000.0001) %MON ad_forcing_adfu_max          =   0.0000000000000E+00
(PID.TID 0000.0001) %MON ad_forcing_adfu_min          =   0.0000000000000E+00
(PID.TID 0000.0001) %MON ad_forcing_adfu_mean         =   0.0000000000000E+00
(PID.TID 0000.0001) %MON ad_forcing_adfu_sd           =   0.0000000000000E+00
(PID.TID 0000.0001) %MON ad_forcing_adfu_del2         =   0.0000000000000E+00
(PID.TID 0000.0001) %MON ad_forcing_adfv_max          =   0.0000000000000E+00
(PID.TID 0000.0001) %MON ad_forcing_adfv_min          =   0.0000000000000E+00
(PID.TID 0000.0001) %MON ad_forcing_adfv_mean         =   0.0000000000000E+00
(PID.TID 0000.0001) %MON ad_forcing_adfv_sd           =   0.0000000000000E+00
(PID.TID 0000.0001) %MON ad_forcing_adfv_del2         =   0.0000000000000E+00
(PID.TID 0000.0001) %MON ad_advcfl_aduvel_max         =   7.3248740389928E+01
(PID.TID 0000.0001) %MON ad_advcfl_advvel_max         =   4.1382731567173E+01
(PID.TID 0000.0001) %MON ad_advcfl_adwvel_max         =   1.9217707839642E+05
(PID.TID 0000.0001) %MON ad_advcfl_adW_hf_max         =   2.3061422760212E+05
(PID.TID 0000.0001) // =======================================================
(PID.TID 0000.0001) // End MONITOR dynamic field statistics
(PID.TID 0000.0001) // =======================================================
 cg2d: Sum(rhs),rhsMax =  -5.42101086242752E-19  2.65324208244825E-03
 cg2d: Sum(rhs),rhsMax =  -9.63495949690696E-12  4.22711470300476E+00
 cg2d: Sum(rhs),rhsMax =  -9.63495949690696E-12  4.22711470300476E+00
(PID.TID 0000.0001) // =======================================================
(PID.TID 0000.0001) // Begin MONITOR dynamic field statistics
(PID.TID 0000.0001) // =======================================================
(PID.TID 0000.0001) %MON ad_time_tsnumber             =                 72015
(PID.TID 0000.0001) %MON ad_time_secondsf             =   6.2220960000000E+09
(PID.TID 0000.0001) %MON ad_dynstat_adeta_max         =   0.0000000000000E+00
(PID.TID 0000.0001) %MON ad_dynstat_adeta_min         =   0.0000000000000E+00
(PID.TID 0000.0001) %MON ad_dynstat_adeta_mean        =   0.0000000000000E+00
(PID.TID 0000.0001) %MON ad_dynstat_adeta_sd          =   0.0000000000000E+00
(PID.TID 0000.0001) %MON ad_dynstat_adeta_del2        =   0.0000000000000E+00
(PID.TID 0000.0001) %MON ad_dynstat_aduvel_max        =   2.4514415952961E+02
(PID.TID 0000.0001) %MON ad_dynstat_aduvel_min        =  -2.4168072335004E+02
(PID.TID 0000.0001) %MON ad_dynstat_aduvel_mean       =   2.0780715426071E-01
(PID.TID 0000.0001) %MON ad_dynstat_aduvel_sd         =   5.1076444016502E+00
(PID.TID 0000.0001) %MON ad_dynstat_aduvel_del2       =   5.2645783971091E-02
(PID.TID 0000.0001) %MON ad_dynstat_advvel_max        =   1.7407791805686E+02
(PID.TID 0000.0001) %MON ad_dynstat_advvel_min        =  -1.3213540137774E+02
(PID.TID 0000.0001) %MON ad_dynstat_advvel_mean       =   1.6085447293222E-01
(PID.TID 0000.0001) %MON ad_dynstat_advvel_sd         =   4.9332403315530E+00
(PID.TID 0000.0001) %MON ad_dynstat_advvel_del2       =   4.3939762914508E-02
(PID.TID 0000.0001) %MON ad_dynstat_adwvel_max        =   1.6008046853186E+02
(PID.TID 0000.0001) %MON ad_dynstat_adwvel_min        =  -9.4920723335781E+01
(PID.TID 0000.0001) %MON ad_dynstat_adwvel_mean       =  -4.4190754288013E-03
(PID.TID 0000.0001) %MON ad_dynstat_adwvel_sd         =   1.7603246860688E+00
(PID.TID 0000.0001) %MON ad_dynstat_adwvel_del2       =   2.3337121791502E-02
(PID.TID 0000.0001) %MON ad_dynstat_adtheta_max       =   6.5635608452702E+01
(PID.TID 0000.0001) %MON ad_dynstat_adtheta_min       =  -8.6399118593336E+01
(PID.TID 0000.0001) %MON ad_dynstat_adtheta_mean      =   6.1457359975836E-01
(PID.TID 0000.0001) %MON ad_dynstat_adtheta_sd        =   1.9355431186810E+00
(PID.TID 0000.0001) %MON ad_dynstat_adtheta_del2      =   1.4837926468374E-02
(PID.TID 0000.0001) %MON ad_dynstat_adsalt_max        =   2.9902468584485E+02
(PID.TID 0000.0001) %MON ad_dynstat_adsalt_min        =  -2.9641878964868E+02
(PID.TID 0000.0001) %MON ad_dynstat_adsalt_mean       =  -1.8692347661753E-02
(PID.TID 0000.0001) %MON ad_dynstat_adsalt_sd         =   2.0031299697134E+00
(PID.TID 0000.0001) %MON ad_dynstat_adsalt_del2       =   5.5435747500008E-02
(PID.TID 0000.0001) %MON ad_forcing_adqnet_max        =   0.0000000000000E+00
(PID.TID 0000.0001) %MON ad_forcing_adqnet_min        =   0.0000000000000E+00
(PID.TID 0000.0001) %MON ad_forcing_adqnet_mean       =   0.0000000000000E+00
(PID.TID 0000.0001) %MON ad_forcing_adqnet_sd         =   0.0000000000000E+00
(PID.TID 0000.0001) %MON ad_forcing_adqnet_del2       =   0.0000000000000E+00
(PID.TID 0000.0001) %MON ad_forcing_adqsw_max         =   5.2228778834648E-03
(PID.TID 0000.0001) %MON ad_forcing_adqsw_min         =  -2.1220446199955E-03
(PID.TID 0000.0001) %MON ad_forcing_adqsw_mean        =   9.6907231282768E-05
(PID.TID 0000.0001) %MON ad_forcing_adqsw_sd          =   2.6824143901094E-04
(PID.TID 0000.0001) %MON ad_forcing_adqsw_del2        =   7.8460434696406E-06
(PID.TID 0000.0001) %MON ad_forcing_adempmr_max       =   0.0000000000000E+00
(PID.TID 0000.0001) %MON ad_forcing_adempmr_min       =   0.0000000000000E+00
(PID.TID 0000.0001) %MON ad_forcing_adempmr_mean      =   0.0000000000000E+00
(PID.TID 0000.0001) %MON ad_forcing_adempmr_sd        =   0.0000000000000E+00
(PID.TID 0000.0001) %MON ad_forcing_adempmr_del2      =   0.0000000000000E+00
(PID.TID 0000.0001) %MON ad_forcing_adfu_max          =   0.0000000000000E+00
(PID.TID 0000.0001) %MON ad_forcing_adfu_min          =   0.0000000000000E+00
(PID.TID 0000.0001) %MON ad_forcing_adfu_mean         =   0.0000000000000E+00
(PID.TID 0000.0001) %MON ad_forcing_adfu_sd           =   0.0000000000000E+00
(PID.TID 0000.0001) %MON ad_forcing_adfu_del2         =   0.0000000000000E+00
(PID.TID 0000.0001) %MON ad_forcing_adfv_max          =   0.0000000000000E+00
(PID.TID 0000.0001) %MON ad_forcing_adfv_min          =   0.0000000000000E+00
(PID.TID 0000.0001) %MON ad_forcing_adfv_mean         =   0.0000000000000E+00
(PID.TID 0000.0001) %MON ad_forcing_adfv_sd           =   0.0000000000000E+00
(PID.TID 0000.0001) %MON ad_forcing_adfv_del2         =   0.0000000000000E+00
(PID.TID 0000.0001) %MON ad_advcfl_aduvel_max         =   1.0530610813449E+02
(PID.TID 0000.0001) %MON ad_advcfl_advvel_max         =   5.7595959908719E+01
(PID.TID 0000.0001) %MON ad_advcfl_adwvel_max         =   2.3051587468588E+05
(PID.TID 0000.0001) %MON ad_advcfl_adW_hf_max         =   2.7662113121543E+05
(PID.TID 0000.0001) // =======================================================
(PID.TID 0000.0001) // End MONITOR dynamic field statistics
(PID.TID 0000.0001) // =======================================================
 cg2d: Sum(rhs),rhsMax =  -9.75781955236954E-19  2.24112152642428E-03
 cg2d: Sum(rhs),rhsMax =  -9.66338120633736E-12  4.22882246060732E+00
 cg2d: Sum(rhs),rhsMax =  -9.66338120633736E-12  4.22882246060732E+00
(PID.TID 0000.0001) // =======================================================
(PID.TID 0000.0001) // Begin MONITOR dynamic field statistics
(PID.TID 0000.0001) // =======================================================
(PID.TID 0000.0001) %MON ad_time_tsnumber             =                 72014
(PID.TID 0000.0001) %MON ad_time_secondsf             =   6.2220096000000E+09
(PID.TID 0000.0001) %MON ad_dynstat_adeta_max         =   0.0000000000000E+00
(PID.TID 0000.0001) %MON ad_dynstat_adeta_min         =   0.0000000000000E+00
(PID.TID 0000.0001) %MON ad_dynstat_adeta_mean        =   0.0000000000000E+00
(PID.TID 0000.0001) %MON ad_dynstat_adeta_sd          =   0.0000000000000E+00
(PID.TID 0000.0001) %MON ad_dynstat_adeta_del2        =   0.0000000000000E+00
(PID.TID 0000.0001) %MON ad_dynstat_aduvel_max        =   3.5797105732936E+02
(PID.TID 0000.0001) %MON ad_dynstat_aduvel_min        =  -2.8197446047650E+02
(PID.TID 0000.0001) %MON ad_dynstat_aduvel_mean       =   2.1672246261326E-01
(PID.TID 0000.0001) %MON ad_dynstat_aduvel_sd         =   5.9833020426134E+00
(PID.TID 0000.0001) %MON ad_dynstat_aduvel_del2       =   6.2776367556481E-02
(PID.TID 0000.0001) %MON ad_dynstat_advvel_max        =   2.2778229076476E+02
(PID.TID 0000.0001) %MON ad_dynstat_advvel_min        =  -1.9231415556425E+02
(PID.TID 0000.0001) %MON ad_dynstat_advvel_mean       =   2.3498012156800E-01
(PID.TID 0000.0001) %MON ad_dynstat_advvel_sd         =   5.7899906618335E+00
(PID.TID 0000.0001) %MON ad_dynstat_advvel_del2       =   5.2378773511963E-02
(PID.TID 0000.0001) %MON ad_dynstat_adwvel_max        =   1.8510357736755E+02
(PID.TID 0000.0001) %MON ad_dynstat_adwvel_min        =  -1.1028994970338E+02
(PID.TID 0000.0001) %MON ad_dynstat_adwvel_mean       =  -5.3975206573519E-03
(PID.TID 0000.0001) %MON ad_dynstat_adwvel_sd         =   2.0458515914096E+00
(PID.TID 0000.0001) %MON ad_dynstat_adwvel_del2       =   2.7008429425501E-02
(PID.TID 0000.0001) %MON ad_dynstat_adtheta_max       =   6.9901499730145E+01
(PID.TID 0000.0001) %MON ad_dynstat_adtheta_min       =  -8.7258739722663E+01
(PID.TID 0000.0001) %MON ad_dynstat_adtheta_mean      =   6.1551895812210E-01
(PID.TID 0000.0001) %MON ad_dynstat_adtheta_sd        =   1.9380912124593E+00
(PID.TID 0000.0001) %MON ad_dynstat_adtheta_del2      =   1.5066298643936E-02
(PID.TID 0000.0001) %MON ad_dynstat_adsalt_max        =   3.5699048696054E+02
(PID.TID 0000.0001) %MON ad_dynstat_adsalt_min        =  -3.5741233469732E+02
(PID.TID 0000.0001) %MON ad_dynstat_adsalt_mean       =  -2.5260074487304E-02
(PID.TID 0000.0001) %MON ad_dynstat_adsalt_sd         =   2.2429803058209E+00
(PID.TID 0000.0001) %MON ad_dynstat_adsalt_del2       =   5.8265742718750E-02
(PID.TID 0000.0001) %MON ad_forcing_adqnet_max        =   0.0000000000000E+00
(PID.TID 0000.0001) %MON ad_forcing_adqnet_min        =   0.0000000000000E+00
(PID.TID 0000.0001) %MON ad_forcing_adqnet_mean       =   0.0000000000000E+00
(PID.TID 0000.0001) %MON ad_forcing_adqnet_sd         =   0.0000000000000E+00
(PID.TID 0000.0001) %MON ad_forcing_adqnet_del2       =   0.0000000000000E+00
(PID.TID 0000.0001) %MON ad_forcing_adqsw_max         =   6.5332730383639E-03
(PID.TID 0000.0001) %MON ad_forcing_adqsw_min         =  -3.1197803095182E-03
(PID.TID 0000.0001) %MON ad_forcing_adqsw_mean        =   1.1635799097732E-04
(PID.TID 0000.0001) %MON ad_forcing_adqsw_sd          =   3.2534154988272E-04
(PID.TID 0000.0001) %MON ad_forcing_adqsw_del2        =   1.0007545700048E-05
(PID.TID 0000.0001) %MON ad_forcing_adempmr_max       =   0.0000000000000E+00
(PID.TID 0000.0001) %MON ad_forcing_adempmr_min       =   0.0000000000000E+00
(PID.TID 0000.0001) %MON ad_forcing_adempmr_mean      =   0.0000000000000E+00
(PID.TID 0000.0001) %MON ad_forcing_adempmr_sd        =   0.0000000000000E+00
(PID.TID 0000.0001) %MON ad_forcing_adempmr_del2      =   0.0000000000000E+00
(PID.TID 0000.0001) %MON ad_forcing_adfu_max          =   0.0000000000000E+00
(PID.TID 0000.0001) %MON ad_forcing_adfu_min          =   0.0000000000000E+00
(PID.TID 0000.0001) %MON ad_forcing_adfu_mean         =   0.0000000000000E+00
(PID.TID 0000.0001) %MON ad_forcing_adfu_sd           =   0.0000000000000E+00
(PID.TID 0000.0001) %MON ad_forcing_adfu_del2         =   0.0000000000000E+00
(PID.TID 0000.0001) %MON ad_forcing_adfv_max          =   0.0000000000000E+00
(PID.TID 0000.0001) %MON ad_forcing_adfv_min          =   0.0000000000000E+00
(PID.TID 0000.0001) %MON ad_forcing_adfv_mean         =   0.0000000000000E+00
(PID.TID 0000.0001) %MON ad_forcing_adfv_sd           =   0.0000000000000E+00
(PID.TID 0000.0001) %MON ad_forcing_adfv_del2         =   0.0000000000000E+00
(PID.TID 0000.0001) %MON ad_advcfl_aduvel_max         =   1.5377294300821E+02
(PID.TID 0000.0001) %MON ad_advcfl_advvel_max         =   8.3827031047442E+01
(PID.TID 0000.0001) %MON ad_advcfl_adwvel_max         =   2.6654915140928E+05
(PID.TID 0000.0001) %MON ad_advcfl_adW_hf_max         =   3.1986139303157E+05
(PID.TID 0000.0001) // =======================================================
(PID.TID 0000.0001) // End MONITOR dynamic field statistics
(PID.TID 0000.0001) // =======================================================
 cg2d: Sum(rhs),rhsMax =   1.40946282423116E-18  2.11441733458490E-03
 cg2d: Sum(rhs),rhsMax =  -9.80548975348938E-12  4.23077337865541E+00
 cg2d: Sum(rhs),rhsMax =  -9.80548975348938E-12  4.23077337865541E+00
(PID.TID 0000.0001) // =======================================================
(PID.TID 0000.0001) // Begin MONITOR dynamic field statistics
(PID.TID 0000.0001) // =======================================================
(PID.TID 0000.0001) %MON ad_time_tsnumber             =                 72013
(PID.TID 0000.0001) %MON ad_time_secondsf             =   6.2219232000000E+09
(PID.TID 0000.0001) %MON ad_dynstat_adeta_max         =   0.0000000000000E+00
(PID.TID 0000.0001) %MON ad_dynstat_adeta_min         =   0.0000000000000E+00
(PID.TID 0000.0001) %MON ad_dynstat_adeta_mean        =   0.0000000000000E+00
(PID.TID 0000.0001) %MON ad_dynstat_adeta_sd          =   0.0000000000000E+00
(PID.TID 0000.0001) %MON ad_dynstat_adeta_del2        =   0.0000000000000E+00
(PID.TID 0000.0001) %MON ad_dynstat_aduvel_max        =   4.7856722619739E+02
(PID.TID 0000.0001) %MON ad_dynstat_aduvel_min        =  -3.1787539805743E+02
(PID.TID 0000.0001) %MON ad_dynstat_aduvel_mean       =   2.2717078140071E-01
(PID.TID 0000.0001) %MON ad_dynstat_aduvel_sd         =   6.7998850994887E+00
(PID.TID 0000.0001) %MON ad_dynstat_aduvel_del2       =   7.2410310071457E-02
(PID.TID 0000.0001) %MON ad_dynstat_advvel_max        =   2.8212366540902E+02
(PID.TID 0000.0001) %MON ad_dynstat_advvel_min        =  -2.5212243583565E+02
(PID.TID 0000.0001) %MON ad_dynstat_advvel_mean       =   3.0826264707615E-01
(PID.TID 0000.0001) %MON ad_dynstat_advvel_sd         =   6.5962196918454E+00
(PID.TID 0000.0001) %MON ad_dynstat_advvel_del2       =   6.0346048986034E-02
(PID.TID 0000.0001) %MON ad_dynstat_adwvel_max        =   2.0840774593069E+02
(PID.TID 0000.0001) %MON ad_dynstat_adwvel_min        =  -1.2489161526650E+02
(PID.TID 0000.0001) %MON ad_dynstat_adwvel_mean       =  -6.3839345356070E-03
(PID.TID 0000.0001) %MON ad_dynstat_adwvel_sd         =   2.3172218197128E+00
(PID.TID 0000.0001) %MON ad_dynstat_adwvel_del2       =   3.0413171615546E-02
(PID.TID 0000.0001) %MON ad_dynstat_adtheta_max       =   6.9238281035363E+01
(PID.TID 0000.0001) %MON ad_dynstat_adtheta_min       =  -8.7644791059471E+01
(PID.TID 0000.0001) %MON ad_dynstat_adtheta_mean      =   6.1653810814790E-01
(PID.TID 0000.0001) %MON ad_dynstat_adtheta_sd        =   1.9419098115989E+00
(PID.TID 0000.0001) %MON ad_dynstat_adtheta_del2      =   1.5097215791896E-02
(PID.TID 0000.0001) %MON ad_dynstat_adsalt_max        =   3.8131430591578E+02
(PID.TID 0000.0001) %MON ad_dynstat_adsalt_min        =  -3.8575857757299E+02
(PID.TID 0000.0001) %MON ad_dynstat_adsalt_mean       =  -3.2207892456657E-02
(PID.TID 0000.0001) %MON ad_dynstat_adsalt_sd         =   2.4956635448899E+00
(PID.TID 0000.0001) %MON ad_dynstat_adsalt_del2       =   5.9764031991679E-02
(PID.TID 0000.0001) %MON ad_forcing_adqnet_max        =   0.0000000000000E+00
(PID.TID 0000.0001) %MON ad_forcing_adqnet_min        =   0.0000000000000E+00
(PID.TID 0000.0001) %MON ad_forcing_adqnet_mean       =   0.0000000000000E+00
(PID.TID 0000.0001) %MON ad_forcing_adqnet_sd         =   0.0000000000000E+00
(PID.TID 0000.0001) %MON ad_forcing_adqnet_del2       =   0.0000000000000E+00
(PID.TID 0000.0001) %MON ad_forcing_adqsw_max         =   7.8158789859423E-03
(PID.TID 0000.0001) %MON ad_forcing_adqsw_min         =  -4.1981108058290E-03
(PID.TID 0000.0001) %MON ad_forcing_adqsw_mean        =   1.3568933602287E-04
(PID.TID 0000.0001) %MON ad_forcing_adqsw_sd          =   3.8260173650925E-04
(PID.TID 0000.0001) %MON ad_forcing_adqsw_del2        =   1.2208565366602E-05
(PID.TID 0000.0001) %MON ad_forcing_adempmr_max       =   0.0000000000000E+00
(PID.TID 0000.0001) %MON ad_forcing_adempmr_min       =   0.0000000000000E+00
(PID.TID 0000.0001) %MON ad_forcing_adempmr_mean      =   0.0000000000000E+00
(PID.TID 0000.0001) %MON ad_forcing_adempmr_sd        =   0.0000000000000E+00
(PID.TID 0000.0001) %MON ad_forcing_adempmr_del2      =   0.0000000000000E+00
(PID.TID 0000.0001) %MON ad_forcing_adfu_max          =   0.0000000000000E+00
(PID.TID 0000.0001) %MON ad_forcing_adfu_min          =   0.0000000000000E+00
(PID.TID 0000.0001) %MON ad_forcing_adfu_mean         =   0.0000000000000E+00
(PID.TID 0000.0001) %MON ad_forcing_adfu_sd           =   0.0000000000000E+00
(PID.TID 0000.0001) %MON ad_forcing_adfu_del2         =   0.0000000000000E+00
(PID.TID 0000.0001) %MON ad_forcing_adfv_max          =   0.0000000000000E+00
(PID.TID 0000.0001) %MON ad_forcing_adfv_min          =   0.0000000000000E+00
(PID.TID 0000.0001) %MON ad_forcing_adfv_mean         =   0.0000000000000E+00
(PID.TID 0000.0001) %MON ad_forcing_adfv_sd           =   0.0000000000000E+00
(PID.TID 0000.0001) %MON ad_forcing_adfv_del2         =   0.0000000000000E+00
(PID.TID 0000.0001) %MON ad_advcfl_aduvel_max         =   2.0557720880753E+02
(PID.TID 0000.0001) %MON ad_advcfl_advvel_max         =   1.0989661782588E+02
(PID.TID 0000.0001) %MON ad_advcfl_adwvel_max         =   3.0010715414019E+05
(PID.TID 0000.0001) %MON ad_advcfl_adW_hf_max         =   3.6013130690557E+05
(PID.TID 0000.0001) // =======================================================
(PID.TID 0000.0001) // End MONITOR dynamic field statistics
(PID.TID 0000.0001) // =======================================================
 cg2d: Sum(rhs),rhsMax =   1.51788304147971E-18  2.64709509114910E-03
 cg2d: Sum(rhs),rhsMax =  -9.54969436861575E-12  4.23300290381890E+00
 cg2d: Sum(rhs),rhsMax =  -9.54969436861575E-12  4.23300290381890E+00
(PID.TID 0000.0001) // =======================================================
(PID.TID 0000.0001) // Begin MONITOR dynamic field statistics
(PID.TID 0000.0001) // =======================================================
(PID.TID 0000.0001) %MON ad_time_tsnumber             =                 72012
(PID.TID 0000.0001) %MON ad_time_secondsf             =   6.2218368000000E+09
(PID.TID 0000.0001) %MON ad_dynstat_adeta_max         =   0.0000000000000E+00
(PID.TID 0000.0001) %MON ad_dynstat_adeta_min         =   0.0000000000000E+00
(PID.TID 0000.0001) %MON ad_dynstat_adeta_mean        =   0.0000000000000E+00
(PID.TID 0000.0001) %MON ad_dynstat_adeta_sd          =   0.0000000000000E+00
(PID.TID 0000.0001) %MON ad_dynstat_adeta_del2        =   0.0000000000000E+00
(PID.TID 0000.0001) %MON ad_dynstat_aduvel_max        =   5.9704406505526E+02
(PID.TID 0000.0001) %MON ad_dynstat_aduvel_min        =  -3.6401712761035E+02
(PID.TID 0000.0001) %MON ad_dynstat_aduvel_mean       =   2.4363409327680E-01
(PID.TID 0000.0001) %MON ad_dynstat_aduvel_sd         =   7.5561385441352E+00
(PID.TID 0000.0001) %MON ad_dynstat_aduvel_del2       =   8.1746544732560E-02
(PID.TID 0000.0001) %MON ad_dynstat_advvel_max        =   3.1648111552158E+02
(PID.TID 0000.0001) %MON ad_dynstat_advvel_min        =  -3.0505604911438E+02
(PID.TID 0000.0001) %MON ad_dynstat_advvel_mean       =   3.7970907306065E-01
(PID.TID 0000.0001) %MON ad_dynstat_advvel_sd         =   7.3489149399464E+00
(PID.TID 0000.0001) %MON ad_dynstat_advvel_del2       =   6.7813192819555E-02
(PID.TID 0000.0001) %MON ad_dynstat_adwvel_max        =   2.2990499412198E+02
(PID.TID 0000.0001) %MON ad_dynstat_adwvel_min        =  -1.3865957411850E+02
(PID.TID 0000.0001) %MON ad_dynstat_adwvel_mean       =  -7.3393664151745E-03
(PID.TID 0000.0001) %MON ad_dynstat_adwvel_sd         =   2.5734599089389E+00
(PID.TID 0000.0001) %MON ad_dynstat_adwvel_del2       =   3.3606627017900E-02
(PID.TID 0000.0001) %MON ad_dynstat_adtheta_max       =   6.7338025270342E+01
(PID.TID 0000.0001) %MON ad_dynstat_adtheta_min       =  -8.7161347590762E+01
(PID.TID 0000.0001) %MON ad_dynstat_adtheta_mean      =   6.1759457206373E-01
(PID.TID 0000.0001) %MON ad_dynstat_adtheta_sd        =   1.9474001768770E+00
(PID.TID 0000.0001) %MON ad_dynstat_adtheta_del2      =   1.4954023500908E-02
(PID.TID 0000.0001) %MON ad_dynstat_adsalt_max        =   3.7505145236069E+02
(PID.TID 0000.0001) %MON ad_dynstat_adsalt_min        =  -3.8414102934858E+02
(PID.TID 0000.0001) %MON ad_dynstat_adsalt_mean       =  -3.9409757013360E-02
(PID.TID 0000.0001) %MON ad_dynstat_adsalt_sd         =   2.7629670840077E+00
(PID.TID 0000.0001) %MON ad_dynstat_adsalt_del2       =   6.0082566878039E-02
(PID.TID 0000.0001) %MON ad_forcing_adqnet_max        =   0.0000000000000E+00
(PID.TID 0000.0001) %MON ad_forcing_adqnet_min        =   0.0000000000000E+00
(PID.TID 0000.0001) %MON ad_forcing_adqnet_mean       =   0.0000000000000E+00
(PID.TID 0000.0001) %MON ad_forcing_adqnet_sd         =   0.0000000000000E+00
(PID.TID 0000.0001) %MON ad_forcing_adqnet_del2       =   0.0000000000000E+00
(PID.TID 0000.0001) %MON ad_forcing_adqsw_max         =   9.2434568725831E-03
(PID.TID 0000.0001) %MON ad_forcing_adqsw_min         =  -5.2858366868329E-03
(PID.TID 0000.0001) %MON ad_forcing_adqsw_mean        =   1.5487878194726E-04
(PID.TID 0000.0001) %MON ad_forcing_adqsw_sd          =   4.3969727312225E-04
(PID.TID 0000.0001) %MON ad_forcing_adqsw_del2        =   1.4418483929196E-05
(PID.TID 0000.0001) %MON ad_forcing_adempmr_max       =   0.0000000000000E+00
(PID.TID 0000.0001) %MON ad_forcing_adempmr_min       =   0.0000000000000E+00
(PID.TID 0000.0001) %MON ad_forcing_adempmr_mean      =   0.0000000000000E+00
(PID.TID 0000.0001) %MON ad_forcing_adempmr_sd        =   0.0000000000000E+00
(PID.TID 0000.0001) %MON ad_forcing_adempmr_del2      =   0.0000000000000E+00
(PID.TID 0000.0001) %MON ad_forcing_adfu_max          =   0.0000000000000E+00
(PID.TID 0000.0001) %MON ad_forcing_adfu_min          =   0.0000000000000E+00
(PID.TID 0000.0001) %MON ad_forcing_adfu_mean         =   0.0000000000000E+00
(PID.TID 0000.0001) %MON ad_forcing_adfu_sd           =   0.0000000000000E+00
(PID.TID 0000.0001) %MON ad_forcing_adfu_del2         =   0.0000000000000E+00
(PID.TID 0000.0001) %MON ad_forcing_adfv_max          =   0.0000000000000E+00
(PID.TID 0000.0001) %MON ad_forcing_adfv_min          =   0.0000000000000E+00
(PID.TID 0000.0001) %MON ad_forcing_adfv_mean         =   0.0000000000000E+00
(PID.TID 0000.0001) %MON ad_forcing_adfv_sd           =   0.0000000000000E+00
(PID.TID 0000.0001) %MON ad_forcing_adfv_del2         =   0.0000000000000E+00
(PID.TID 0000.0001) %MON ad_advcfl_aduvel_max         =   2.5647107806446E+02
(PID.TID 0000.0001) %MON ad_advcfl_advvel_max         =   1.3296963411400E+02
(PID.TID 0000.0001) %MON ad_advcfl_adwvel_max         =   3.3106319153565E+05
(PID.TID 0000.0001) %MON ad_advcfl_adW_hf_max         =   3.9727884304890E+05
(PID.TID 0000.0001) // =======================================================
(PID.TID 0000.0001) // End MONITOR dynamic field statistics
(PID.TID 0000.0001) // =======================================================
 cg2d: Sum(rhs),rhsMax =  -7.86046575051991E-19  3.07186731798318E-03
 cg2d: Sum(rhs),rhsMax =  -9.77706804405898E-12  4.23553911093792E+00
 cg2d: Sum(rhs),rhsMax =  -9.77706804405898E-12  4.23553911093792E+00
(PID.TID 0000.0001) // =======================================================
(PID.TID 0000.0001) // Begin MONITOR dynamic field statistics
(PID.TID 0000.0001) // =======================================================
(PID.TID 0000.0001) %MON ad_time_tsnumber             =                 72011
(PID.TID 0000.0001) %MON ad_time_secondsf             =   6.2217504000000E+09
(PID.TID 0000.0001) %MON ad_dynstat_adeta_max         =   0.0000000000000E+00
(PID.TID 0000.0001) %MON ad_dynstat_adeta_min         =   0.0000000000000E+00
(PID.TID 0000.0001) %MON ad_dynstat_adeta_mean        =   0.0000000000000E+00
(PID.TID 0000.0001) %MON ad_dynstat_adeta_sd          =   0.0000000000000E+00
(PID.TID 0000.0001) %MON ad_dynstat_adeta_del2        =   0.0000000000000E+00
(PID.TID 0000.0001) %MON ad_dynstat_aduvel_max        =   7.2326476550428E+02
(PID.TID 0000.0001) %MON ad_dynstat_aduvel_min        =  -4.3916190075241E+02
(PID.TID 0000.0001) %MON ad_dynstat_aduvel_mean       =   2.6659117132935E-01
(PID.TID 0000.0001) %MON ad_dynstat_aduvel_sd         =   8.2585873613868E+00
(PID.TID 0000.0001) %MON ad_dynstat_aduvel_del2       =   9.1237246426518E-02
(PID.TID 0000.0001) %MON ad_dynstat_advvel_max        =   3.5041156590028E+02
(PID.TID 0000.0001) %MON ad_dynstat_advvel_min        =  -3.6391182940699E+02
(PID.TID 0000.0001) %MON ad_dynstat_advvel_mean       =   4.5093303580299E-01
(PID.TID 0000.0001) %MON ad_dynstat_advvel_sd         =   8.0557419393399E+00
(PID.TID 0000.0001) %MON ad_dynstat_advvel_del2       =   7.5857401389352E-02
(PID.TID 0000.0001) %MON ad_dynstat_adwvel_max        =   2.4951299681268E+02
(PID.TID 0000.0001) %MON ad_dynstat_adwvel_min        =  -1.5152216199578E+02
(PID.TID 0000.0001) %MON ad_dynstat_adwvel_mean       =  -8.2852760656728E-03
(PID.TID 0000.0001) %MON ad_dynstat_adwvel_sd         =   2.8155711672326E+00
(PID.TID 0000.0001) %MON ad_dynstat_adwvel_del2       =   3.6591847582136E-02
(PID.TID 0000.0001) %MON ad_dynstat_adtheta_max       =   6.3477628561485E+01
(PID.TID 0000.0001) %MON ad_dynstat_adtheta_min       =  -8.6259197708189E+01
(PID.TID 0000.0001) %MON ad_dynstat_adtheta_mean      =   6.1868355248760E-01
(PID.TID 0000.0001) %MON ad_dynstat_adtheta_sd        =   1.9552057021372E+00
(PID.TID 0000.0001) %MON ad_dynstat_adtheta_del2      =   1.4712069181560E-02
(PID.TID 0000.0001) %MON ad_dynstat_adsalt_max        =   3.4604572605120E+02
(PID.TID 0000.0001) %MON ad_dynstat_adsalt_min        =  -3.6031087625996E+02
(PID.TID 0000.0001) %MON ad_dynstat_adsalt_mean       =  -4.6758445111064E-02
(PID.TID 0000.0001) %MON ad_dynstat_adsalt_sd         =   3.0505506457412E+00
(PID.TID 0000.0001) %MON ad_dynstat_adsalt_del2       =   5.9716310642913E-02
(PID.TID 0000.0001) %MON ad_forcing_adqnet_max        =   0.0000000000000E+00
(PID.TID 0000.0001) %MON ad_forcing_adqnet_min        =   0.0000000000000E+00
(PID.TID 0000.0001) %MON ad_forcing_adqnet_mean       =   0.0000000000000E+00
(PID.TID 0000.0001) %MON ad_forcing_adqnet_sd         =   0.0000000000000E+00
(PID.TID 0000.0001) %MON ad_forcing_adqnet_del2       =   0.0000000000000E+00
(PID.TID 0000.0001) %MON ad_forcing_adqsw_max         =   1.0757323068584E-02
(PID.TID 0000.0001) %MON ad_forcing_adqsw_min         =  -6.3260810009839E-03
(PID.TID 0000.0001) %MON ad_forcing_adqsw_mean        =   1.7393738231967E-04
(PID.TID 0000.0001) %MON ad_forcing_adqsw_sd          =   4.9628237722320E-04
(PID.TID 0000.0001) %MON ad_forcing_adqsw_del2        =   1.6606553432315E-05
(PID.TID 0000.0001) %MON ad_forcing_adempmr_max       =   0.0000000000000E+00
(PID.TID 0000.0001) %MON ad_forcing_adempmr_min       =   0.0000000000000E+00
(PID.TID 0000.0001) %MON ad_forcing_adempmr_mean      =   0.0000000000000E+00
(PID.TID 0000.0001) %MON ad_forcing_adempmr_sd        =   0.0000000000000E+00
(PID.TID 0000.0001) %MON ad_forcing_adempmr_del2      =   0.0000000000000E+00
(PID.TID 0000.0001) %MON ad_forcing_adfu_max          =   0.0000000000000E+00
(PID.TID 0000.0001) %MON ad_forcing_adfu_min          =   0.0000000000000E+00
(PID.TID 0000.0001) %MON ad_forcing_adfu_mean         =   0.0000000000000E+00
(PID.TID 0000.0001) %MON ad_forcing_adfu_sd           =   0.0000000000000E+00
(PID.TID 0000.0001) %MON ad_forcing_adfu_del2         =   0.0000000000000E+00
(PID.TID 0000.0001) %MON ad_forcing_adfv_max          =   0.0000000000000E+00
(PID.TID 0000.0001) %MON ad_forcing_adfv_min          =   0.0000000000000E+00
(PID.TID 0000.0001) %MON ad_forcing_adfv_mean         =   0.0000000000000E+00
(PID.TID 0000.0001) %MON ad_forcing_adfv_sd           =   0.0000000000000E+00
(PID.TID 0000.0001) %MON ad_forcing_adfv_del2         =   0.0000000000000E+00
(PID.TID 0000.0001) %MON ad_advcfl_aduvel_max         =   3.1069146314645E+02
(PID.TID 0000.0001) %MON ad_advcfl_advvel_max         =   1.5862403957071E+02
(PID.TID 0000.0001) %MON ad_advcfl_adwvel_max         =   3.5929871541025E+05
(PID.TID 0000.0001) %MON ad_advcfl_adW_hf_max         =   4.3116174381983E+05
(PID.TID 0000.0001) // =======================================================
(PID.TID 0000.0001) // End MONITOR dynamic field statistics
(PID.TID 0000.0001) // =======================================================
 cg2d: Sum(rhs),rhsMax =   9.48676900924816E-19  3.70588245094294E-03
 cg2d: Sum(rhs),rhsMax =  -9.60653778747655E-12  4.23840118602305E+00
 cg2d: Sum(rhs),rhsMax =  -9.60653778747655E-12  4.23840118602305E+00
(PID.TID 0000.0001) // =======================================================
(PID.TID 0000.0001) // Begin MONITOR dynamic field statistics
(PID.TID 0000.0001) // =======================================================
(PID.TID 0000.0001) %MON ad_time_tsnumber             =                 72010
(PID.TID 0000.0001) %MON ad_time_secondsf             =   6.2216640000000E+09
(PID.TID 0000.0001) %MON ad_dynstat_adeta_max         =   0.0000000000000E+00
(PID.TID 0000.0001) %MON ad_dynstat_adeta_min         =   0.0000000000000E+00
(PID.TID 0000.0001) %MON ad_dynstat_adeta_mean        =   0.0000000000000E+00
(PID.TID 0000.0001) %MON ad_dynstat_adeta_sd          =   0.0000000000000E+00
(PID.TID 0000.0001) %MON ad_dynstat_adeta_del2        =   0.0000000000000E+00
(PID.TID 0000.0001) %MON ad_dynstat_aduvel_max        =   8.3110236718912E+02
(PID.TID 0000.0001) %MON ad_dynstat_aduvel_min        =  -4.9732582344166E+02
(PID.TID 0000.0001) %MON ad_dynstat_aduvel_mean       =   2.9421658219785E-01
(PID.TID 0000.0001) %MON ad_dynstat_aduvel_sd         =   8.8954324199215E+00
(PID.TID 0000.0001) %MON ad_dynstat_aduvel_del2       =   9.9428349817669E-02
(PID.TID 0000.0001) %MON ad_dynstat_advvel_max        =   3.8274458264519E+02
(PID.TID 0000.0001) %MON ad_dynstat_advvel_min        =  -4.0563470243754E+02
(PID.TID 0000.0001) %MON ad_dynstat_advvel_mean       =   5.2272739603396E-01
(PID.TID 0000.0001) %MON ad_dynstat_advvel_sd         =   8.7038723975946E+00
(PID.TID 0000.0001) %MON ad_dynstat_advvel_del2       =   8.2627148061887E-02
(PID.TID 0000.0001) %MON ad_dynstat_adwvel_max        =   2.6717543966538E+02
(PID.TID 0000.0001) %MON ad_dynstat_adwvel_min        =  -1.6344050475455E+02
(PID.TID 0000.0001) %MON ad_dynstat_adwvel_mean       =  -9.1358353514363E-03
(PID.TID 0000.0001) %MON ad_dynstat_adwvel_sd         =   3.0390008814571E+00
(PID.TID 0000.0001) %MON ad_dynstat_adwvel_del2       =   3.9242272551967E-02
(PID.TID 0000.0001) %MON ad_dynstat_adtheta_max       =   5.7400632212996E+01
(PID.TID 0000.0001) %MON ad_dynstat_adtheta_min       =  -8.5034550844232E+01
(PID.TID 0000.0001) %MON ad_dynstat_adtheta_mean      =   6.1976393626792E-01
(PID.TID 0000.0001) %MON ad_dynstat_adtheta_sd        =   1.9656304926498E+00
(PID.TID 0000.0001) %MON ad_dynstat_adtheta_del2      =   1.4430879164551E-02
(PID.TID 0000.0001) %MON ad_dynstat_adsalt_max        =   3.0378138832394E+02
(PID.TID 0000.0001) %MON ad_dynstat_adsalt_min        =  -3.2349301244708E+02
(PID.TID 0000.0001) %MON ad_dynstat_adsalt_mean       =  -5.4122957028979E-02
(PID.TID 0000.0001) %MON ad_dynstat_adsalt_sd         =   3.3573523092917E+00
(PID.TID 0000.0001) %MON ad_dynstat_adsalt_del2       =   5.9107333562810E-02
(PID.TID 0000.0001) %MON ad_forcing_adqnet_max        =   0.0000000000000E+00
(PID.TID 0000.0001) %MON ad_forcing_adqnet_min        =   0.0000000000000E+00
(PID.TID 0000.0001) %MON ad_forcing_adqnet_mean       =   0.0000000000000E+00
(PID.TID 0000.0001) %MON ad_forcing_adqnet_sd         =   0.0000000000000E+00
(PID.TID 0000.0001) %MON ad_forcing_adqnet_del2       =   0.0000000000000E+00
(PID.TID 0000.0001) %MON ad_forcing_adqsw_max         =   1.2249370141456E-02
(PID.TID 0000.0001) %MON ad_forcing_adqsw_min         =  -7.2801095265720E-03
(PID.TID 0000.0001) %MON ad_forcing_adqsw_mean        =   1.9284562974012E-04
(PID.TID 0000.0001) %MON ad_forcing_adqsw_sd          =   5.5209398432734E-04
(PID.TID 0000.0001) %MON ad_forcing_adqsw_del2        =   1.8751315902075E-05
(PID.TID 0000.0001) %MON ad_forcing_adempmr_max       =   0.0000000000000E+00
(PID.TID 0000.0001) %MON ad_forcing_adempmr_min       =   0.0000000000000E+00
(PID.TID 0000.0001) %MON ad_forcing_adempmr_mean      =   0.0000000000000E+00
(PID.TID 0000.0001) %MON ad_forcing_adempmr_sd        =   0.0000000000000E+00
(PID.TID 0000.0001) %MON ad_forcing_adempmr_del2      =   0.0000000000000E+00
(PID.TID 0000.0001) %MON ad_forcing_adfu_max          =   0.0000000000000E+00
(PID.TID 0000.0001) %MON ad_forcing_adfu_min          =   0.0000000000000E+00
(PID.TID 0000.0001) %MON ad_forcing_adfu_mean         =   0.0000000000000E+00
(PID.TID 0000.0001) %MON ad_forcing_adfu_sd           =   0.0000000000000E+00
(PID.TID 0000.0001) %MON ad_forcing_adfu_del2         =   0.0000000000000E+00
(PID.TID 0000.0001) %MON ad_forcing_adfv_max          =   0.0000000000000E+00
(PID.TID 0000.0001) %MON ad_forcing_adfv_min          =   0.0000000000000E+00
(PID.TID 0000.0001) %MON ad_forcing_adfv_mean         =   0.0000000000000E+00
(PID.TID 0000.0001) %MON ad_forcing_adfv_sd           =   0.0000000000000E+00
(PID.TID 0000.0001) %MON ad_forcing_adfv_del2         =   0.0000000000000E+00
(PID.TID 0000.0001) %MON ad_advcfl_aduvel_max         =   3.5701505562272E+02
(PID.TID 0000.0001) %MON ad_advcfl_advvel_max         =   1.7681045212395E+02
(PID.TID 0000.0001) %MON ad_advcfl_adwvel_max         =   3.8473263311814E+05
(PID.TID 0000.0001) %MON ad_advcfl_adW_hf_max         =   4.6168269889871E+05
(PID.TID 0000.0001) // =======================================================
(PID.TID 0000.0001) // End MONITOR dynamic field statistics
(PID.TID 0000.0001) // =======================================================
 cg2d: Sum(rhs),rhsMax =  -5.69206140554890E-19  4.06831907156483E-03
 cg2d: Sum(rhs),rhsMax =  -9.63495949690696E-12  4.24159888218953E+00
 cg2d: Sum(rhs),rhsMax =  -9.63495949690696E-12  4.24159888218953E+00
(PID.TID 0000.0001) // =======================================================
(PID.TID 0000.0001) // Begin MONITOR dynamic field statistics
(PID.TID 0000.0001) // =======================================================
(PID.TID 0000.0001) %MON ad_time_tsnumber             =                 72009
(PID.TID 0000.0001) %MON ad_time_secondsf             =   6.2215776000000E+09
(PID.TID 0000.0001) %MON ad_dynstat_adeta_max         =   0.0000000000000E+00
(PID.TID 0000.0001) %MON ad_dynstat_adeta_min         =   0.0000000000000E+00
(PID.TID 0000.0001) %MON ad_dynstat_adeta_mean        =   0.0000000000000E+00
(PID.TID 0000.0001) %MON ad_dynstat_adeta_sd          =   0.0000000000000E+00
(PID.TID 0000.0001) %MON ad_dynstat_adeta_del2        =   0.0000000000000E+00
(PID.TID 0000.0001) %MON ad_dynstat_aduvel_max        =   9.1630406330822E+02
(PID.TID 0000.0001) %MON ad_dynstat_aduvel_min        =  -5.3531028792084E+02
(PID.TID 0000.0001) %MON ad_dynstat_aduvel_mean       =   3.2360107764075E-01
(PID.TID 0000.0001) %MON ad_dynstat_aduvel_sd         =   9.4721792685754E+00
(PID.TID 0000.0001) %MON ad_dynstat_aduvel_del2       =   1.0629757621812E-01
(PID.TID 0000.0001) %MON ad_dynstat_advvel_max        =   4.1305618451846E+02
(PID.TID 0000.0001) %MON ad_dynstat_advvel_min        =  -4.2788250149481E+02
(PID.TID 0000.0001) %MON ad_dynstat_advvel_mean       =   5.9563011386353E-01
(PID.TID 0000.0001) %MON ad_dynstat_advvel_sd         =   9.2971541320144E+00
(PID.TID 0000.0001) %MON ad_dynstat_advvel_del2       =   8.8117689437787E-02
(PID.TID 0000.0001) %MON ad_dynstat_adwvel_max        =   2.8287065471695E+02
(PID.TID 0000.0001) %MON ad_dynstat_adwvel_min        =  -1.7437244767980E+02
(PID.TID 0000.0001) %MON ad_dynstat_adwvel_mean       =  -9.9146332497232E-03
(PID.TID 0000.0001) %MON ad_dynstat_adwvel_sd         =   3.2486144873195E+00
(PID.TID 0000.0001) %MON ad_dynstat_adwvel_del2       =   4.1683644777414E-02
(PID.TID 0000.0001) %MON ad_dynstat_adtheta_max       =   5.4220288247347E+01
(PID.TID 0000.0001) %MON ad_dynstat_adtheta_min       =  -8.3784757446941E+01
(PID.TID 0000.0001) %MON ad_dynstat_adtheta_mean      =   6.2081342932948E-01
(PID.TID 0000.0001) %MON ad_dynstat_adtheta_sd        =   1.9782748887862E+00
(PID.TID 0000.0001) %MON ad_dynstat_adtheta_del2      =   1.4141835882243E-02
(PID.TID 0000.0001) %MON ad_dynstat_adsalt_max        =   2.5806402119534E+02
(PID.TID 0000.0001) %MON ad_dynstat_adsalt_min        =  -2.8144238827814E+02
(PID.TID 0000.0001) %MON ad_dynstat_adsalt_mean       =  -6.1300609723196E-02
(PID.TID 0000.0001) %MON ad_dynstat_adsalt_sd         =   3.6693480710826E+00
(PID.TID 0000.0001) %MON ad_dynstat_adsalt_del2       =   5.8263871619707E-02
(PID.TID 0000.0001) %MON ad_forcing_adqnet_max        =   0.0000000000000E+00
(PID.TID 0000.0001) %MON ad_forcing_adqnet_min        =   0.0000000000000E+00
(PID.TID 0000.0001) %MON ad_forcing_adqnet_mean       =   0.0000000000000E+00
(PID.TID 0000.0001) %MON ad_forcing_adqnet_sd         =   0.0000000000000E+00
(PID.TID 0000.0001) %MON ad_forcing_adqnet_del2       =   0.0000000000000E+00
(PID.TID 0000.0001) %MON ad_forcing_adqsw_max         =   1.3712817970868E-02
(PID.TID 0000.0001) %MON ad_forcing_adqsw_min         =  -8.1266499718932E-03
(PID.TID 0000.0001) %MON ad_forcing_adqsw_mean        =   2.1159366901996E-04
(PID.TID 0000.0001) %MON ad_forcing_adqsw_sd          =   6.0695520180137E-04
(PID.TID 0000.0001) %MON ad_forcing_adqsw_del2        =   2.0835767284426E-05
(PID.TID 0000.0001) %MON ad_forcing_adempmr_max       =   0.0000000000000E+00
(PID.TID 0000.0001) %MON ad_forcing_adempmr_min       =   0.0000000000000E+00
(PID.TID 0000.0001) %MON ad_forcing_adempmr_mean      =   0.0000000000000E+00
(PID.TID 0000.0001) %MON ad_forcing_adempmr_sd        =   0.0000000000000E+00
(PID.TID 0000.0001) %MON ad_forcing_adempmr_del2      =   0.0000000000000E+00
(PID.TID 0000.0001) %MON ad_forcing_adfu_max          =   0.0000000000000E+00
(PID.TID 0000.0001) %MON ad_forcing_adfu_min          =   0.0000000000000E+00
(PID.TID 0000.0001) %MON ad_forcing_adfu_mean         =   0.0000000000000E+00
(PID.TID 0000.0001) %MON ad_forcing_adfu_sd           =   0.0000000000000E+00
(PID.TID 0000.0001) %MON ad_forcing_adfu_del2         =   0.0000000000000E+00
(PID.TID 0000.0001) %MON ad_forcing_adfv_max          =   0.0000000000000E+00
(PID.TID 0000.0001) %MON ad_forcing_adfv_min          =   0.0000000000000E+00
(PID.TID 0000.0001) %MON ad_forcing_adfv_mean         =   0.0000000000000E+00
(PID.TID 0000.0001) %MON ad_forcing_adfv_sd           =   0.0000000000000E+00
(PID.TID 0000.0001) %MON ad_forcing_adfv_del2         =   0.0000000000000E+00
(PID.TID 0000.0001) %MON ad_advcfl_aduvel_max         =   3.9361498540272E+02
(PID.TID 0000.0001) %MON ad_advcfl_advvel_max         =   1.8650795430126E+02
(PID.TID 0000.0001) %MON ad_advcfl_adwvel_max         =   4.0733374279240E+05
(PID.TID 0000.0001) %MON ad_advcfl_adW_hf_max         =   4.8880426750564E+05
(PID.TID 0000.0001) // =======================================================
(PID.TID 0000.0001) // End MONITOR dynamic field statistics
(PID.TID 0000.0001) // =======================================================
 cg2d: Sum(rhs),rhsMax =  -3.14418630020796E-18  4.16802294580091E-03
 cg2d: Sum(rhs),rhsMax =  -9.66338120633736E-12  4.24513385397638E+00
 cg2d: Sum(rhs),rhsMax =  -9.66338120633736E-12  4.24513385397638E+00
(PID.TID 0000.0001) // =======================================================
(PID.TID 0000.0001) // Begin MONITOR dynamic field statistics
(PID.TID 0000.0001) // =======================================================
(PID.TID 0000.0001) %MON ad_time_tsnumber             =                 72008
(PID.TID 0000.0001) %MON ad_time_secondsf             =   6.2214912000000E+09
(PID.TID 0000.0001) %MON ad_dynstat_adeta_max         =   0.0000000000000E+00
(PID.TID 0000.0001) %MON ad_dynstat_adeta_min         =   0.0000000000000E+00
(PID.TID 0000.0001) %MON ad_dynstat_adeta_mean        =   0.0000000000000E+00
(PID.TID 0000.0001) %MON ad_dynstat_adeta_sd          =   0.0000000000000E+00
(PID.TID 0000.0001) %MON ad_dynstat_adeta_del2        =   0.0000000000000E+00
(PID.TID 0000.0001) %MON ad_dynstat_aduvel_max        =   9.7745573978573E+02
(PID.TID 0000.0001) %MON ad_dynstat_aduvel_min        =  -5.5259880782829E+02
(PID.TID 0000.0001) %MON ad_dynstat_aduvel_mean       =   3.5308889078292E-01
(PID.TID 0000.0001) %MON ad_dynstat_aduvel_sd         =   9.9939576700336E+00
(PID.TID 0000.0001) %MON ad_dynstat_aduvel_del2       =   1.1181641355537E-01
(PID.TID 0000.0001) %MON ad_dynstat_advvel_max        =   4.4115638270240E+02
(PID.TID 0000.0001) %MON ad_dynstat_advvel_min        =  -4.3063102748739E+02
(PID.TID 0000.0001) %MON ad_dynstat_advvel_mean       =   6.6947063393486E-01
(PID.TID 0000.0001) %MON ad_dynstat_advvel_sd         =   9.8389505984273E+00
(PID.TID 0000.0001) %MON ad_dynstat_advvel_del2       =   9.2339342660946E-02
(PID.TID 0000.0001) %MON ad_dynstat_adwvel_max        =   2.9656647308868E+02
(PID.TID 0000.0001) %MON ad_dynstat_adwvel_min        =  -1.8429282499465E+02
(PID.TID 0000.0001) %MON ad_dynstat_adwvel_mean       =  -1.0636020319833E-02
(PID.TID 0000.0001) %MON ad_dynstat_adwvel_sd         =   3.4424109143903E+00
(PID.TID 0000.0001) %MON ad_dynstat_adwvel_del2       =   4.3872881770604E-02
(PID.TID 0000.0001) %MON ad_dynstat_adtheta_max       =   5.2474736940967E+01
(PID.TID 0000.0001) %MON ad_dynstat_adtheta_min       =  -8.2380886142048E+01
(PID.TID 0000.0001) %MON ad_dynstat_adtheta_mean      =   6.2185661088923E-01
(PID.TID 0000.0001) %MON ad_dynstat_adtheta_sd        =   1.9935150793819E+00
(PID.TID 0000.0001) %MON ad_dynstat_adtheta_del2      =   1.3907791057556E-02
(PID.TID 0000.0001) %MON ad_dynstat_adsalt_max        =   2.5263302452951E+02
(PID.TID 0000.0001) %MON ad_dynstat_adsalt_min        =  -2.6298480260679E+02
(PID.TID 0000.0001) %MON ad_dynstat_adsalt_mean       =  -6.8495835099954E-02
(PID.TID 0000.0001) %MON ad_dynstat_adsalt_sd         =   3.9939016756488E+00
(PID.TID 0000.0001) %MON ad_dynstat_adsalt_del2       =   5.7954097887507E-02
(PID.TID 0000.0001) %MON ad_forcing_adqnet_max        =   0.0000000000000E+00
(PID.TID 0000.0001) %MON ad_forcing_adqnet_min        =   0.0000000000000E+00
(PID.TID 0000.0001) %MON ad_forcing_adqnet_mean       =   0.0000000000000E+00
(PID.TID 0000.0001) %MON ad_forcing_adqnet_sd         =   0.0000000000000E+00
(PID.TID 0000.0001) %MON ad_forcing_adqnet_del2       =   0.0000000000000E+00
(PID.TID 0000.0001) %MON ad_forcing_adqsw_max         =   1.5147003828773E-02
(PID.TID 0000.0001) %MON ad_forcing_adqsw_min         =  -8.8584111558461E-03
(PID.TID 0000.0001) %MON ad_forcing_adqsw_mean        =   2.3019147467466E-04
(PID.TID 0000.0001) %MON ad_forcing_adqsw_sd          =   6.6075871223287E-04
(PID.TID 0000.0001) %MON ad_forcing_adqsw_del2        =   2.2855783934618E-05
(PID.TID 0000.0001) %MON ad_forcing_adempmr_max       =   0.0000000000000E+00
(PID.TID 0000.0001) %MON ad_forcing_adempmr_min       =   0.0000000000000E+00
(PID.TID 0000.0001) %MON ad_forcing_adempmr_mean      =   0.0000000000000E+00
(PID.TID 0000.0001) %MON ad_forcing_adempmr_sd        =   0.0000000000000E+00
(PID.TID 0000.0001) %MON ad_forcing_adempmr_del2      =   0.0000000000000E+00
(PID.TID 0000.0001) %MON ad_forcing_adfu_max          =   0.0000000000000E+00
(PID.TID 0000.0001) %MON ad_forcing_adfu_min          =   0.0000000000000E+00
(PID.TID 0000.0001) %MON ad_forcing_adfu_mean         =   0.0000000000000E+00
(PID.TID 0000.0001) %MON ad_forcing_adfu_sd           =   0.0000000000000E+00
(PID.TID 0000.0001) %MON ad_forcing_adfu_del2         =   0.0000000000000E+00
(PID.TID 0000.0001) %MON ad_forcing_adfv_max          =   0.0000000000000E+00
(PID.TID 0000.0001) %MON ad_forcing_adfv_min          =   0.0000000000000E+00
(PID.TID 0000.0001) %MON ad_forcing_adfv_mean         =   0.0000000000000E+00
(PID.TID 0000.0001) %MON ad_forcing_adfv_sd           =   0.0000000000000E+00
(PID.TID 0000.0001) %MON ad_forcing_adfv_del2         =   0.0000000000000E+00
(PID.TID 0000.0001) %MON ad_advcfl_aduvel_max         =   4.1988379420527E+02
(PID.TID 0000.0001) %MON ad_advcfl_advvel_max         =   1.8770599805960E+02
(PID.TID 0000.0001) %MON ad_advcfl_adwvel_max         =   4.2705572124770E+05
(PID.TID 0000.0001) %MON ad_advcfl_adW_hf_max         =   5.1247086250027E+05
(PID.TID 0000.0001) // =======================================================
(PID.TID 0000.0001) // End MONITOR dynamic field statistics
(PID.TID 0000.0001) // =======================================================
 cg2d: Sum(rhs),rhsMax =   6.77626357803440E-20  3.99252916117131E-03
 cg2d: Sum(rhs),rhsMax =  -9.49285094975494E-12  4.24900187971374E+00
 cg2d: Sum(rhs),rhsMax =  -9.49285094975494E-12  4.24900187971374E+00
(PID.TID 0000.0001) // =======================================================
(PID.TID 0000.0001) // Begin MONITOR dynamic field statistics
(PID.TID 0000.0001) // =======================================================
(PID.TID 0000.0001) %MON ad_time_tsnumber             =                 72007
(PID.TID 0000.0001) %MON ad_time_secondsf             =   6.2214048000000E+09
(PID.TID 0000.0001) %MON ad_dynstat_adeta_max         =   0.0000000000000E+00
(PID.TID 0000.0001) %MON ad_dynstat_adeta_min         =   0.0000000000000E+00
(PID.TID 0000.0001) %MON ad_dynstat_adeta_mean        =   0.0000000000000E+00
(PID.TID 0000.0001) %MON ad_dynstat_adeta_sd          =   0.0000000000000E+00
(PID.TID 0000.0001) %MON ad_dynstat_adeta_del2        =   0.0000000000000E+00
(PID.TID 0000.0001) %MON ad_dynstat_aduvel_max        =   1.0150247647234E+03
(PID.TID 0000.0001) %MON ad_dynstat_aduvel_min        =  -5.5004088134270E+02
(PID.TID 0000.0001) %MON ad_dynstat_aduvel_mean       =   3.8270418766706E-01
(PID.TID 0000.0001) %MON ad_dynstat_aduvel_sd         =   1.0471899148629E+01
(PID.TID 0000.0001) %MON ad_dynstat_aduvel_del2       =   1.1630336585685E-01
(PID.TID 0000.0001) %MON ad_dynstat_advvel_max        =   4.6728329556066E+02
(PID.TID 0000.0001) %MON ad_dynstat_advvel_min        =  -4.1513076869199E+02
(PID.TID 0000.0001) %MON ad_dynstat_advvel_mean       =   7.4356638423189E-01
(PID.TID 0000.0001) %MON ad_dynstat_advvel_sd         =   1.0337100329380E+01
(PID.TID 0000.0001) %MON ad_dynstat_advvel_del2       =   9.5737145124293E-02
(PID.TID 0000.0001) %MON ad_dynstat_adwvel_max        =   3.0828053957930E+02
(PID.TID 0000.0001) %MON ad_dynstat_adwvel_min        =  -1.9318120553549E+02
(PID.TID 0000.0001) %MON ad_dynstat_adwvel_mean       =  -1.1240791632343E-02
(PID.TID 0000.0001) %MON ad_dynstat_adwvel_sd         =   3.6212574941887E+00
(PID.TID 0000.0001) %MON ad_dynstat_adwvel_del2       =   4.5856467723597E-02
(PID.TID 0000.0001) %MON ad_dynstat_adtheta_max       =   5.0708429001041E+01
(PID.TID 0000.0001) %MON ad_dynstat_adtheta_min       =  -8.0954390696092E+01
(PID.TID 0000.0001) %MON ad_dynstat_adtheta_mean      =   6.2287191507633E-01
(PID.TID 0000.0001) %MON ad_dynstat_adtheta_sd        =   2.0104128875813E+00
(PID.TID 0000.0001) %MON ad_dynstat_adtheta_del2      =   1.3743577321724E-02
(PID.TID 0000.0001) %MON ad_dynstat_adsalt_max        =   2.4720109722541E+02
(PID.TID 0000.0001) %MON ad_dynstat_adsalt_min        =  -2.5777291179660E+02
(PID.TID 0000.0001) %MON ad_dynstat_adsalt_mean       =  -7.5529395826054E-02
(PID.TID 0000.0001) %MON ad_dynstat_adsalt_sd         =   4.3137358355739E+00
(PID.TID 0000.0001) %MON ad_dynstat_adsalt_del2       =   5.7900810974640E-02
(PID.TID 0000.0001) %MON ad_forcing_adqnet_max        =   0.0000000000000E+00
(PID.TID 0000.0001) %MON ad_forcing_adqnet_min        =   0.0000000000000E+00
(PID.TID 0000.0001) %MON ad_forcing_adqnet_mean       =   0.0000000000000E+00
(PID.TID 0000.0001) %MON ad_forcing_adqnet_sd         =   0.0000000000000E+00
(PID.TID 0000.0001) %MON ad_forcing_adqnet_del2       =   0.0000000000000E+00
(PID.TID 0000.0001) %MON ad_forcing_adqsw_max         =   1.6548689930228E-02
(PID.TID 0000.0001) %MON ad_forcing_adqsw_min         =  -9.4780633336987E-03
(PID.TID 0000.0001) %MON ad_forcing_adqsw_mean        =   2.4864557858566E-04
(PID.TID 0000.0001) %MON ad_forcing_adqsw_sd          =   7.1346117811197E-04
(PID.TID 0000.0001) %MON ad_forcing_adqsw_del2        =   2.4808238611259E-05
(PID.TID 0000.0001) %MON ad_forcing_adempmr_max       =   0.0000000000000E+00
(PID.TID 0000.0001) %MON ad_forcing_adempmr_min       =   0.0000000000000E+00
(PID.TID 0000.0001) %MON ad_forcing_adempmr_mean      =   0.0000000000000E+00
(PID.TID 0000.0001) %MON ad_forcing_adempmr_sd        =   0.0000000000000E+00
(PID.TID 0000.0001) %MON ad_forcing_adempmr_del2      =   0.0000000000000E+00
(PID.TID 0000.0001) %MON ad_forcing_adfu_max          =   0.0000000000000E+00
(PID.TID 0000.0001) %MON ad_forcing_adfu_min          =   0.0000000000000E+00
(PID.TID 0000.0001) %MON ad_forcing_adfu_mean         =   0.0000000000000E+00
(PID.TID 0000.0001) %MON ad_forcing_adfu_sd           =   0.0000000000000E+00
(PID.TID 0000.0001) %MON ad_forcing_adfu_del2         =   0.0000000000000E+00
(PID.TID 0000.0001) %MON ad_forcing_adfv_max          =   0.0000000000000E+00
(PID.TID 0000.0001) %MON ad_forcing_adfv_min          =   0.0000000000000E+00
(PID.TID 0000.0001) %MON ad_forcing_adfv_mean         =   0.0000000000000E+00
(PID.TID 0000.0001) %MON ad_forcing_adfv_sd           =   0.0000000000000E+00
(PID.TID 0000.0001) %MON ad_forcing_adfv_del2         =   0.0000000000000E+00
(PID.TID 0000.0001) %MON ad_advcfl_aduvel_max         =   4.3602224845272E+02
(PID.TID 0000.0001) %MON ad_advcfl_advvel_max         =   1.8094965362165E+02
(PID.TID 0000.0001) %MON ad_advcfl_adwvel_max         =   4.4392397699419E+05
(PID.TID 0000.0001) %MON ad_advcfl_adW_hf_max         =   5.3271297366700E+05
(PID.TID 0000.0001) // =======================================================
(PID.TID 0000.0001) // End MONITOR dynamic field statistics
(PID.TID 0000.0001) // =======================================================
 cg2d: Sum(rhs),rhsMax =   2.79182059415017E-18  3.56705689649282E-03
 cg2d: Sum(rhs),rhsMax =  -9.83391146291979E-12  4.25319684979159E+00
 cg2d: Sum(rhs),rhsMax =  -9.83391146291979E-12  4.25319684979159E+00
(PID.TID 0000.0001) // =======================================================
(PID.TID 0000.0001) // Begin MONITOR dynamic field statistics
(PID.TID 0000.0001) // =======================================================
(PID.TID 0000.0001) %MON ad_time_tsnumber             =                 72006
(PID.TID 0000.0001) %MON ad_time_secondsf             =   6.2213184000000E+09
(PID.TID 0000.0001) %MON ad_dynstat_adeta_max         =   0.0000000000000E+00
(PID.TID 0000.0001) %MON ad_dynstat_adeta_min         =   0.0000000000000E+00
(PID.TID 0000.0001) %MON ad_dynstat_adeta_mean        =   0.0000000000000E+00
(PID.TID 0000.0001) %MON ad_dynstat_adeta_sd          =   0.0000000000000E+00
(PID.TID 0000.0001) %MON ad_dynstat_adeta_del2        =   0.0000000000000E+00
(PID.TID 0000.0001) %MON ad_dynstat_aduvel_max        =   1.0307499423445E+03
(PID.TID 0000.0001) %MON ad_dynstat_aduvel_min        =  -5.3343939529311E+02
(PID.TID 0000.0001) %MON ad_dynstat_aduvel_mean       =   4.1292581744929E-01
(PID.TID 0000.0001) %MON ad_dynstat_aduvel_sd         =   1.0915068817788E+01
(PID.TID 0000.0001) %MON ad_dynstat_aduvel_del2       =   1.1986324692709E-01
(PID.TID 0000.0001) %MON ad_dynstat_advvel_max        =   4.9111540946881E+02
(PID.TID 0000.0001) %MON ad_dynstat_advvel_min        =  -3.8354317567733E+02
(PID.TID 0000.0001) %MON ad_dynstat_advvel_mean       =   8.1685130526058E-01
(PID.TID 0000.0001) %MON ad_dynstat_advvel_sd         =   1.0797287060532E+01
(PID.TID 0000.0001) %MON ad_dynstat_advvel_del2       =   9.8473646692379E-02
(PID.TID 0000.0001) %MON ad_dynstat_adwvel_max        =   3.1805196908518E+02
(PID.TID 0000.0001) %MON ad_dynstat_adwvel_min        =  -2.0102910661633E+02
(PID.TID 0000.0001) %MON ad_dynstat_adwvel_mean       =  -1.1741298047102E-02
(PID.TID 0000.0001) %MON ad_dynstat_adwvel_sd         =   3.7861459650322E+00
(PID.TID 0000.0001) %MON ad_dynstat_adwvel_del2       =   4.7629676797967E-02
(PID.TID 0000.0001) %MON ad_dynstat_adtheta_max       =   4.8940021851885E+01
(PID.TID 0000.0001) %MON ad_dynstat_adtheta_min       =  -7.9527066156633E+01
(PID.TID 0000.0001) %MON ad_dynstat_adtheta_mean      =   6.2383836623671E-01
(PID.TID 0000.0001) %MON ad_dynstat_adtheta_sd        =   2.0283941297546E+00
(PID.TID 0000.0001) %MON ad_dynstat_adtheta_del2      =   1.3597096662353E-02
(PID.TID 0000.0001) %MON ad_dynstat_adsalt_max        =   2.4183931144256E+02
(PID.TID 0000.0001) %MON ad_dynstat_adsalt_min        =  -2.5232527766305E+02
(PID.TID 0000.0001) %MON ad_dynstat_adsalt_mean       =  -8.2336079299794E-02
(PID.TID 0000.0001) %MON ad_dynstat_adsalt_sd         =   4.6216830937543E+00
(PID.TID 0000.0001) %MON ad_dynstat_adsalt_del2       =   5.7893208697626E-02
(PID.TID 0000.0001) %MON ad_forcing_adqnet_max        =   0.0000000000000E+00
(PID.TID 0000.0001) %MON ad_forcing_adqnet_min        =   0.0000000000000E+00
(PID.TID 0000.0001) %MON ad_forcing_adqnet_mean       =   0.0000000000000E+00
(PID.TID 0000.0001) %MON ad_forcing_adqnet_sd         =   0.0000000000000E+00
(PID.TID 0000.0001) %MON ad_forcing_adqnet_del2       =   0.0000000000000E+00
(PID.TID 0000.0001) %MON ad_forcing_adqsw_max         =   1.7916933582565E-02
(PID.TID 0000.0001) %MON ad_forcing_adqsw_min         =  -9.9945315972334E-03
(PID.TID 0000.0001) %MON ad_forcing_adqsw_mean        =   2.6693398747069E-04
(PID.TID 0000.0001) %MON ad_forcing_adqsw_sd          =   7.6507947207541E-04
(PID.TID 0000.0001) %MON ad_forcing_adqsw_del2        =   2.6694765471112E-05
(PID.TID 0000.0001) %MON ad_forcing_adempmr_max       =   0.0000000000000E+00
(PID.TID 0000.0001) %MON ad_forcing_adempmr_min       =   0.0000000000000E+00
(PID.TID 0000.0001) %MON ad_forcing_adempmr_mean      =   0.0000000000000E+00
(PID.TID 0000.0001) %MON ad_forcing_adempmr_sd        =   0.0000000000000E+00
(PID.TID 0000.0001) %MON ad_forcing_adempmr_del2      =   0.0000000000000E+00
(PID.TID 0000.0001) %MON ad_forcing_adfu_max          =   0.0000000000000E+00
(PID.TID 0000.0001) %MON ad_forcing_adfu_min          =   0.0000000000000E+00
(PID.TID 0000.0001) %MON ad_forcing_adfu_mean         =   0.0000000000000E+00
(PID.TID 0000.0001) %MON ad_forcing_adfu_sd           =   0.0000000000000E+00
(PID.TID 0000.0001) %MON ad_forcing_adfu_del2         =   0.0000000000000E+00
(PID.TID 0000.0001) %MON ad_forcing_adfv_max          =   0.0000000000000E+00
(PID.TID 0000.0001) %MON ad_forcing_adfv_min          =   0.0000000000000E+00
(PID.TID 0000.0001) %MON ad_forcing_adfv_mean         =   0.0000000000000E+00
(PID.TID 0000.0001) %MON ad_forcing_adfv_sd           =   0.0000000000000E+00
(PID.TID 0000.0001) %MON ad_forcing_adfv_del2         =   0.0000000000000E+00
(PID.TID 0000.0001) %MON ad_advcfl_aduvel_max         =   4.4277728295231E+02
(PID.TID 0000.0001) %MON ad_advcfl_advvel_max         =   1.6718106683934E+02
(PID.TID 0000.0001) %MON ad_advcfl_adwvel_max         =   4.5799483548266E+05
(PID.TID 0000.0001) %MON ad_advcfl_adW_hf_max         =   5.4959818861732E+05
(PID.TID 0000.0001) // =======================================================
(PID.TID 0000.0001) // End MONITOR dynamic field statistics
(PID.TID 0000.0001) // =======================================================
 cg2d: Sum(rhs),rhsMax =   1.24683249835833E-18  2.92898106320665E-03
 cg2d: Sum(rhs),rhsMax =  -9.89075488178059E-12  4.25770388645475E+00
 cg2d: Sum(rhs),rhsMax =  -9.89075488178059E-12  4.25770388645475E+00
(PID.TID 0000.0001) // =======================================================
(PID.TID 0000.0001) // Begin MONITOR dynamic field statistics
(PID.TID 0000.0001) // =======================================================
(PID.TID 0000.0001) %MON ad_time_tsnumber             =                 72005
(PID.TID 0000.0001) %MON ad_time_secondsf             =   6.2212320000000E+09
(PID.TID 0000.0001) %MON ad_dynstat_adeta_max         =   0.0000000000000E+00
(PID.TID 0000.0001) %MON ad_dynstat_adeta_min         =   0.0000000000000E+00
(PID.TID 0000.0001) %MON ad_dynstat_adeta_mean        =   0.0000000000000E+00
(PID.TID 0000.0001) %MON ad_dynstat_adeta_sd          =   0.0000000000000E+00
(PID.TID 0000.0001) %MON ad_dynstat_adeta_del2        =   0.0000000000000E+00
(PID.TID 0000.0001) %MON ad_dynstat_aduvel_max        =   1.0271688246390E+03
(PID.TID 0000.0001) %MON ad_dynstat_aduvel_min        =  -5.7129351228500E+02
(PID.TID 0000.0001) %MON ad_dynstat_aduvel_mean       =   4.4470375341441E-01
(PID.TID 0000.0001) %MON ad_dynstat_aduvel_sd         =   1.1332433008444E+01
(PID.TID 0000.0001) %MON ad_dynstat_aduvel_del2       =   1.2277277495172E-01
(PID.TID 0000.0001) %MON ad_dynstat_advvel_max        =   5.1251404107680E+02
(PID.TID 0000.0001) %MON ad_dynstat_advvel_min        =  -3.3853760786274E+02
(PID.TID 0000.0001) %MON ad_dynstat_advvel_mean       =   8.8766234737039E-01
(PID.TID 0000.0001) %MON ad_dynstat_advvel_sd         =   1.1224355761159E+01
(PID.TID 0000.0001) %MON ad_dynstat_advvel_del2       =   1.0086948489807E-01
(PID.TID 0000.0001) %MON ad_dynstat_adwvel_max        =   3.2594672283453E+02
(PID.TID 0000.0001) %MON ad_dynstat_adwvel_min        =  -2.0783578353406E+02
(PID.TID 0000.0001) %MON ad_dynstat_adwvel_mean       =  -1.2133193518511E-02
(PID.TID 0000.0001) %MON ad_dynstat_adwvel_sd         =   3.9360273997579E+00
(PID.TID 0000.0001) %MON ad_dynstat_adwvel_del2       =   4.9208817521453E-02
(PID.TID 0000.0001) %MON ad_dynstat_adtheta_max       =   4.7182318335571E+01
(PID.TID 0000.0001) %MON ad_dynstat_adtheta_min       =  -7.8111711495623E+01
(PID.TID 0000.0001) %MON ad_dynstat_adtheta_mean      =   6.2475431912670E-01
(PID.TID 0000.0001) %MON ad_dynstat_adtheta_sd        =   2.0467724449783E+00
(PID.TID 0000.0001) %MON ad_dynstat_adtheta_del2      =   1.3473110449124E-02
(PID.TID 0000.0001) %MON ad_dynstat_adsalt_max        =   2.3658753106217E+02
(PID.TID 0000.0001) %MON ad_dynstat_adsalt_min        =  -2.4669986912170E+02
(PID.TID 0000.0001) %MON ad_dynstat_adsalt_mean       =  -8.8894456952961E-02
(PID.TID 0000.0001) %MON ad_dynstat_adsalt_sd         =   4.9119111867890E+00
(PID.TID 0000.0001) %MON ad_dynstat_adsalt_del2       =   5.7876612834905E-02
(PID.TID 0000.0001) %MON ad_forcing_adqnet_max        =   0.0000000000000E+00
(PID.TID 0000.0001) %MON ad_forcing_adqnet_min        =   0.0000000000000E+00
(PID.TID 0000.0001) %MON ad_forcing_adqnet_mean       =   0.0000000000000E+00
(PID.TID 0000.0001) %MON ad_forcing_adqnet_sd         =   0.0000000000000E+00
(PID.TID 0000.0001) %MON ad_forcing_adqnet_del2       =   0.0000000000000E+00
(PID.TID 0000.0001) %MON ad_forcing_adqsw_max         =   1.9251334646937E-02
(PID.TID 0000.0001) %MON ad_forcing_adqsw_min         =  -1.0420038162134E-02
(PID.TID 0000.0001) %MON ad_forcing_adqsw_mean        =   2.8504942168390E-04
(PID.TID 0000.0001) %MON ad_forcing_adqsw_sd          =   8.1564791067592E-04
(PID.TID 0000.0001) %MON ad_forcing_adqsw_del2        =   2.8519741794792E-05
(PID.TID 0000.0001) %MON ad_forcing_adempmr_max       =   0.0000000000000E+00
(PID.TID 0000.0001) %MON ad_forcing_adempmr_min       =   0.0000000000000E+00
(PID.TID 0000.0001) %MON ad_forcing_adempmr_mean      =   0.0000000000000E+00
(PID.TID 0000.0001) %MON ad_forcing_adempmr_sd        =   0.0000000000000E+00
(PID.TID 0000.0001) %MON ad_forcing_adempmr_del2      =   0.0000000000000E+00
(PID.TID 0000.0001) %MON ad_forcing_adfu_max          =   0.0000000000000E+00
(PID.TID 0000.0001) %MON ad_forcing_adfu_min          =   0.0000000000000E+00
(PID.TID 0000.0001) %MON ad_forcing_adfu_mean         =   0.0000000000000E+00
(PID.TID 0000.0001) %MON ad_forcing_adfu_sd           =   0.0000000000000E+00
(PID.TID 0000.0001) %MON ad_forcing_adfu_del2         =   0.0000000000000E+00
(PID.TID 0000.0001) %MON ad_forcing_adfv_max          =   0.0000000000000E+00
(PID.TID 0000.0001) %MON ad_forcing_adfv_min          =   0.0000000000000E+00
(PID.TID 0000.0001) %MON ad_forcing_adfv_mean         =   0.0000000000000E+00
(PID.TID 0000.0001) %MON ad_forcing_adfv_sd           =   0.0000000000000E+00
(PID.TID 0000.0001) %MON ad_forcing_adfv_del2         =   0.0000000000000E+00
(PID.TID 0000.0001) %MON ad_advcfl_aduvel_max         =   4.4123894906312E+02
(PID.TID 0000.0001) %MON ad_advcfl_advvel_max         =   1.6410679082854E+02
(PID.TID 0000.0001) %MON ad_advcfl_adwvel_max         =   4.6936328088172E+05
(PID.TID 0000.0001) %MON ad_advcfl_adW_hf_max         =   5.6324048263592E+05
(PID.TID 0000.0001) // =======================================================
(PID.TID 0000.0001) // End MONITOR dynamic field statistics
(PID.TID 0000.0001) // =======================================================
 cg2d: Sum(rhs),rhsMax =   8.40256683676266E-19  2.12877879928196E-03
 cg2d: Sum(rhs),rhsMax =  -9.66338120633736E-12  4.26250700344129E+00
 cg2d: Sum(rhs),rhsMax =  -9.66338120633736E-12  4.26250700344129E+00
(PID.TID 0000.0001) // =======================================================
(PID.TID 0000.0001) // Begin MONITOR dynamic field statistics
(PID.TID 0000.0001) // =======================================================
(PID.TID 0000.0001) %MON ad_time_tsnumber             =                 72004
(PID.TID 0000.0001) %MON ad_time_secondsf             =   6.2211456000000E+09
(PID.TID 0000.0001) %MON ad_dynstat_adeta_max         =   0.0000000000000E+00
(PID.TID 0000.0001) %MON ad_dynstat_adeta_min         =   0.0000000000000E+00
(PID.TID 0000.0001) %MON ad_dynstat_adeta_mean        =   0.0000000000000E+00
(PID.TID 0000.0001) %MON ad_dynstat_adeta_sd          =   0.0000000000000E+00
(PID.TID 0000.0001) %MON ad_dynstat_adeta_del2        =   0.0000000000000E+00
(PID.TID 0000.0001) %MON ad_dynstat_aduvel_max        =   1.0070818686529E+03
(PID.TID 0000.0001) %MON ad_dynstat_aduvel_min        =  -6.0628280794812E+02
(PID.TID 0000.0001) %MON ad_dynstat_aduvel_mean       =   4.7810408359154E-01
(PID.TID 0000.0001) %MON ad_dynstat_aduvel_sd         =   1.1732694952059E+01
(PID.TID 0000.0001) %MON ad_dynstat_aduvel_del2       =   1.2523492057187E-01
(PID.TID 0000.0001) %MON ad_dynstat_advvel_max        =   5.3141372296576E+02
(PID.TID 0000.0001) %MON ad_dynstat_advvel_min        =  -2.8925894015738E+02
(PID.TID 0000.0001) %MON ad_dynstat_advvel_mean       =   9.5497484118514E-01
(PID.TID 0000.0001) %MON ad_dynstat_advvel_sd         =   1.1625846870946E+01
(PID.TID 0000.0001) %MON ad_dynstat_advvel_del2       =   1.0325085210096E-01
(PID.TID 0000.0001) %MON ad_dynstat_adwvel_max        =   3.3204746495688E+02
(PID.TID 0000.0001) %MON ad_dynstat_adwvel_min        =  -2.1360568134203E+02
(PID.TID 0000.0001) %MON ad_dynstat_adwvel_mean       =  -1.2418075253618E-02
(PID.TID 0000.0001) %MON ad_dynstat_adwvel_sd         =   4.0733239800302E+00
(PID.TID 0000.0001) %MON ad_dynstat_adwvel_del2       =   5.0644707132730E-02
(PID.TID 0000.0001) %MON ad_dynstat_adtheta_max       =   4.5442272393660E+01
(PID.TID 0000.0001) %MON ad_dynstat_adtheta_min       =  -7.6733004373769E+01
(PID.TID 0000.0001) %MON ad_dynstat_adtheta_mean      =   6.2561891697049E-01
(PID.TID 0000.0001) %MON ad_dynstat_adtheta_sd        =   2.0651003140611E+00
(PID.TID 0000.0001) %MON ad_dynstat_adtheta_del2      =   1.3366806943478E-02
(PID.TID 0000.0001) %MON ad_dynstat_adsalt_max        =   2.3152488611352E+02
(PID.TID 0000.0001) %MON ad_dynstat_adsalt_min        =  -2.4093171157915E+02
(PID.TID 0000.0001) %MON ad_dynstat_adsalt_mean       =  -9.5153737043641E-02
(PID.TID 0000.0001) %MON ad_dynstat_adsalt_sd         =   5.1814173228155E+00
(PID.TID 0000.0001) %MON ad_dynstat_adsalt_del2       =   5.7792842856257E-02
(PID.TID 0000.0001) %MON ad_forcing_adqnet_max        =   0.0000000000000E+00
(PID.TID 0000.0001) %MON ad_forcing_adqnet_min        =   0.0000000000000E+00
(PID.TID 0000.0001) %MON ad_forcing_adqnet_mean       =   0.0000000000000E+00
(PID.TID 0000.0001) %MON ad_forcing_adqnet_sd         =   0.0000000000000E+00
(PID.TID 0000.0001) %MON ad_forcing_adqnet_del2       =   0.0000000000000E+00
(PID.TID 0000.0001) %MON ad_forcing_adqsw_max         =   2.0551858537316E-02
(PID.TID 0000.0001) %MON ad_forcing_adqsw_min         =  -1.0767978009769E-02
(PID.TID 0000.0001) %MON ad_forcing_adqsw_mean        =   3.0298994432505E-04
(PID.TID 0000.0001) %MON ad_forcing_adqsw_sd          =   8.6521233167859E-04
(PID.TID 0000.0001) %MON ad_forcing_adqsw_del2        =   3.0286407651499E-05
(PID.TID 0000.0001) %MON ad_forcing_adempmr_max       =   0.0000000000000E+00
(PID.TID 0000.0001) %MON ad_forcing_adempmr_min       =   0.0000000000000E+00
(PID.TID 0000.0001) %MON ad_forcing_adempmr_mean      =   0.0000000000000E+00
(PID.TID 0000.0001) %MON ad_forcing_adempmr_sd        =   0.0000000000000E+00
(PID.TID 0000.0001) %MON ad_forcing_adempmr_del2      =   0.0000000000000E+00
(PID.TID 0000.0001) %MON ad_forcing_adfu_max          =   0.0000000000000E+00
(PID.TID 0000.0001) %MON ad_forcing_adfu_min          =   0.0000000000000E+00
(PID.TID 0000.0001) %MON ad_forcing_adfu_mean         =   0.0000000000000E+00
(PID.TID 0000.0001) %MON ad_forcing_adfu_sd           =   0.0000000000000E+00
(PID.TID 0000.0001) %MON ad_forcing_adfu_del2         =   0.0000000000000E+00
(PID.TID 0000.0001) %MON ad_forcing_adfv_max          =   0.0000000000000E+00
(PID.TID 0000.0001) %MON ad_forcing_adfv_min          =   0.0000000000000E+00
(PID.TID 0000.0001) %MON ad_forcing_adfv_mean         =   0.0000000000000E+00
(PID.TID 0000.0001) %MON ad_forcing_adfv_sd           =   0.0000000000000E+00
(PID.TID 0000.0001) %MON ad_forcing_adfv_del2         =   0.0000000000000E+00
(PID.TID 0000.0001) %MON ad_advcfl_aduvel_max         =   4.3261023376671E+02
(PID.TID 0000.0001) %MON ad_advcfl_advvel_max         =   1.7015846140513E+02
(PID.TID 0000.0001) %MON ad_advcfl_adwvel_max         =   4.7814834953791E+05
(PID.TID 0000.0001) %MON ad_advcfl_adW_hf_max         =   5.7378269360660E+05
(PID.TID 0000.0001) // =======================================================
(PID.TID 0000.0001) // End MONITOR dynamic field statistics
(PID.TID 0000.0001) // =======================================================
 cg2d: Sum(rhs),rhsMax =   9.82558218814988E-19  1.21524943137565E-03
 cg2d: Sum(rhs),rhsMax =  -9.49285094975494E-12  4.26762372378297E+00
 cg2d: Sum(rhs),rhsMax =  -9.49285094975494E-12  4.26762372378297E+00
(PID.TID 0000.0001) // =======================================================
(PID.TID 0000.0001) // Begin MONITOR dynamic field statistics
(PID.TID 0000.0001) // =======================================================
(PID.TID 0000.0001) %MON ad_time_tsnumber             =                 72003
(PID.TID 0000.0001) %MON ad_time_secondsf             =   6.2210592000000E+09
(PID.TID 0000.0001) %MON ad_dynstat_adeta_max         =   0.0000000000000E+00
(PID.TID 0000.0001) %MON ad_dynstat_adeta_min         =   0.0000000000000E+00
(PID.TID 0000.0001) %MON ad_dynstat_adeta_mean        =   0.0000000000000E+00
(PID.TID 0000.0001) %MON ad_dynstat_adeta_sd          =   0.0000000000000E+00
(PID.TID 0000.0001) %MON ad_dynstat_adeta_del2        =   0.0000000000000E+00
(PID.TID 0000.0001) %MON ad_dynstat_aduvel_max        =   9.7338058702022E+02
(PID.TID 0000.0001) %MON ad_dynstat_aduvel_min        =  -6.3969699403845E+02
(PID.TID 0000.0001) %MON ad_dynstat_aduvel_mean       =   5.1284016228302E-01
(PID.TID 0000.0001) %MON ad_dynstat_aduvel_sd         =   1.2122810499873E+01
(PID.TID 0000.0001) %MON ad_dynstat_aduvel_del2       =   1.2748067736342E-01
(PID.TID 0000.0001) %MON ad_dynstat_advvel_max        =   5.4803044581310E+02
(PID.TID 0000.0001) %MON ad_dynstat_advvel_min        =  -3.2184648548605E+02
(PID.TID 0000.0001) %MON ad_dynstat_advvel_mean       =   1.0178322080452E+00
(PID.TID 0000.0001) %MON ad_dynstat_advvel_sd         =   1.2006197815567E+01
(PID.TID 0000.0001) %MON ad_dynstat_advvel_del2       =   1.0577540720539E-01
(PID.TID 0000.0001) %MON ad_dynstat_adwvel_max        =   3.3644528894189E+02
(PID.TID 0000.0001) %MON ad_dynstat_adwvel_min        =  -2.2073284284355E+02
(PID.TID 0000.0001) %MON ad_dynstat_adwvel_mean       =  -1.2598762751855E-02
(PID.TID 0000.0001) %MON ad_dynstat_adwvel_sd         =   4.1982546337022E+00
(PID.TID 0000.0001) %MON ad_dynstat_adwvel_del2       =   5.1911708050449E-02
(PID.TID 0000.0001) %MON ad_dynstat_adtheta_max       =   4.3718164925550E+01
(PID.TID 0000.0001) %MON ad_dynstat_adtheta_min       =  -7.5389079859208E+01
(PID.TID 0000.0001) %MON ad_dynstat_adtheta_mean      =   6.2641840844611E-01
(PID.TID 0000.0001) %MON ad_dynstat_adtheta_sd        =   2.0834292818822E+00
(PID.TID 0000.0001) %MON ad_dynstat_adtheta_del2      =   1.3297353095599E-02
(PID.TID 0000.0001) %MON ad_dynstat_adsalt_max        =   2.2664498700767E+02
(PID.TID 0000.0001) %MON ad_dynstat_adsalt_min        =  -2.3502290441244E+02
(PID.TID 0000.0001) %MON ad_dynstat_adsalt_mean       =  -1.0105452822707E-01
(PID.TID 0000.0001) %MON ad_dynstat_adsalt_sd         =   5.4308628585131E+00
(PID.TID 0000.0001) %MON ad_dynstat_adsalt_del2       =   5.7686703672918E-02
(PID.TID 0000.0001) %MON ad_forcing_adqnet_max        =   0.0000000000000E+00
(PID.TID 0000.0001) %MON ad_forcing_adqnet_min        =   0.0000000000000E+00
(PID.TID 0000.0001) %MON ad_forcing_adqnet_mean       =   0.0000000000000E+00
(PID.TID 0000.0001) %MON ad_forcing_adqnet_sd         =   0.0000000000000E+00
(PID.TID 0000.0001) %MON ad_forcing_adqnet_del2       =   0.0000000000000E+00
(PID.TID 0000.0001) %MON ad_forcing_adqsw_max         =   2.1818850577383E-02
(PID.TID 0000.0001) %MON ad_forcing_adqsw_min         =  -1.1051322742788E-02
(PID.TID 0000.0001) %MON ad_forcing_adqsw_mean        =   3.2075869256404E-04
(PID.TID 0000.0001) %MON ad_forcing_adqsw_sd          =   9.1381444449878E-04
(PID.TID 0000.0001) %MON ad_forcing_adqsw_del2        =   3.1998636263056E-05
(PID.TID 0000.0001) %MON ad_forcing_adempmr_max       =   0.0000000000000E+00
(PID.TID 0000.0001) %MON ad_forcing_adempmr_min       =   0.0000000000000E+00
(PID.TID 0000.0001) %MON ad_forcing_adempmr_mean      =   0.0000000000000E+00
(PID.TID 0000.0001) %MON ad_forcing_adempmr_sd        =   0.0000000000000E+00
(PID.TID 0000.0001) %MON ad_forcing_adempmr_del2      =   0.0000000000000E+00
(PID.TID 0000.0001) %MON ad_forcing_adfu_max          =   0.0000000000000E+00
(PID.TID 0000.0001) %MON ad_forcing_adfu_min          =   0.0000000000000E+00
(PID.TID 0000.0001) %MON ad_forcing_adfu_mean         =   0.0000000000000E+00
(PID.TID 0000.0001) %MON ad_forcing_adfu_sd           =   0.0000000000000E+00
(PID.TID 0000.0001) %MON ad_forcing_adfu_del2         =   0.0000000000000E+00
(PID.TID 0000.0001) %MON ad_forcing_adfv_max          =   0.0000000000000E+00
(PID.TID 0000.0001) %MON ad_forcing_adfv_min          =   0.0000000000000E+00
(PID.TID 0000.0001) %MON ad_forcing_adfv_mean         =   0.0000000000000E+00
(PID.TID 0000.0001) %MON ad_forcing_adfv_sd           =   0.0000000000000E+00
(PID.TID 0000.0001) %MON ad_forcing_adfv_del2         =   0.0000000000000E+00
(PID.TID 0000.0001) %MON ad_advcfl_aduvel_max         =   4.1813323861947E+02
(PID.TID 0000.0001) %MON ad_advcfl_advvel_max         =   1.7547912941031E+02
(PID.TID 0000.0001) %MON ad_advcfl_adwvel_max         =   4.8448121607632E+05
(PID.TID 0000.0001) %MON ad_advcfl_adW_hf_max         =   5.8138223202714E+05
(PID.TID 0000.0001) // =======================================================
(PID.TID 0000.0001) // End MONITOR dynamic field statistics
(PID.TID 0000.0001) // =======================================================
 cg2d: Sum(rhs),rhsMax =  -8.13151629364128E-19  1.00963454695553E-03
 cg2d: Sum(rhs),rhsMax =  -9.69180291576777E-12  4.27316012227202E+00
 cg2d: Sum(rhs),rhsMax =  -9.69180291576777E-12  4.27316012227202E+00
(PID.TID 0000.0001) // =======================================================
(PID.TID 0000.0001) // Begin MONITOR dynamic field statistics
(PID.TID 0000.0001) // =======================================================
(PID.TID 0000.0001) %MON ad_time_tsnumber             =                 72002
(PID.TID 0000.0001) %MON ad_time_secondsf             =   6.2209728000000E+09
(PID.TID 0000.0001) %MON ad_dynstat_adeta_max         =   0.0000000000000E+00
(PID.TID 0000.0001) %MON ad_dynstat_adeta_min         =   0.0000000000000E+00
(PID.TID 0000.0001) %MON ad_dynstat_adeta_mean        =   0.0000000000000E+00
(PID.TID 0000.0001) %MON ad_dynstat_adeta_sd          =   0.0000000000000E+00
(PID.TID 0000.0001) %MON ad_dynstat_adeta_del2        =   0.0000000000000E+00
(PID.TID 0000.0001) %MON ad_dynstat_aduvel_max        =   9.2886351073638E+02
(PID.TID 0000.0001) %MON ad_dynstat_aduvel_min        =  -6.6942443715729E+02
(PID.TID 0000.0001) %MON ad_dynstat_aduvel_mean       =   5.4829204171319E-01
(PID.TID 0000.0001) %MON ad_dynstat_aduvel_sd         =   1.2508181523947E+01
(PID.TID 0000.0001) %MON ad_dynstat_aduvel_del2       =   1.2965873142829E-01
(PID.TID 0000.0001) %MON ad_dynstat_advvel_max        =   5.6243689736729E+02
(PID.TID 0000.0001) %MON ad_dynstat_advvel_min        =  -3.5452491490659E+02
(PID.TID 0000.0001) %MON ad_dynstat_advvel_mean       =   1.0757159036522E+00
(PID.TID 0000.0001) %MON ad_dynstat_advvel_sd         =   1.2367657506713E+01
(PID.TID 0000.0001) %MON ad_dynstat_advvel_del2       =   1.0851807568719E-01
(PID.TID 0000.0001) %MON ad_dynstat_adwvel_max        =   3.3924704168441E+02
(PID.TID 0000.0001) %MON ad_dynstat_adwvel_min        =  -2.3324135423412E+02
(PID.TID 0000.0001) %MON ad_dynstat_adwvel_mean       =  -1.2617126625874E-02
(PID.TID 0000.0001) %MON ad_dynstat_adwvel_sd         =   4.3122828773180E+00
(PID.TID 0000.0001) %MON ad_dynstat_adwvel_del2       =   5.3089735698916E-02
(PID.TID 0000.0001) %MON ad_dynstat_adtheta_max       =   4.2019073786694E+01
(PID.TID 0000.0001) %MON ad_dynstat_adtheta_min       =  -7.4096692804415E+01
(PID.TID 0000.0001) %MON ad_dynstat_adtheta_mean      =   6.2713769959932E-01
(PID.TID 0000.0001) %MON ad_dynstat_adtheta_sd        =   2.1003924127037E+00
(PID.TID 0000.0001) %MON ad_dynstat_adtheta_del2      =   1.3226484410307E-02
(PID.TID 0000.0001) %MON ad_dynstat_adsalt_max        =   2.2200241102227E+02
(PID.TID 0000.0001) %MON ad_dynstat_adsalt_min        =  -2.2922547962766E+02
(PID.TID 0000.0001) %MON ad_dynstat_adsalt_mean       =  -1.0648076635736E-01
(PID.TID 0000.0001) %MON ad_dynstat_adsalt_sd         =   5.6545025258678E+00
(PID.TID 0000.0001) %MON ad_dynstat_adsalt_del2       =   5.7464636936707E-02
(PID.TID 0000.0001) %MON ad_forcing_adqnet_max        =   0.0000000000000E+00
(PID.TID 0000.0001) %MON ad_forcing_adqnet_min        =   0.0000000000000E+00
(PID.TID 0000.0001) %MON ad_forcing_adqnet_mean       =   0.0000000000000E+00
(PID.TID 0000.0001) %MON ad_forcing_adqnet_sd         =   0.0000000000000E+00
(PID.TID 0000.0001) %MON ad_forcing_adqnet_del2       =   0.0000000000000E+00
(PID.TID 0000.0001) %MON ad_forcing_adqsw_max         =   2.3052667370308E-02
(PID.TID 0000.0001) %MON ad_forcing_adqsw_min         =  -1.1282956620980E-02
(PID.TID 0000.0001) %MON ad_forcing_adqsw_mean        =   3.3837114539212E-04
(PID.TID 0000.0001) %MON ad_forcing_adqsw_sd          =   9.6149970534327E-04
(PID.TID 0000.0001) %MON ad_forcing_adqsw_del2        =   3.3660033162569E-05
(PID.TID 0000.0001) %MON ad_forcing_adempmr_max       =   0.0000000000000E+00
(PID.TID 0000.0001) %MON ad_forcing_adempmr_min       =   0.0000000000000E+00
(PID.TID 0000.0001) %MON ad_forcing_adempmr_mean      =   0.0000000000000E+00
(PID.TID 0000.0001) %MON ad_forcing_adempmr_sd        =   0.0000000000000E+00
(PID.TID 0000.0001) %MON ad_forcing_adempmr_del2      =   0.0000000000000E+00
(PID.TID 0000.0001) %MON ad_forcing_adfu_max          =   0.0000000000000E+00
(PID.TID 0000.0001) %MON ad_forcing_adfu_min          =   0.0000000000000E+00
(PID.TID 0000.0001) %MON ad_forcing_adfu_mean         =   0.0000000000000E+00
(PID.TID 0000.0001) %MON ad_forcing_adfu_sd           =   0.0000000000000E+00
(PID.TID 0000.0001) %MON ad_forcing_adfu_del2         =   0.0000000000000E+00
(PID.TID 0000.0001) %MON ad_forcing_adfv_max          =   0.0000000000000E+00
(PID.TID 0000.0001) %MON ad_forcing_adfv_min          =   0.0000000000000E+00
(PID.TID 0000.0001) %MON ad_forcing_adfv_mean         =   0.0000000000000E+00
(PID.TID 0000.0001) %MON ad_forcing_adfv_sd           =   0.0000000000000E+00
(PID.TID 0000.0001) %MON ad_forcing_adfv_del2         =   0.0000000000000E+00
(PID.TID 0000.0001) %MON ad_advcfl_aduvel_max         =   3.9901012323311E+02
(PID.TID 0000.0001) %MON ad_advcfl_advvel_max         =   1.8009206943205E+02
(PID.TID 0000.0001) %MON ad_advcfl_adwvel_max         =   4.8851574002555E+05
(PID.TID 0000.0001) %MON ad_advcfl_adW_hf_max         =   5.8622373924102E+05
(PID.TID 0000.0001) // =======================================================
(PID.TID 0000.0001) // End MONITOR dynamic field statistics
(PID.TID 0000.0001) // =======================================================
 cg2d: Sum(rhs),rhsMax =   5.42101086242752E-19  9.91124671936430E-04
 EXTERNAL_FIELDS_LOAD, it=     72000 : Reading new data, i0,i1=   12    1 (prev=   12    2 )
(PID.TID 0000.0001) SOLVE_FOR_PRESSURE: putPmEinXvector =    F
 cg2d: Sum(rhs),rhsMax =  -9.66338120633736E-12  4.27829651258201E+00
 EXTERNAL_FIELDS_LOAD, it=     72000 : Reading new data, i0,i1=   12    1 (prev=   12    1 )
(PID.TID 0000.0001) SOLVE_FOR_PRESSURE: putPmEinXvector =    F
 cg2d: Sum(rhs),rhsMax =  -9.66338120633736E-12  4.27829651258201E+00
(PID.TID 0000.0001) // =======================================================
(PID.TID 0000.0001) // Begin MONITOR dynamic field statistics
(PID.TID 0000.0001) // =======================================================
(PID.TID 0000.0001) %MON ad_time_tsnumber             =                 72001
(PID.TID 0000.0001) %MON ad_time_secondsf             =   6.2208864000000E+09
(PID.TID 0000.0001) %MON ad_dynstat_adeta_max         =   0.0000000000000E+00
(PID.TID 0000.0001) %MON ad_dynstat_adeta_min         =   0.0000000000000E+00
(PID.TID 0000.0001) %MON ad_dynstat_adeta_mean        =   0.0000000000000E+00
(PID.TID 0000.0001) %MON ad_dynstat_adeta_sd          =   0.0000000000000E+00
(PID.TID 0000.0001) %MON ad_dynstat_adeta_del2        =   0.0000000000000E+00
(PID.TID 0000.0001) %MON ad_dynstat_aduvel_max        =   8.7603089735856E+02
(PID.TID 0000.0001) %MON ad_dynstat_aduvel_min        =  -6.9490067000683E+02
(PID.TID 0000.0001) %MON ad_dynstat_aduvel_mean       =   5.8340842619582E-01
(PID.TID 0000.0001) %MON ad_dynstat_aduvel_sd         =   1.2890102946897E+01
(PID.TID 0000.0001) %MON ad_dynstat_aduvel_del2       =   1.3180776069485E-01
(PID.TID 0000.0001) %MON ad_dynstat_advvel_max        =   5.7477687168032E+02
(PID.TID 0000.0001) %MON ad_dynstat_advvel_min        =  -3.8697777472802E+02
(PID.TID 0000.0001) %MON ad_dynstat_advvel_mean       =   1.1280264046696E+00
(PID.TID 0000.0001) %MON ad_dynstat_advvel_sd         =   1.2712898185940E+01
(PID.TID 0000.0001) %MON ad_dynstat_advvel_del2       =   1.1147473370626E-01
(PID.TID 0000.0001) %MON ad_dynstat_adwvel_max        =   3.4062315431262E+02
(PID.TID 0000.0001) %MON ad_dynstat_adwvel_min        =  -2.4424212456865E+02
(PID.TID 0000.0001) %MON ad_dynstat_adwvel_mean       =  -1.2526809640766E-02
(PID.TID 0000.0001) %MON ad_dynstat_adwvel_sd         =   4.4160413381204E+00
(PID.TID 0000.0001) %MON ad_dynstat_adwvel_del2       =   5.4175804050133E-02
(PID.TID 0000.0001) %MON ad_dynstat_adtheta_max       =   4.0342457460337E+01
(PID.TID 0000.0001) %MON ad_dynstat_adtheta_min       =  -7.2849563675627E+01
(PID.TID 0000.0001) %MON ad_dynstat_adtheta_mean      =   6.2777912143267E-01
(PID.TID 0000.0001) %MON ad_dynstat_adtheta_sd        =   2.1164108289668E+00
(PID.TID 0000.0001) %MON ad_dynstat_adtheta_del2      =   1.3181128451977E-02
(PID.TID 0000.0001) %MON ad_dynstat_adsalt_max        =   2.1757720471273E+02
(PID.TID 0000.0001) %MON ad_dynstat_adsalt_min        =  -2.5207370938720E+02
(PID.TID 0000.0001) %MON ad_dynstat_adsalt_mean       =  -1.1143431883499E-01
(PID.TID 0000.0001) %MON ad_dynstat_adsalt_sd         =   5.8563854238693E+00
(PID.TID 0000.0001) %MON ad_dynstat_adsalt_del2       =   5.7266337448384E-02
(PID.TID 0000.0001) %MON ad_forcing_adqnet_max        =   0.0000000000000E+00
(PID.TID 0000.0001) %MON ad_forcing_adqnet_min        =   0.0000000000000E+00
(PID.TID 0000.0001) %MON ad_forcing_adqnet_mean       =   0.0000000000000E+00
(PID.TID 0000.0001) %MON ad_forcing_adqnet_sd         =   0.0000000000000E+00
(PID.TID 0000.0001) %MON ad_forcing_adqnet_del2       =   0.0000000000000E+00
(PID.TID 0000.0001) %MON ad_forcing_adqsw_max         =   2.4253973063395E-02
(PID.TID 0000.0001) %MON ad_forcing_adqsw_min         =  -1.1473600625588E-02
(PID.TID 0000.0001) %MON ad_forcing_adqsw_mean        =   3.5580412767154E-04
(PID.TID 0000.0001) %MON ad_forcing_adqsw_sd          =   1.0083140358868E-03
(PID.TID 0000.0001) %MON ad_forcing_adqsw_del2        =   3.5273564167638E-05
(PID.TID 0000.0001) %MON ad_forcing_adempmr_max       =   0.0000000000000E+00
(PID.TID 0000.0001) %MON ad_forcing_adempmr_min       =   0.0000000000000E+00
(PID.TID 0000.0001) %MON ad_forcing_adempmr_mean      =   0.0000000000000E+00
(PID.TID 0000.0001) %MON ad_forcing_adempmr_sd        =   0.0000000000000E+00
(PID.TID 0000.0001) %MON ad_forcing_adempmr_del2      =   0.0000000000000E+00
(PID.TID 0000.0001) %MON ad_forcing_adfu_max          =   0.0000000000000E+00
(PID.TID 0000.0001) %MON ad_forcing_adfu_min          =   0.0000000000000E+00
(PID.TID 0000.0001) %MON ad_forcing_adfu_mean         =   0.0000000000000E+00
(PID.TID 0000.0001) %MON ad_forcing_adfu_sd           =   0.0000000000000E+00
(PID.TID 0000.0001) %MON ad_forcing_adfu_del2         =   0.0000000000000E+00
(PID.TID 0000.0001) %MON ad_forcing_adfv_max          =   0.0000000000000E+00
(PID.TID 0000.0001) %MON ad_forcing_adfv_min          =   0.0000000000000E+00
(PID.TID 0000.0001) %MON ad_forcing_adfv_mean         =   0.0000000000000E+00
(PID.TID 0000.0001) %MON ad_forcing_adfv_sd           =   0.0000000000000E+00
(PID.TID 0000.0001) %MON ad_forcing_adfv_del2         =   0.0000000000000E+00
(PID.TID 0000.0001) %MON ad_advcfl_aduvel_max         =   3.7631491846842E+02
(PID.TID 0000.0001) %MON ad_advcfl_advvel_max         =   1.8404332426824E+02
(PID.TID 0000.0001) %MON ad_advcfl_adwvel_max         =   4.9049734221018E+05
(PID.TID 0000.0001) %MON ad_advcfl_adW_hf_max         =   5.8860164845815E+05
(PID.TID 0000.0001) // =======================================================
(PID.TID 0000.0001) // End MONITOR dynamic field statistics
(PID.TID 0000.0001) // =======================================================
 cg2d: Sum(rhs),rhsMax =   3.79470760369927E-19  1.67784820600792E-03
(PID.TID 0000.0001)  nRecords = 123 ; filePrec =  64 ; fileIter =     72000
(PID.TID 0000.0001)     nDims =   2 , dims:
(PID.TID 0000.0001)    1: 192   1 192
(PID.TID 0000.0001)    2:  32   1  32
(PID.TID 0000.0001)     nFlds =  11 , nFl3D =   8 , fields:
(PID.TID 0000.0001)  >Uvel    < >GuNm1   < >Vvel    < >GvNm1   < >Theta   < >GtNm1   < >Salt    < >GsNm1   < >EtaN    < >dEtaHdt < >EtaH    <
(PID.TID 0000.0001)   nTimRec =   0 , timeList:
(PID.TID 0000.0001) READ_MFLDS_3D_RL: read field: "Uvel    ", #   1 in fldList, rec=   1
(PID.TID 0000.0001) READ_MFLDS_3D_RL: read field: "Vvel    ", #   3 in fldList, rec=   3
(PID.TID 0000.0001) READ_MFLDS_3D_RL: read field: "Theta   ", #   5 in fldList, rec=   5
(PID.TID 0000.0001) READ_MFLDS_3D_RL: read field: "Salt    ", #   7 in fldList, rec=   7
(PID.TID 0000.0001) READ_MFLDS_3D_RL: read field: "GuNm1   ", #   2 in fldList, rec=   2
(PID.TID 0000.0001) READ_MFLDS_3D_RL: field: "GuNm2   " missing in file: pickup.0000072000
(PID.TID 0000.0001) READ_MFLDS_3D_RL: read field: "GvNm1   ", #   4 in fldList, rec=   4
(PID.TID 0000.0001) READ_MFLDS_3D_RL: field: "GvNm2   " missing in file: pickup.0000072000
(PID.TID 0000.0001) READ_MFLDS_3D_RL: read field: "EtaN    ", #   9 in fldList, rec= 121
(PID.TID 0000.0001) READ_MFLDS_3D_RL: read field: "dEtaHdt ", #  10 in fldList, rec= 122
(PID.TID 0000.0001) READ_MFLDS_3D_RL: read field: "EtaH    ", #  11 in fldList, rec= 123
(PID.TID 0000.0001) // =======================================================
(PID.TID 0000.0001) // Begin MONITOR dynamic field statistics
(PID.TID 0000.0001) // =======================================================
(PID.TID 0000.0001) %MON ad_time_tsnumber             =                 72000
(PID.TID 0000.0001) %MON ad_time_secondsf             =   6.2208000000000E+09
(PID.TID 0000.0001) %MON ad_dynstat_adeta_max         =   0.0000000000000E+00
(PID.TID 0000.0001) %MON ad_dynstat_adeta_min         =   0.0000000000000E+00
(PID.TID 0000.0001) %MON ad_dynstat_adeta_mean        =   0.0000000000000E+00
(PID.TID 0000.0001) %MON ad_dynstat_adeta_sd          =   0.0000000000000E+00
(PID.TID 0000.0001) %MON ad_dynstat_adeta_del2        =   0.0000000000000E+00
(PID.TID 0000.0001) %MON ad_dynstat_aduvel_max        =   8.3431968508010E+02
(PID.TID 0000.0001) %MON ad_dynstat_aduvel_min        =  -7.2994085251943E+02
(PID.TID 0000.0001) %MON ad_dynstat_aduvel_mean       =   6.2270342524934E-01
(PID.TID 0000.0001) %MON ad_dynstat_aduvel_sd         =   1.3287199187928E+01
(PID.TID 0000.0001) %MON ad_dynstat_aduvel_del2       =   1.3511956695198E-01
(PID.TID 0000.0001) %MON ad_dynstat_advvel_max        =   6.0277702743489E+02
(PID.TID 0000.0001) %MON ad_dynstat_advvel_min        =  -4.0857824194813E+02
(PID.TID 0000.0001) %MON ad_dynstat_advvel_mean       =   1.1519533237787E+00
(PID.TID 0000.0001) %MON ad_dynstat_advvel_sd         =   1.3061469454746E+01
(PID.TID 0000.0001) %MON ad_dynstat_advvel_del2       =   1.1548861506148E-01
(PID.TID 0000.0001) %MON ad_dynstat_adwvel_max        =   1.9861520794433E+02
(PID.TID 0000.0001) %MON ad_dynstat_adwvel_min        =  -1.4824858259344E+02
(PID.TID 0000.0001) %MON ad_dynstat_adwvel_mean       =  -7.1615099052580E-03
(PID.TID 0000.0001) %MON ad_dynstat_adwvel_sd         =   2.6531170096444E+00
(PID.TID 0000.0001) %MON ad_dynstat_adwvel_del2       =   3.2463619353757E-02
(PID.TID 0000.0001) %MON ad_dynstat_adtheta_max       =   3.8686890802607E+01
(PID.TID 0000.0001) %MON ad_dynstat_adtheta_min       =  -7.1644036028360E+01
(PID.TID 0000.0001) %MON ad_dynstat_adtheta_mean      =   6.2829453022496E-01
(PID.TID 0000.0001) %MON ad_dynstat_adtheta_sd        =   2.1302246337850E+00
(PID.TID 0000.0001) %MON ad_dynstat_adtheta_del2      =   1.3141126902505E-02
(PID.TID 0000.0001) %MON ad_dynstat_adsalt_max        =   2.1335817595706E+02
(PID.TID 0000.0001) %MON ad_dynstat_adsalt_min        =  -2.7560630541663E+02
(PID.TID 0000.0001) %MON ad_dynstat_adsalt_mean       =  -1.1566399949779E-01
(PID.TID 0000.0001) %MON ad_dynstat_adsalt_sd         =   6.0314486963407E+00
(PID.TID 0000.0001) %MON ad_dynstat_adsalt_del2       =   5.7005534001325E-02
(PID.TID 0000.0001) %MON ad_forcing_adqnet_max        =   0.0000000000000E+00
(PID.TID 0000.0001) %MON ad_forcing_adqnet_min        =   0.0000000000000E+00
(PID.TID 0000.0001) %MON ad_forcing_adqnet_mean       =   0.0000000000000E+00
(PID.TID 0000.0001) %MON ad_forcing_adqnet_sd         =   0.0000000000000E+00
(PID.TID 0000.0001) %MON ad_forcing_adqnet_del2       =   0.0000000000000E+00
(PID.TID 0000.0001) %MON ad_forcing_adqsw_max         =   2.5423376466316E-02
(PID.TID 0000.0001) %MON ad_forcing_adqsw_min         =  -1.1631231546169E-02
(PID.TID 0000.0001) %MON ad_forcing_adqsw_mean        =   3.7300180171950E-04
(PID.TID 0000.0001) %MON ad_forcing_adqsw_sd          =   1.0542852702770E-03
(PID.TID 0000.0001) %MON ad_forcing_adqsw_del2        =   3.6840148327118E-05
(PID.TID 0000.0001) %MON ad_forcing_adempmr_max       =   0.0000000000000E+00
(PID.TID 0000.0001) %MON ad_forcing_adempmr_min       =   0.0000000000000E+00
(PID.TID 0000.0001) %MON ad_forcing_adempmr_mean      =   0.0000000000000E+00
(PID.TID 0000.0001) %MON ad_forcing_adempmr_sd        =   0.0000000000000E+00
(PID.TID 0000.0001) %MON ad_forcing_adempmr_del2      =   0.0000000000000E+00
(PID.TID 0000.0001) %MON ad_forcing_adfu_max          =   0.0000000000000E+00
(PID.TID 0000.0001) %MON ad_forcing_adfu_min          =   0.0000000000000E+00
(PID.TID 0000.0001) %MON ad_forcing_adfu_mean         =   0.0000000000000E+00
(PID.TID 0000.0001) %MON ad_forcing_adfu_sd           =   0.0000000000000E+00
(PID.TID 0000.0001) %MON ad_forcing_adfu_del2         =   0.0000000000000E+00
(PID.TID 0000.0001) %MON ad_forcing_adfv_max          =   0.0000000000000E+00
(PID.TID 0000.0001) %MON ad_forcing_adfv_min          =   0.0000000000000E+00
(PID.TID 0000.0001) %MON ad_forcing_adfv_mean         =   0.0000000000000E+00
(PID.TID 0000.0001) %MON ad_forcing_adfv_sd           =   0.0000000000000E+00
(PID.TID 0000.0001) %MON ad_forcing_adfv_del2         =   0.0000000000000E+00
(PID.TID 0000.0001) %MON ad_advcfl_aduvel_max         =   3.5839711272080E+02
(PID.TID 0000.0001) %MON ad_advcfl_advvel_max         =   1.9300896293431E+02
(PID.TID 0000.0001) %MON ad_advcfl_adwvel_max         =   2.8600589943983E+05
(PID.TID 0000.0001) %MON ad_advcfl_adW_hf_max         =   3.4320988842717E+05
(PID.TID 0000.0001) // =======================================================
(PID.TID 0000.0001) // End MONITOR dynamic field statistics
(PID.TID 0000.0001) // =======================================================
 ph-check entering grdchk_main 
 ph-check fcref =    101195.26371526526     
grad-res -------------------------------
 grad-res  proc    #    i    j    k   bi   bj iobc               fc ref           fc + eps           fc - eps
 grad-res  proc    #    i    j    k   bi   bj iobc             adj grad            fd grad         1 - fd/adj
 ph-test icomp, ncvarcomp, ichknum            1       55522           1
 ph-grd _loc: bi, bj, icomptest, ichknum            1           1           0           1
 ph-grd -->hit<--            1           1           1           1
(PID.TID 0000.0001) INI_CG2D: CG2D normalisation factor =  1.9156564154949553E-04
(PID.TID 0000.0001) INI_CG2D: cg2dTolerance = 5.809016360175296E-07 (Area=3.6388673751E+14)
(PID.TID 0000.0001) 
(PID.TID 0000.0001)  nRecords = 123 ; filePrec =  64 ; fileIter =     72000
(PID.TID 0000.0001)     nDims =   2 , dims:
(PID.TID 0000.0001)    1: 192   1 192
(PID.TID 0000.0001)    2:  32   1  32
(PID.TID 0000.0001)     nFlds =  11 , nFl3D =   8 , fields:
(PID.TID 0000.0001)  >Uvel    < >GuNm1   < >Vvel    < >GvNm1   < >Theta   < >GtNm1   < >Salt    < >GsNm1   < >EtaN    < >dEtaHdt < >EtaH    <
(PID.TID 0000.0001)   nTimRec =   0 , timeList:
(PID.TID 0000.0001) READ_MFLDS_3D_RL: read field: "Uvel    ", #   1 in fldList, rec=   1
(PID.TID 0000.0001) READ_MFLDS_3D_RL: read field: "Vvel    ", #   3 in fldList, rec=   3
(PID.TID 0000.0001) READ_MFLDS_3D_RL: read field: "Theta   ", #   5 in fldList, rec=   5
(PID.TID 0000.0001) READ_MFLDS_3D_RL: read field: "Salt    ", #   7 in fldList, rec=   7
(PID.TID 0000.0001) READ_MFLDS_3D_RL: read field: "GuNm1   ", #   2 in fldList, rec=   2
(PID.TID 0000.0001) READ_MFLDS_3D_RL: field: "GuNm2   " missing in file: pickup.0000072000
(PID.TID 0000.0001) READ_MFLDS_3D_RL: read field: "GvNm1   ", #   4 in fldList, rec=   4
(PID.TID 0000.0001) READ_MFLDS_3D_RL: field: "GvNm2   " missing in file: pickup.0000072000
(PID.TID 0000.0001) READ_MFLDS_3D_RL: read field: "EtaN    ", #   9 in fldList, rec= 121
(PID.TID 0000.0001) READ_MFLDS_3D_RL: read field: "dEtaHdt ", #  10 in fldList, rec= 122
(PID.TID 0000.0001) READ_MFLDS_3D_RL: read field: "EtaH    ", #  11 in fldList, rec= 123
(PID.TID 0000.0001) // =======================================================
(PID.TID 0000.0001) // Model current state
(PID.TID 0000.0001) // =======================================================
(PID.TID 0000.0001) 
 EXTERNAL_FIELDS_LOAD, it=     72000 : Reading new data, i0,i1=   12    1 (prev=   12    0 )
(PID.TID 0000.0001) SOLVE_FOR_PRESSURE: putPmEinXvector =    F
 cg2d: Sum(rhs),rhsMax =  -9.66338120633736E-12  4.27829651258201E+00
 cg2d: Sum(rhs),rhsMax =  -9.57811607804615E-12  4.27316012226495E+00
 cg2d: Sum(rhs),rhsMax =  -9.91917659121100E-12  4.26762372356358E+00
 cg2d: Sum(rhs),rhsMax =  -9.37916411203332E-12  4.26250700295975E+00
 cg2d: Sum(rhs),rhsMax =  -9.57811607804615E-12  4.25770388558963E+00
 cg2d: Sum(rhs),rhsMax =  -9.63495949690696E-12  4.25319684852613E+00
 cg2d: Sum(rhs),rhsMax =  -9.69180291576777E-12  4.24900187805790E+00
 cg2d: Sum(rhs),rhsMax =  -9.94759830064140E-12  4.24513385197902E+00
 cg2d: Sum(rhs),rhsMax =  -9.74864633462857E-12  4.24159887992688E+00
 cg2d: Sum(rhs),rhsMax =  -9.74864633462857E-12  4.23840118359369E+00
 cg2d: Sum(rhs),rhsMax =  -9.52127265918534E-12  4.23553910840042E+00
 cg2d: Sum(rhs),rhsMax =  -9.49285094975494E-12  4.23300290121825E+00
 cg2d: Sum(rhs),rhsMax =  -9.80548975348938E-12  4.23077337601615E+00
 cg2d: Sum(rhs),rhsMax =  -9.74864633462857E-12  4.22882245796629E+00
 cg2d: Sum(rhs),rhsMax =  -9.60653778747655E-12  4.22711470042622E+00
 EXTERNAL_FIELDS_LOAD, it=     72015 : Reading new data, i0,i1=    1    2 (prev=   12    1 )
 cg2d: Sum(rhs),rhsMax =  -9.57811607804615E-12  4.22560897300267E+00
 cg2d: Sum(rhs),rhsMax =  -9.63495949690696E-12  4.22414668627278E+00
 cg2d: Sum(rhs),rhsMax =  -9.60653778747655E-12  4.22297626925832E+00
 cg2d: Sum(rhs),rhsMax =  -9.60653778747655E-12  4.22179769062515E+00
 cg2d: Sum(rhs),rhsMax =  -9.35074240260292E-12  4.22066224525712E+00
(PID.TID 0000.0001) Did not write pickup because writePickupAtEnd = FALSE
 --> f_ice     = 0.000000000000000D+00
 --> f_smrarea = 0.000000000000000D+00
 --> f_smrarea = 0.000000000000000D+00
 --> f_smrarea = 0.000000000000000D+00
 --> objf_test(bi,bj)   =  0.118456790609843D+05
 --> objf_tracer(bi,bj) =  0.000000000000000D+00
 --> objf_atl(bi,bj)    =  0.000000000000000D+00
 --> objf_test(bi,bj)   =  0.952598726222546D+04
 --> objf_tracer(bi,bj) =  0.000000000000000D+00
 --> objf_atl(bi,bj)    =  0.000000000000000D+00
 --> objf_test(bi,bj)   =  0.694500755523735D+04
 --> objf_tracer(bi,bj) =  0.000000000000000D+00
 --> objf_atl(bi,bj)    =  0.000000000000000D+00
 --> objf_test(bi,bj)   =  0.454206357643177D+04
 --> objf_tracer(bi,bj) =  0.000000000000000D+00
 --> objf_atl(bi,bj)    =  0.000000000000000D+00
 --> objf_test(bi,bj)   =  0.460173821151201D+04
 --> objf_tracer(bi,bj) =  0.000000000000000D+00
 --> objf_atl(bi,bj)    =  0.000000000000000D+00
 --> objf_test(bi,bj)   =  0.135687787182636D+05
 --> objf_tracer(bi,bj) =  0.000000000000000D+00
 --> objf_atl(bi,bj)    =  0.000000000000000D+00
 --> objf_test(bi,bj)   =  0.116265114387110D+05
 --> objf_tracer(bi,bj) =  0.000000000000000D+00
 --> objf_atl(bi,bj)    =  0.000000000000000D+00
 --> objf_test(bi,bj)   =  0.115335485592403D+05
 --> objf_tracer(bi,bj) =  0.000000000000000D+00
 --> objf_atl(bi,bj)    =  0.000000000000000D+00
 --> objf_test(bi,bj)   =  0.727554323642951D+04
 --> objf_tracer(bi,bj) =  0.000000000000000D+00
 --> objf_atl(bi,bj)    =  0.000000000000000D+00
 --> objf_test(bi,bj)   =  0.725993089680233D+04
 --> objf_tracer(bi,bj) =  0.000000000000000D+00
 --> objf_atl(bi,bj)    =  0.000000000000000D+00
 --> objf_test(bi,bj)   =  0.580655750967195D+04
 --> objf_tracer(bi,bj) =  0.000000000000000D+00
 --> objf_atl(bi,bj)    =  0.000000000000000D+00
 --> objf_test(bi,bj)   =  0.666395068713375D+04
 --> objf_tracer(bi,bj) =  0.000000000000000D+00
 --> objf_atl(bi,bj)    =  0.000000000000000D+00
  local fc =  0.101195296712643D+06
 global fc =  0.101195296712643D+06
 ph-check fcpertplus =    101195.29671264332     
 ph-check fcpertminus =    101195.26371526526     
(PID.TID 0000.0001) INI_CG2D: CG2D normalisation factor =  1.9156564154949553E-04
(PID.TID 0000.0001) INI_CG2D: cg2dTolerance = 5.809016360175296E-07 (Area=3.6388673751E+14)
(PID.TID 0000.0001) 
(PID.TID 0000.0001)  nRecords = 123 ; filePrec =  64 ; fileIter =     72000
(PID.TID 0000.0001)     nDims =   2 , dims:
(PID.TID 0000.0001)    1: 192   1 192
(PID.TID 0000.0001)    2:  32   1  32
(PID.TID 0000.0001)     nFlds =  11 , nFl3D =   8 , fields:
(PID.TID 0000.0001)  >Uvel    < >GuNm1   < >Vvel    < >GvNm1   < >Theta   < >GtNm1   < >Salt    < >GsNm1   < >EtaN    < >dEtaHdt < >EtaH    <
(PID.TID 0000.0001)   nTimRec =   0 , timeList:
(PID.TID 0000.0001) READ_MFLDS_3D_RL: read field: "Uvel    ", #   1 in fldList, rec=   1
(PID.TID 0000.0001) READ_MFLDS_3D_RL: read field: "Vvel    ", #   3 in fldList, rec=   3
(PID.TID 0000.0001) READ_MFLDS_3D_RL: read field: "Theta   ", #   5 in fldList, rec=   5
(PID.TID 0000.0001) READ_MFLDS_3D_RL: read field: "Salt    ", #   7 in fldList, rec=   7
(PID.TID 0000.0001) READ_MFLDS_3D_RL: read field: "GuNm1   ", #   2 in fldList, rec=   2
(PID.TID 0000.0001) READ_MFLDS_3D_RL: field: "GuNm2   " missing in file: pickup.0000072000
(PID.TID 0000.0001) READ_MFLDS_3D_RL: read field: "GvNm1   ", #   4 in fldList, rec=   4
(PID.TID 0000.0001) READ_MFLDS_3D_RL: field: "GvNm2   " missing in file: pickup.0000072000
(PID.TID 0000.0001) READ_MFLDS_3D_RL: read field: "EtaN    ", #   9 in fldList, rec= 121
(PID.TID 0000.0001) READ_MFLDS_3D_RL: read field: "dEtaHdt ", #  10 in fldList, rec= 122
(PID.TID 0000.0001) READ_MFLDS_3D_RL: read field: "EtaH    ", #  11 in fldList, rec= 123
(PID.TID 0000.0001) // =======================================================
(PID.TID 0000.0001) // Model current state
(PID.TID 0000.0001) // =======================================================
(PID.TID 0000.0001) 
 EXTERNAL_FIELDS_LOAD, it=     72000 : Reading new data, i0,i1=   12    1 (prev=   12    0 )
(PID.TID 0000.0001) SOLVE_FOR_PRESSURE: putPmEinXvector =    F
 cg2d: Sum(rhs),rhsMax =  -9.69180291576777E-12  4.27829651258201E+00
 cg2d: Sum(rhs),rhsMax =  -9.40758582146373E-12  4.27316012255702E+00
 cg2d: Sum(rhs),rhsMax =  -9.69180291576777E-12  4.26762372392900E+00
 cg2d: Sum(rhs),rhsMax =  -9.49285094975494E-12  4.26250700387314E+00
 cg2d: Sum(rhs),rhsMax =  -9.69180291576777E-12  4.25770388731732E+00
 cg2d: Sum(rhs),rhsMax =  -9.60653778747655E-12  4.25319685103901E+00
 cg2d: Sum(rhs),rhsMax =  -9.52127265918534E-12  4.24900188134662E+00
 cg2d: Sum(rhs),rhsMax =  -9.72022462519817E-12  4.24513385594953E+00
 cg2d: Sum(rhs),rhsMax =  -9.57811607804615E-12  4.24159888441905E+00
 cg2d: Sum(rhs),rhsMax =  -9.40758582146373E-12  4.23840118842603E+00
 cg2d: Sum(rhs),rhsMax =  -9.43600753089413E-12  4.23553911344599E+00
 cg2d: Sum(rhs),rhsMax =  -9.54969436861575E-12  4.23300290639279E+00
 cg2d: Sum(rhs),rhsMax =  -9.60653778747655E-12  4.23077338126915E+00
 cg2d: Sum(rhs),rhsMax =  -9.63495949690696E-12  4.22882246322012E+00
 cg2d: Sum(rhs),rhsMax =  -9.63495949690696E-12  4.22711470555972E+00
 EXTERNAL_FIELDS_LOAD, it=     72015 : Reading new data, i0,i1=    1    2 (prev=   12    1 )
 cg2d: Sum(rhs),rhsMax =  -9.54969436861575E-12  4.22560897783125E+00
 cg2d: Sum(rhs),rhsMax =  -9.72022462519817E-12  4.22414669060406E+00
 cg2d: Sum(rhs),rhsMax =  -9.66338120633736E-12  4.22297627294107E+00
 cg2d: Sum(rhs),rhsMax =  -9.57811607804615E-12  4.22179769352803E+00
 cg2d: Sum(rhs),rhsMax =  -9.60653778747655E-12  4.22066224733427E+00
(PID.TID 0000.0001) Did not write pickup because writePickupAtEnd = FALSE
 --> f_ice     = 0.000000000000000D+00
 --> f_smrarea = 0.000000000000000D+00
 --> f_smrarea = 0.000000000000000D+00
 --> f_smrarea = 0.000000000000000D+00
 --> objf_test(bi,bj)   =  0.118456346876310D+05
 --> objf_tracer(bi,bj) =  0.000000000000000D+00
 --> objf_atl(bi,bj)    =  0.000000000000000D+00
 --> objf_test(bi,bj)   =  0.952598726225594D+04
 --> objf_tracer(bi,bj) =  0.000000000000000D+00
 --> objf_atl(bi,bj)    =  0.000000000000000D+00
 --> objf_test(bi,bj)   =  0.694500755511298D+04
 --> objf_tracer(bi,bj) =  0.000000000000000D+00
 --> objf_atl(bi,bj)    =  0.000000000000000D+00
 --> objf_test(bi,bj)   =  0.454206357604117D+04
 --> objf_tracer(bi,bj) =  0.000000000000000D+00
 --> objf_atl(bi,bj)    =  0.000000000000000D+00
 --> objf_test(bi,bj)   =  0.460173821189792D+04
 --> objf_tracer(bi,bj) =  0.000000000000000D+00
 --> objf_atl(bi,bj)    =  0.000000000000000D+00
 --> objf_test(bi,bj)   =  0.135687787180539D+05
 --> objf_tracer(bi,bj) =  0.000000000000000D+00
 --> objf_atl(bi,bj)    =  0.000000000000000D+00
 --> objf_test(bi,bj)   =  0.116265114387843D+05
 --> objf_tracer(bi,bj) =  0.000000000000000D+00
 --> objf_atl(bi,bj)    =  0.000000000000000D+00
 --> objf_test(bi,bj)   =  0.115335485591054D+05
 --> objf_tracer(bi,bj) =  0.000000000000000D+00
 --> objf_atl(bi,bj)    =  0.000000000000000D+00
 --> objf_test(bi,bj)   =  0.727554323633049D+04
 --> objf_tracer(bi,bj) =  0.000000000000000D+00
 --> objf_atl(bi,bj)    =  0.000000000000000D+00
 --> objf_test(bi,bj)   =  0.725992303928943D+04
 --> objf_tracer(bi,bj) =  0.000000000000000D+00
 --> objf_atl(bi,bj)    =  0.000000000000000D+00
 --> objf_test(bi,bj)   =  0.580655750958723D+04
 --> objf_tracer(bi,bj) =  0.000000000000000D+00
 --> objf_atl(bi,bj)    =  0.000000000000000D+00
 --> objf_test(bi,bj)   =  0.666393695102666D+04
 --> objf_tracer(bi,bj) =  0.000000000000000D+00
 --> objf_atl(bi,bj)    =  0.000000000000000D+00
  local fc =  0.101195230745116D+06
 global fc =  0.101195230745116D+06
grad-res -------------------------------
 grad-res     0    1    1    1    1    1    1    1   1.01195263715E+05  1.01195296713E+05  1.01195230745E+05
 grad-res     0    1    1    1    0    1    1    1   3.29816734220E+00  3.29837634490E+00 -6.33693434984E-05
(PID.TID 0000.0001)  ADM  ref_cost_function      =  1.01195263715265E+05
(PID.TID 0000.0001)  ADM  adjoint_gradient       =  3.29816734220182E+00
(PID.TID 0000.0001)  ADM  finite-diff_grad       =  3.29837634490104E+00
 ph-grd  ierr ---------------------------
 ph-grd  ierr =            0 , icomp =            1 , ichknum =            1
 ph-test icomp, ncvarcomp, ichknum            2       55522           2
 ph-grd _loc: bi, bj, icomptest, ichknum            1           1           1           2
 ph-grd -->hit<--            2           1           1           1
(PID.TID 0000.0001) INI_CG2D: CG2D normalisation factor =  1.9156564154949553E-04
(PID.TID 0000.0001) INI_CG2D: cg2dTolerance = 5.809016360175296E-07 (Area=3.6388673751E+14)
(PID.TID 0000.0001) 
(PID.TID 0000.0001)  nRecords = 123 ; filePrec =  64 ; fileIter =     72000
(PID.TID 0000.0001)     nDims =   2 , dims:
(PID.TID 0000.0001)    1: 192   1 192
(PID.TID 0000.0001)    2:  32   1  32
(PID.TID 0000.0001)     nFlds =  11 , nFl3D =   8 , fields:
(PID.TID 0000.0001)  >Uvel    < >GuNm1   < >Vvel    < >GvNm1   < >Theta   < >GtNm1   < >Salt    < >GsNm1   < >EtaN    < >dEtaHdt < >EtaH    <
(PID.TID 0000.0001)   nTimRec =   0 , timeList:
(PID.TID 0000.0001) READ_MFLDS_3D_RL: read field: "Uvel    ", #   1 in fldList, rec=   1
(PID.TID 0000.0001) READ_MFLDS_3D_RL: read field: "Vvel    ", #   3 in fldList, rec=   3
(PID.TID 0000.0001) READ_MFLDS_3D_RL: read field: "Theta   ", #   5 in fldList, rec=   5
(PID.TID 0000.0001) READ_MFLDS_3D_RL: read field: "Salt    ", #   7 in fldList, rec=   7
(PID.TID 0000.0001) READ_MFLDS_3D_RL: read field: "GuNm1   ", #   2 in fldList, rec=   2
(PID.TID 0000.0001) READ_MFLDS_3D_RL: field: "GuNm2   " missing in file: pickup.0000072000
(PID.TID 0000.0001) READ_MFLDS_3D_RL: read field: "GvNm1   ", #   4 in fldList, rec=   4
(PID.TID 0000.0001) READ_MFLDS_3D_RL: field: "GvNm2   " missing in file: pickup.0000072000
(PID.TID 0000.0001) READ_MFLDS_3D_RL: read field: "EtaN    ", #   9 in fldList, rec= 121
(PID.TID 0000.0001) READ_MFLDS_3D_RL: read field: "dEtaHdt ", #  10 in fldList, rec= 122
(PID.TID 0000.0001) READ_MFLDS_3D_RL: read field: "EtaH    ", #  11 in fldList, rec= 123
(PID.TID 0000.0001) // =======================================================
(PID.TID 0000.0001) // Model current state
(PID.TID 0000.0001) // =======================================================
(PID.TID 0000.0001) 
 EXTERNAL_FIELDS_LOAD, it=     72000 : Reading new data, i0,i1=   12    1 (prev=   12    0 )
(PID.TID 0000.0001) SOLVE_FOR_PRESSURE: putPmEinXvector =    F
 cg2d: Sum(rhs),rhsMax =  -9.69180291576777E-12  4.27829651258201E+00
 cg2d: Sum(rhs),rhsMax =  -9.66338120633736E-12  4.27316012207607E+00
 cg2d: Sum(rhs),rhsMax =  -9.26547727431171E-12  4.26762372349042E+00
 cg2d: Sum(rhs),rhsMax =  -9.63495949690696E-12  4.26250700259699E+00
 cg2d: Sum(rhs),rhsMax =  -9.54969436861575E-12  4.25770388494649E+00
 cg2d: Sum(rhs),rhsMax =  -9.63495949690696E-12  4.25319684758010E+00
 cg2d: Sum(rhs),rhsMax =  -9.54969436861575E-12  4.24900187682534E+00
 cg2d: Sum(rhs),rhsMax =  -9.77706804405898E-12  4.24513385049841E+00
 cg2d: Sum(rhs),rhsMax =  -9.63495949690696E-12  4.24159887826784E+00
 cg2d: Sum(rhs),rhsMax =  -9.54969436861575E-12  4.23840118181238E+00
 cg2d: Sum(rhs),rhsMax =  -9.49285094975494E-12  4.23553910655701E+00
 cg2d: Sum(rhs),rhsMax =  -9.80548975348938E-12  4.23300289933035E+00
 cg2d: Sum(rhs),rhsMax =  -9.74864633462857E-12  4.23077337411451E+00
 cg2d: Sum(rhs),rhsMax =  -1.00897068477934E-11  4.22882245607684E+00
 cg2d: Sum(rhs),rhsMax =  -9.63495949690696E-12  4.22711469859862E+00
 EXTERNAL_FIELDS_LOAD, it=     72015 : Reading new data, i0,i1=    1    2 (prev=   12    1 )
 cg2d: Sum(rhs),rhsMax =  -9.69180291576777E-12  4.22560897129622E+00
 cg2d: Sum(rhs),rhsMax =  -9.89075488178059E-12  4.22414668475561E+00
 cg2d: Sum(rhs),rhsMax =  -9.72022462519817E-12  4.22297626799661E+00
 cg2d: Sum(rhs),rhsMax =  -9.63495949690696E-12  4.22179768964999E+00
 cg2d: Sum(rhs),rhsMax =  -9.60653778747655E-12  4.22066224457644E+00
(PID.TID 0000.0001) Did not write pickup because writePickupAtEnd = FALSE
 --> f_ice     = 0.000000000000000D+00
 --> f_smrarea = 0.000000000000000D+00
 --> f_smrarea = 0.000000000000000D+00
 --> f_smrarea = 0.000000000000000D+00
 --> objf_test(bi,bj)   =  0.118456875041238D+05
 --> objf_tracer(bi,bj) =  0.000000000000000D+00
 --> objf_atl(bi,bj)    =  0.000000000000000D+00
 --> objf_test(bi,bj)   =  0.952598726220433D+04
 --> objf_tracer(bi,bj) =  0.000000000000000D+00
 --> objf_atl(bi,bj)    =  0.000000000000000D+00
 --> objf_test(bi,bj)   =  0.694500755528862D+04
 --> objf_tracer(bi,bj) =  0.000000000000000D+00
 --> objf_atl(bi,bj)    =  0.000000000000000D+00
 --> objf_test(bi,bj)   =  0.454206357657151D+04
 --> objf_tracer(bi,bj) =  0.000000000000000D+00
 --> objf_atl(bi,bj)    =  0.000000000000000D+00
 --> objf_test(bi,bj)   =  0.460173821138564D+04
 --> objf_tracer(bi,bj) =  0.000000000000000D+00
 --> objf_atl(bi,bj)    =  0.000000000000000D+00
 --> objf_test(bi,bj)   =  0.135687787183463D+05
 --> objf_tracer(bi,bj) =  0.000000000000000D+00
 --> objf_atl(bi,bj)    =  0.000000000000000D+00
 --> objf_test(bi,bj)   =  0.116265114386684D+05
 --> objf_tracer(bi,bj) =  0.000000000000000D+00
 --> objf_atl(bi,bj)    =  0.000000000000000D+00
 --> objf_test(bi,bj)   =  0.115335485592936D+05
 --> objf_tracer(bi,bj) =  0.000000000000000D+00
 --> objf_atl(bi,bj)    =  0.000000000000000D+00
 --> objf_test(bi,bj)   =  0.727554323646193D+04
 --> objf_tracer(bi,bj) =  0.000000000000000D+00
 --> objf_atl(bi,bj)    =  0.000000000000000D+00
 --> objf_test(bi,bj)   =  0.725992787773134D+04
 --> objf_tracer(bi,bj) =  0.000000000000000D+00
 --> objf_atl(bi,bj)    =  0.000000000000000D+00
 --> objf_test(bi,bj)   =  0.580655750970225D+04
 --> objf_tracer(bi,bj) =  0.000000000000000D+00
 --> objf_atl(bi,bj)    =  0.000000000000000D+00
 --> objf_test(bi,bj)   =  0.666394963406717D+04
 --> objf_tracer(bi,bj) =  0.000000000000000D+00
 --> objf_atl(bi,bj)    =  0.000000000000000D+00
  local fc =  0.101195301083845D+06
 global fc =  0.101195301083845D+06
 ph-check fcpertplus =    101195.30108384490     
 ph-check fcpertminus =    101195.26371526526     
(PID.TID 0000.0001) INI_CG2D: CG2D normalisation factor =  1.9156564154949553E-04
(PID.TID 0000.0001) INI_CG2D: cg2dTolerance = 5.809016360175296E-07 (Area=3.6388673751E+14)
(PID.TID 0000.0001) 
(PID.TID 0000.0001)  nRecords = 123 ; filePrec =  64 ; fileIter =     72000
(PID.TID 0000.0001)     nDims =   2 , dims:
(PID.TID 0000.0001)    1: 192   1 192
(PID.TID 0000.0001)    2:  32   1  32
(PID.TID 0000.0001)     nFlds =  11 , nFl3D =   8 , fields:
(PID.TID 0000.0001)  >Uvel    < >GuNm1   < >Vvel    < >GvNm1   < >Theta   < >GtNm1   < >Salt    < >GsNm1   < >EtaN    < >dEtaHdt < >EtaH    <
(PID.TID 0000.0001)   nTimRec =   0 , timeList:
(PID.TID 0000.0001) READ_MFLDS_3D_RL: read field: "Uvel    ", #   1 in fldList, rec=   1
(PID.TID 0000.0001) READ_MFLDS_3D_RL: read field: "Vvel    ", #   3 in fldList, rec=   3
(PID.TID 0000.0001) READ_MFLDS_3D_RL: read field: "Theta   ", #   5 in fldList, rec=   5
(PID.TID 0000.0001) READ_MFLDS_3D_RL: read field: "Salt    ", #   7 in fldList, rec=   7
(PID.TID 0000.0001) READ_MFLDS_3D_RL: read field: "GuNm1   ", #   2 in fldList, rec=   2
(PID.TID 0000.0001) READ_MFLDS_3D_RL: field: "GuNm2   " missing in file: pickup.0000072000
(PID.TID 0000.0001) READ_MFLDS_3D_RL: read field: "GvNm1   ", #   4 in fldList, rec=   4
(PID.TID 0000.0001) READ_MFLDS_3D_RL: field: "GvNm2   " missing in file: pickup.0000072000
(PID.TID 0000.0001) READ_MFLDS_3D_RL: read field: "EtaN    ", #   9 in fldList, rec= 121
(PID.TID 0000.0001) READ_MFLDS_3D_RL: read field: "dEtaHdt ", #  10 in fldList, rec= 122
(PID.TID 0000.0001) READ_MFLDS_3D_RL: read field: "EtaH    ", #  11 in fldList, rec= 123
(PID.TID 0000.0001) // =======================================================
(PID.TID 0000.0001) // Model current state
(PID.TID 0000.0001) // =======================================================
(PID.TID 0000.0001) 
 EXTERNAL_FIELDS_LOAD, it=     72000 : Reading new data, i0,i1=   12    1 (prev=   12    0 )
(PID.TID 0000.0001) SOLVE_FOR_PRESSURE: putPmEinXvector =    F
 cg2d: Sum(rhs),rhsMax =  -9.69180291576777E-12  4.27829651258201E+00
 cg2d: Sum(rhs),rhsMax =  -9.69180291576777E-12  4.27316012247638E+00
 cg2d: Sum(rhs),rhsMax =  -9.60653778747655E-12  4.26762372407135E+00
 cg2d: Sum(rhs),rhsMax =  -9.74864633462857E-12  4.26250700427778E+00
 cg2d: Sum(rhs),rhsMax =  -9.74864633462857E-12  4.25770388796114E+00
 cg2d: Sum(rhs),rhsMax =  -9.46442924032453E-12  4.25319685199994E+00
 cg2d: Sum(rhs),rhsMax =  -9.66338120633736E-12  4.24900188260107E+00
 cg2d: Sum(rhs),rhsMax =  -9.77706804405898E-12  4.24513385744473E+00
 cg2d: Sum(rhs),rhsMax =  -9.43600753089413E-12  4.24159888610596E+00
 cg2d: Sum(rhs),rhsMax =  -9.66338120633736E-12  4.23840119023473E+00
 cg2d: Sum(rhs),rhsMax =  -9.74864633462857E-12  4.23553911532135E+00
 cg2d: Sum(rhs),rhsMax =  -9.60653778747655E-12  4.23300290830175E+00
 cg2d: Sum(rhs),rhsMax =  -9.66338120633736E-12  4.23077338319986E+00
 cg2d: Sum(rhs),rhsMax =  -9.66338120633736E-12  4.22882246514033E+00
 cg2d: Sum(rhs),rhsMax =  -9.52127265918534E-12  4.22711470741195E+00
 EXTERNAL_FIELDS_LOAD, it=     72015 : Reading new data, i0,i1=    1    2 (prev=   12    1 )
 cg2d: Sum(rhs),rhsMax =  -9.63495949690696E-12  4.22560897956299E+00
 cg2d: Sum(rhs),rhsMax =  -9.63495949690696E-12  4.22414669214262E+00
 cg2d: Sum(rhs),rhsMax =  -9.66338120633736E-12  4.22297627422264E+00
 cg2d: Sum(rhs),rhsMax =  -9.80548975348938E-12  4.22179769452281E+00
 cg2d: Sum(rhs),rhsMax =  -9.43600753089413E-12  4.22066224801840E+00
(PID.TID 0000.0001) Did not write pickup because writePickupAtEnd = FALSE
 --> f_ice     = 0.000000000000000D+00
 --> f_smrarea = 0.000000000000000D+00
 --> f_smrarea = 0.000000000000000D+00
 --> f_smrarea = 0.000000000000000D+00
 --> objf_test(bi,bj)   =  0.118456262640480D+05
 --> objf_tracer(bi,bj) =  0.000000000000000D+00
 --> objf_atl(bi,bj)    =  0.000000000000000D+00
 --> objf_test(bi,bj)   =  0.952598726228294D+04
 --> objf_tracer(bi,bj) =  0.000000000000000D+00
 --> objf_atl(bi,bj)    =  0.000000000000000D+00
 --> objf_test(bi,bj)   =  0.694500755505884D+04
 --> objf_tracer(bi,bj) =  0.000000000000000D+00
 --> objf_atl(bi,bj)    =  0.000000000000000D+00
 --> objf_test(bi,bj)   =  0.454206357590123D+04
 --> objf_tracer(bi,bj) =  0.000000000000000D+00
 --> objf_atl(bi,bj)    =  0.000000000000000D+00
 --> objf_test(bi,bj)   =  0.460173821201296D+04
 --> objf_tracer(bi,bj) =  0.000000000000000D+00
 --> objf_atl(bi,bj)    =  0.000000000000000D+00
 --> objf_test(bi,bj)   =  0.135687787179685D+05
 --> objf_tracer(bi,bj) =  0.000000000000000D+00
 --> objf_atl(bi,bj)    =  0.000000000000000D+00
 --> objf_test(bi,bj)   =  0.116265114388473D+05
 --> objf_tracer(bi,bj) =  0.000000000000000D+00
 --> objf_atl(bi,bj)    =  0.000000000000000D+00
 --> objf_test(bi,bj)   =  0.115335485590473D+05
 --> objf_tracer(bi,bj) =  0.000000000000000D+00
 --> objf_atl(bi,bj)    =  0.000000000000000D+00
 --> objf_test(bi,bj)   =  0.727554323630209D+04
 --> objf_tracer(bi,bj) =  0.000000000000000D+00
 --> objf_atl(bi,bj)    =  0.000000000000000D+00
 --> objf_test(bi,bj)   =  0.725992605229941D+04
 --> objf_tracer(bi,bj) =  0.000000000000000D+00
 --> objf_atl(bi,bj)    =  0.000000000000000D+00
 --> objf_test(bi,bj)   =  0.580655750955927D+04
 --> objf_tracer(bi,bj) =  0.000000000000000D+00
 --> objf_atl(bi,bj)    =  0.000000000000000D+00
 --> objf_test(bi,bj)   =  0.666393799789876D+04
 --> objf_tracer(bi,bj) =  0.000000000000000D+00
 --> objf_atl(bi,bj)    =  0.000000000000000D+00
  local fc =  0.101195226381227D+06
 global fc =  0.101195226381227D+06
grad-res -------------------------------
 grad-res     0    2    2    1    1    1    1    1   1.01195263715E+05  1.01195301084E+05  1.01195226381E+05
 grad-res     0    2    2    2    0    1    1    1   3.73506463777E+00  3.73513091181E+00 -1.77437474846E-05
(PID.TID 0000.0001)  ADM  ref_cost_function      =  1.01195263715265E+05
(PID.TID 0000.0001)  ADM  adjoint_gradient       =  3.73506463776562E+00
(PID.TID 0000.0001)  ADM  finite-diff_grad       =  3.73513091180939E+00
 ph-grd  ierr ---------------------------
 ph-grd  ierr =            0 , icomp =            2 , ichknum =            2
 ph-test icomp, ncvarcomp, ichknum            3       55522           3
 ph-grd _loc: bi, bj, icomptest, ichknum            1           1           2           3
 ph-grd -->hit<--            3           1           1           1
(PID.TID 0000.0001) INI_CG2D: CG2D normalisation factor =  1.9156564154949553E-04
(PID.TID 0000.0001) INI_CG2D: cg2dTolerance = 5.809016360175296E-07 (Area=3.6388673751E+14)
(PID.TID 0000.0001) 
(PID.TID 0000.0001)  nRecords = 123 ; filePrec =  64 ; fileIter =     72000
(PID.TID 0000.0001)     nDims =   2 , dims:
(PID.TID 0000.0001)    1: 192   1 192
(PID.TID 0000.0001)    2:  32   1  32
(PID.TID 0000.0001)     nFlds =  11 , nFl3D =   8 , fields:
(PID.TID 0000.0001)  >Uvel    < >GuNm1   < >Vvel    < >GvNm1   < >Theta   < >GtNm1   < >Salt    < >GsNm1   < >EtaN    < >dEtaHdt < >EtaH    <
(PID.TID 0000.0001)   nTimRec =   0 , timeList:
(PID.TID 0000.0001) READ_MFLDS_3D_RL: read field: "Uvel    ", #   1 in fldList, rec=   1
(PID.TID 0000.0001) READ_MFLDS_3D_RL: read field: "Vvel    ", #   3 in fldList, rec=   3
(PID.TID 0000.0001) READ_MFLDS_3D_RL: read field: "Theta   ", #   5 in fldList, rec=   5
(PID.TID 0000.0001) READ_MFLDS_3D_RL: read field: "Salt    ", #   7 in fldList, rec=   7
(PID.TID 0000.0001) READ_MFLDS_3D_RL: read field: "GuNm1   ", #   2 in fldList, rec=   2
(PID.TID 0000.0001) READ_MFLDS_3D_RL: field: "GuNm2   " missing in file: pickup.0000072000
(PID.TID 0000.0001) READ_MFLDS_3D_RL: read field: "GvNm1   ", #   4 in fldList, rec=   4
(PID.TID 0000.0001) READ_MFLDS_3D_RL: field: "GvNm2   " missing in file: pickup.0000072000
(PID.TID 0000.0001) READ_MFLDS_3D_RL: read field: "EtaN    ", #   9 in fldList, rec= 121
(PID.TID 0000.0001) READ_MFLDS_3D_RL: read field: "dEtaHdt ", #  10 in fldList, rec= 122
(PID.TID 0000.0001) READ_MFLDS_3D_RL: read field: "EtaH    ", #  11 in fldList, rec= 123
(PID.TID 0000.0001) // =======================================================
(PID.TID 0000.0001) // Model current state
(PID.TID 0000.0001) // =======================================================
(PID.TID 0000.0001) 
 EXTERNAL_FIELDS_LOAD, it=     72000 : Reading new data, i0,i1=   12    1 (prev=   12    0 )
(PID.TID 0000.0001) SOLVE_FOR_PRESSURE: putPmEinXvector =    F
 cg2d: Sum(rhs),rhsMax =  -9.69180291576777E-12  4.27829651258201E+00
 cg2d: Sum(rhs),rhsMax =  -9.43600753089413E-12  4.27316012231827E+00
 cg2d: Sum(rhs),rhsMax =  -9.57811607804615E-12  4.26762372327669E+00
 cg2d: Sum(rhs),rhsMax =  -9.60653778747655E-12  4.26250700228129E+00
 cg2d: Sum(rhs),rhsMax =  -9.57811607804615E-12  4.25770388442747E+00
 cg2d: Sum(rhs),rhsMax =  -9.46442924032453E-12  4.25319684681968E+00
 cg2d: Sum(rhs),rhsMax =  -9.80548975348938E-12  4.24900187584126E+00
 cg2d: Sum(rhs),rhsMax =  -9.89075488178059E-12  4.24513384932720E+00
 cg2d: Sum(rhs),rhsMax =  -9.49285094975494E-12  4.24159887695593E+00
 cg2d: Sum(rhs),rhsMax =  -9.43600753089413E-12  4.23840118040497E+00
 cg2d: Sum(rhs),rhsMax =  -9.57811607804615E-12  4.23553910508463E+00
 cg2d: Sum(rhs),rhsMax =  -9.46442924032453E-12  4.23300289781892E+00
 cg2d: Sum(rhs),rhsMax =  -9.54969436861575E-12  4.23077337258146E+00
 cg2d: Sum(rhs),rhsMax =  -9.32232069317251E-12  4.22882245454965E+00
 cg2d: Sum(rhs),rhsMax =  -9.40758582146373E-12  4.22711469712155E+00
 EXTERNAL_FIELDS_LOAD, it=     72015 : Reading new data, i0,i1=    1    2 (prev=   12    1 )
 cg2d: Sum(rhs),rhsMax =  -9.86233317235019E-12  4.22560896992421E+00
 cg2d: Sum(rhs),rhsMax =  -9.40758582146373E-12  4.22414668354760E+00
 cg2d: Sum(rhs),rhsMax =  -9.63495949690696E-12  4.22297626700444E+00
 cg2d: Sum(rhs),rhsMax =  -9.63495949690696E-12  4.22179768890280E+00
 cg2d: Sum(rhs),rhsMax =  -9.80548975348938E-12  4.22066224408428E+00
(PID.TID 0000.0001) Did not write pickup because writePickupAtEnd = FALSE
 --> f_ice     = 0.000000000000000D+00
 --> f_smrarea = 0.000000000000000D+00
 --> f_smrarea = 0.000000000000000D+00
 --> f_smrarea = 0.000000000000000D+00
 --> objf_test(bi,bj)   =  0.118456876333024D+05
 --> objf_tracer(bi,bj) =  0.000000000000000D+00
 --> objf_atl(bi,bj)    =  0.000000000000000D+00
 --> objf_test(bi,bj)   =  0.952598726217882D+04
 --> objf_tracer(bi,bj) =  0.000000000000000D+00
 --> objf_atl(bi,bj)    =  0.000000000000000D+00
 --> objf_test(bi,bj)   =  0.694500755533633D+04
 --> objf_tracer(bi,bj) =  0.000000000000000D+00
 --> objf_atl(bi,bj)    =  0.000000000000000D+00
 --> objf_test(bi,bj)   =  0.454206357668611D+04
 --> objf_tracer(bi,bj) =  0.000000000000000D+00
 --> objf_atl(bi,bj)    =  0.000000000000000D+00
 --> objf_test(bi,bj)   =  0.460173821128727D+04
 --> objf_tracer(bi,bj) =  0.000000000000000D+00
 --> objf_atl(bi,bj)    =  0.000000000000000D+00
 --> objf_test(bi,bj)   =  0.135687787184292D+05
 --> objf_tracer(bi,bj) =  0.000000000000000D+00
 --> objf_atl(bi,bj)    =  0.000000000000000D+00
 --> objf_test(bi,bj)   =  0.116265114386283D+05
 --> objf_tracer(bi,bj) =  0.000000000000000D+00
 --> objf_atl(bi,bj)    =  0.000000000000000D+00
 --> objf_test(bi,bj)   =  0.115335485593442D+05
 --> objf_tracer(bi,bj) =  0.000000000000000D+00
 --> objf_atl(bi,bj)    =  0.000000000000000D+00
 --> objf_test(bi,bj)   =  0.727554323648853D+04
 --> objf_tracer(bi,bj) =  0.000000000000000D+00
 --> objf_atl(bi,bj)    =  0.000000000000000D+00
 --> objf_test(bi,bj)   =  0.725992706872380D+04
 --> objf_tracer(bi,bj) =  0.000000000000000D+00
 --> objf_atl(bi,bj)    =  0.000000000000000D+00
 --> objf_test(bi,bj)   =  0.580655750972891D+04
 --> objf_tracer(bi,bj) =  0.000000000000000D+00
 --> objf_atl(bi,bj)    =  0.000000000000000D+00
 --> objf_test(bi,bj)   =  0.666394692838868D+04
 --> objf_tracer(bi,bj) =  0.000000000000000D+00
 --> objf_atl(bi,bj)    =  0.000000000000000D+00
  local fc =  0.101195297698523D+06
 global fc =  0.101195297698523D+06
 ph-check fcpertplus =    101195.29769852260     
 ph-check fcpertminus =    101195.26371526526     
(PID.TID 0000.0001) INI_CG2D: CG2D normalisation factor =  1.9156564154949553E-04
(PID.TID 0000.0001) INI_CG2D: cg2dTolerance = 5.809016360175296E-07 (Area=3.6388673751E+14)
(PID.TID 0000.0001) 
(PID.TID 0000.0001)  nRecords = 123 ; filePrec =  64 ; fileIter =     72000
(PID.TID 0000.0001)     nDims =   2 , dims:
(PID.TID 0000.0001)    1: 192   1 192
(PID.TID 0000.0001)    2:  32   1  32
(PID.TID 0000.0001)     nFlds =  11 , nFl3D =   8 , fields:
(PID.TID 0000.0001)  >Uvel    < >GuNm1   < >Vvel    < >GvNm1   < >Theta   < >GtNm1   < >Salt    < >GsNm1   < >EtaN    < >dEtaHdt < >EtaH    <
(PID.TID 0000.0001)   nTimRec =   0 , timeList:
(PID.TID 0000.0001) READ_MFLDS_3D_RL: read field: "Uvel    ", #   1 in fldList, rec=   1
(PID.TID 0000.0001) READ_MFLDS_3D_RL: read field: "Vvel    ", #   3 in fldList, rec=   3
(PID.TID 0000.0001) READ_MFLDS_3D_RL: read field: "Theta   ", #   5 in fldList, rec=   5
(PID.TID 0000.0001) READ_MFLDS_3D_RL: read field: "Salt    ", #   7 in fldList, rec=   7
(PID.TID 0000.0001) READ_MFLDS_3D_RL: read field: "GuNm1   ", #   2 in fldList, rec=   2
(PID.TID 0000.0001) READ_MFLDS_3D_RL: field: "GuNm2   " missing in file: pickup.0000072000
(PID.TID 0000.0001) READ_MFLDS_3D_RL: read field: "GvNm1   ", #   4 in fldList, rec=   4
(PID.TID 0000.0001) READ_MFLDS_3D_RL: field: "GvNm2   " missing in file: pickup.0000072000
(PID.TID 0000.0001) READ_MFLDS_3D_RL: read field: "EtaN    ", #   9 in fldList, rec= 121
(PID.TID 0000.0001) READ_MFLDS_3D_RL: read field: "dEtaHdt ", #  10 in fldList, rec= 122
(PID.TID 0000.0001) READ_MFLDS_3D_RL: read field: "EtaH    ", #  11 in fldList, rec= 123
(PID.TID 0000.0001) // =======================================================
(PID.TID 0000.0001) // Model current state
(PID.TID 0000.0001) // =======================================================
(PID.TID 0000.0001) 
 EXTERNAL_FIELDS_LOAD, it=     72000 : Reading new data, i0,i1=   12    1 (prev=   12    0 )
(PID.TID 0000.0001) SOLVE_FOR_PRESSURE: putPmEinXvector =    F
 cg2d: Sum(rhs),rhsMax =  -9.69180291576777E-12  4.27829651258201E+00
 cg2d: Sum(rhs),rhsMax =  -9.69180291576777E-12  4.27316012224547E+00
 cg2d: Sum(rhs),rhsMax =  -9.43600753089413E-12  4.26762372428480E+00
 cg2d: Sum(rhs),rhsMax =  -9.80548975348938E-12  4.26250700459537E+00
 cg2d: Sum(rhs),rhsMax =  -9.37916411203332E-12  4.25770388847756E+00
 cg2d: Sum(rhs),rhsMax =  -9.60653778747655E-12  4.25319685275920E+00
 cg2d: Sum(rhs),rhsMax =  -9.49285094975494E-12  4.24900188358442E+00
 cg2d: Sum(rhs),rhsMax =  -9.77706804405898E-12  4.24513385861392E+00
 cg2d: Sum(rhs),rhsMax =  -9.52127265918534E-12  4.24159888741069E+00
 cg2d: Sum(rhs),rhsMax =  -9.54969436861575E-12  4.23840119164113E+00
 cg2d: Sum(rhs),rhsMax =  -9.80548975348938E-12  4.23553911679179E+00
 cg2d: Sum(rhs),rhsMax =  -9.74864633462857E-12  4.23300290981476E+00
 cg2d: Sum(rhs),rhsMax =  -9.37916411203332E-12  4.23077338473454E+00
 cg2d: Sum(rhs),rhsMax =  -9.49285094975494E-12  4.22882246666559E+00
 cg2d: Sum(rhs),rhsMax =  -9.86233317235019E-12  4.22711470888673E+00
 EXTERNAL_FIELDS_LOAD, it=     72015 : Reading new data, i0,i1=    1    2 (prev=   12    1 )
 cg2d: Sum(rhs),rhsMax =  -9.80548975348938E-12  4.22560898092917E+00
 cg2d: Sum(rhs),rhsMax =  -9.86233317235019E-12  4.22414669334896E+00
 cg2d: Sum(rhs),rhsMax =  -9.89075488178059E-12  4.22297627521175E+00
 cg2d: Sum(rhs),rhsMax =  -9.66338120633736E-12  4.22179769526870E+00
 cg2d: Sum(rhs),rhsMax =  -9.77706804405898E-12  4.22066224851021E+00
(PID.TID 0000.0001) Did not write pickup because writePickupAtEnd = FALSE
 --> f_ice     = 0.000000000000000D+00
 --> f_smrarea = 0.000000000000000D+00
 --> f_smrarea = 0.000000000000000D+00
 --> f_smrarea = 0.000000000000000D+00
 --> objf_test(bi,bj)   =  0.118456261067643D+05
 --> objf_tracer(bi,bj) =  0.000000000000000D+00
 --> objf_atl(bi,bj)    =  0.000000000000000D+00
 --> objf_test(bi,bj)   =  0.952598726230809D+04
 --> objf_tracer(bi,bj) =  0.000000000000000D+00
 --> objf_atl(bi,bj)    =  0.000000000000000D+00
 --> objf_test(bi,bj)   =  0.694500755501122D+04
 --> objf_tracer(bi,bj) =  0.000000000000000D+00
 --> objf_atl(bi,bj)    =  0.000000000000000D+00
 --> objf_test(bi,bj)   =  0.454206357578654D+04
 --> objf_tracer(bi,bj) =  0.000000000000000D+00
 --> objf_atl(bi,bj)    =  0.000000000000000D+00
 --> objf_test(bi,bj)   =  0.460173821211223D+04
 --> objf_tracer(bi,bj) =  0.000000000000000D+00
 --> objf_atl(bi,bj)    =  0.000000000000000D+00
 --> objf_test(bi,bj)   =  0.135687787178865D+05
 --> objf_tracer(bi,bj) =  0.000000000000000D+00
 --> objf_atl(bi,bj)    =  0.000000000000000D+00
 --> objf_test(bi,bj)   =  0.116265114388869D+05
 --> objf_tracer(bi,bj) =  0.000000000000000D+00
 --> objf_atl(bi,bj)    =  0.000000000000000D+00
 --> objf_test(bi,bj)   =  0.115335485589967D+05
 --> objf_tracer(bi,bj) =  0.000000000000000D+00
 --> objf_atl(bi,bj)    =  0.000000000000000D+00
 --> objf_test(bi,bj)   =  0.727554323627535D+04
 --> objf_tracer(bi,bj) =  0.000000000000000D+00
 --> objf_atl(bi,bj)    =  0.000000000000000D+00
 --> objf_test(bi,bj)   =  0.725992686185125D+04
 --> objf_tracer(bi,bj) =  0.000000000000000D+00
 --> objf_atl(bi,bj)    =  0.000000000000000D+00
 --> objf_test(bi,bj)   =  0.580655750953245D+04
 --> objf_tracer(bi,bj) =  0.000000000000000D+00
 --> objf_atl(bi,bj)    =  0.000000000000000D+00
 --> objf_test(bi,bj)   =  0.666394070983704D+04
 --> objf_tracer(bi,bj) =  0.000000000000000D+00
 --> objf_atl(bi,bj)    =  0.000000000000000D+00
  local fc =  0.101195229745249D+06
 global fc =  0.101195229745249D+06
grad-res -------------------------------
 grad-res     0    3    3    1    1    1    1    1   1.01195263715E+05  1.01195297699E+05  1.01195229745E+05
 grad-res     0    3    3    3    0    1    1    1   3.39880144523E+00  3.39766370162E+00  3.34748479466E-04
(PID.TID 0000.0001)  ADM  ref_cost_function      =  1.01195263715265E+05
(PID.TID 0000.0001)  ADM  adjoint_gradient       =  3.39880144523249E+00
(PID.TID 0000.0001)  ADM  finite-diff_grad       =  3.39766370161669E+00
 ph-grd  ierr ---------------------------
 ph-grd  ierr =            0 , icomp =            3 , ichknum =            3
 ph-test icomp, ncvarcomp, ichknum            4       55522           4
 ph-grd _loc: bi, bj, icomptest, ichknum            1           1           3           4
 ph-grd -->hit<--            4           1           1           1
(PID.TID 0000.0001) INI_CG2D: CG2D normalisation factor =  1.9156564154949553E-04
(PID.TID 0000.0001) INI_CG2D: cg2dTolerance = 5.809016360175296E-07 (Area=3.6388673751E+14)
(PID.TID 0000.0001) 
(PID.TID 0000.0001)  nRecords = 123 ; filePrec =  64 ; fileIter =     72000
(PID.TID 0000.0001)     nDims =   2 , dims:
(PID.TID 0000.0001)    1: 192   1 192
(PID.TID 0000.0001)    2:  32   1  32
(PID.TID 0000.0001)     nFlds =  11 , nFl3D =   8 , fields:
(PID.TID 0000.0001)  >Uvel    < >GuNm1   < >Vvel    < >GvNm1   < >Theta   < >GtNm1   < >Salt    < >GsNm1   < >EtaN    < >dEtaHdt < >EtaH    <
(PID.TID 0000.0001)   nTimRec =   0 , timeList:
(PID.TID 0000.0001) READ_MFLDS_3D_RL: read field: "Uvel    ", #   1 in fldList, rec=   1
(PID.TID 0000.0001) READ_MFLDS_3D_RL: read field: "Vvel    ", #   3 in fldList, rec=   3
(PID.TID 0000.0001) READ_MFLDS_3D_RL: read field: "Theta   ", #   5 in fldList, rec=   5
(PID.TID 0000.0001) READ_MFLDS_3D_RL: read field: "Salt    ", #   7 in fldList, rec=   7
(PID.TID 0000.0001) READ_MFLDS_3D_RL: read field: "GuNm1   ", #   2 in fldList, rec=   2
(PID.TID 0000.0001) READ_MFLDS_3D_RL: field: "GuNm2   " missing in file: pickup.0000072000
(PID.TID 0000.0001) READ_MFLDS_3D_RL: read field: "GvNm1   ", #   4 in fldList, rec=   4
(PID.TID 0000.0001) READ_MFLDS_3D_RL: field: "GvNm2   " missing in file: pickup.0000072000
(PID.TID 0000.0001) READ_MFLDS_3D_RL: read field: "EtaN    ", #   9 in fldList, rec= 121
(PID.TID 0000.0001) READ_MFLDS_3D_RL: read field: "dEtaHdt ", #  10 in fldList, rec= 122
(PID.TID 0000.0001) READ_MFLDS_3D_RL: read field: "EtaH    ", #  11 in fldList, rec= 123
(PID.TID 0000.0001) // =======================================================
(PID.TID 0000.0001) // Model current state
(PID.TID 0000.0001) // =======================================================
(PID.TID 0000.0001) 
 EXTERNAL_FIELDS_LOAD, it=     72000 : Reading new data, i0,i1=   12    1 (prev=   12    0 )
(PID.TID 0000.0001) SOLVE_FOR_PRESSURE: putPmEinXvector =    F
 cg2d: Sum(rhs),rhsMax =  -9.69180291576777E-12  4.27829651258201E+00
 cg2d: Sum(rhs),rhsMax =  -9.97602001007181E-12  4.27316012216966E+00
 cg2d: Sum(rhs),rhsMax =  -9.57811607804615E-12  4.26762372321008E+00
 cg2d: Sum(rhs),rhsMax =  -9.69180291576777E-12  4.26250700203517E+00
 cg2d: Sum(rhs),rhsMax =  -9.32232069317251E-12  4.25770388396603E+00
 cg2d: Sum(rhs),rhsMax =  -9.86233317235019E-12  4.25319684616533E+00
 cg2d: Sum(rhs),rhsMax =  -9.54969436861575E-12  4.24900187502461E+00
 cg2d: Sum(rhs),rhsMax =  -9.54969436861575E-12  4.24513384838792E+00
 cg2d: Sum(rhs),rhsMax =  -9.60653778747655E-12  4.24159887592486E+00
 cg2d: Sum(rhs),rhsMax =  -9.49285094975494E-12  4.23840117931904E+00
 cg2d: Sum(rhs),rhsMax =  -9.66338120633736E-12  4.23553910396009E+00
 cg2d: Sum(rhs),rhsMax =  -9.63495949690696E-12  4.23300289667667E+00
 cg2d: Sum(rhs),rhsMax =  -9.46442924032453E-12  4.23077337143332E+00
 cg2d: Sum(rhs),rhsMax =  -9.80548975348938E-12  4.22882245341460E+00
 cg2d: Sum(rhs),rhsMax =  -9.77706804405898E-12  4.22711469602947E+00
 EXTERNAL_FIELDS_LOAD, it=     72015 : Reading new data, i0,i1=    1    2 (prev=   12    1 )
 cg2d: Sum(rhs),rhsMax =  -9.52127265918534E-12  4.22560896892083E+00
 cg2d: Sum(rhs),rhsMax =  -9.66338120633736E-12  4.22414668267177E+00
 cg2d: Sum(rhs),rhsMax =  -9.60653778747655E-12  4.22297626628896E+00
 cg2d: Sum(rhs),rhsMax =  -9.52127265918534E-12  4.22179768837286E+00
 cg2d: Sum(rhs),rhsMax =  -9.60653778747655E-12  4.22066224374870E+00
(PID.TID 0000.0001) Did not write pickup because writePickupAtEnd = FALSE
 --> f_ice     = 0.000000000000000D+00
 --> f_smrarea = 0.000000000000000D+00
 --> f_smrarea = 0.000000000000000D+00
 --> f_smrarea = 0.000000000000000D+00
 --> objf_test(bi,bj)   =  0.118456850329727D+05
 --> objf_tracer(bi,bj) =  0.000000000000000D+00
 --> objf_atl(bi,bj)    =  0.000000000000000D+00
 --> objf_test(bi,bj)   =  0.952598726216651D+04
 --> objf_tracer(bi,bj) =  0.000000000000000D+00
 --> objf_atl(bi,bj)    =  0.000000000000000D+00
 --> objf_test(bi,bj)   =  0.694500755537282D+04
 --> objf_tracer(bi,bj) =  0.000000000000000D+00
 --> objf_atl(bi,bj)    =  0.000000000000000D+00
 --> objf_test(bi,bj)   =  0.454206357677515D+04
 --> objf_tracer(bi,bj) =  0.000000000000000D+00
 --> objf_atl(bi,bj)    =  0.000000000000000D+00
 --> objf_test(bi,bj)   =  0.460173821120217D+04
 --> objf_tracer(bi,bj) =  0.000000000000000D+00
 --> objf_atl(bi,bj)    =  0.000000000000000D+00
 --> objf_test(bi,bj)   =  0.135687787184874D+05
 --> objf_tracer(bi,bj) =  0.000000000000000D+00
 --> objf_atl(bi,bj)    =  0.000000000000000D+00
 --> objf_test(bi,bj)   =  0.116265114386093D+05
 --> objf_tracer(bi,bj) =  0.000000000000000D+00
 --> objf_atl(bi,bj)    =  0.000000000000000D+00
 --> objf_test(bi,bj)   =  0.115335485593794D+05
 --> objf_tracer(bi,bj) =  0.000000000000000D+00
 --> objf_atl(bi,bj)    =  0.000000000000000D+00
 --> objf_test(bi,bj)   =  0.727554323651297D+04
 --> objf_tracer(bi,bj) =  0.000000000000000D+00
 --> objf_atl(bi,bj)    =  0.000000000000000D+00
 --> objf_test(bi,bj)   =  0.725992702081940D+04
 --> objf_tracer(bi,bj) =  0.000000000000000D+00
 --> objf_atl(bi,bj)    =  0.000000000000000D+00
 --> objf_test(bi,bj)   =  0.580655750975060D+04
 --> objf_tracer(bi,bj) =  0.000000000000000D+00
 --> objf_atl(bi,bj)    =  0.000000000000000D+00
 --> objf_test(bi,bj)   =  0.666394525449048D+04
 --> objf_tracer(bi,bj) =  0.000000000000000D+00
 --> objf_atl(bi,bj)    =  0.000000000000000D+00
  local fc =  0.101195293376539D+06
 global fc =  0.101195293376539D+06
 ph-check fcpertplus =    101195.29337653886     
 ph-check fcpertminus =    101195.26371526526     
(PID.TID 0000.0001) INI_CG2D: CG2D normalisation factor =  1.9156564154949553E-04
(PID.TID 0000.0001) INI_CG2D: cg2dTolerance = 5.809016360175296E-07 (Area=3.6388673751E+14)
(PID.TID 0000.0001) 
(PID.TID 0000.0001)  nRecords = 123 ; filePrec =  64 ; fileIter =     72000
(PID.TID 0000.0001)     nDims =   2 , dims:
(PID.TID 0000.0001)    1: 192   1 192
(PID.TID 0000.0001)    2:  32   1  32
(PID.TID 0000.0001)     nFlds =  11 , nFl3D =   8 , fields:
(PID.TID 0000.0001)  >Uvel    < >GuNm1   < >Vvel    < >GvNm1   < >Theta   < >GtNm1   < >Salt    < >GsNm1   < >EtaN    < >dEtaHdt < >EtaH    <
(PID.TID 0000.0001)   nTimRec =   0 , timeList:
(PID.TID 0000.0001) READ_MFLDS_3D_RL: read field: "Uvel    ", #   1 in fldList, rec=   1
(PID.TID 0000.0001) READ_MFLDS_3D_RL: read field: "Vvel    ", #   3 in fldList, rec=   3
(PID.TID 0000.0001) READ_MFLDS_3D_RL: read field: "Theta   ", #   5 in fldList, rec=   5
(PID.TID 0000.0001) READ_MFLDS_3D_RL: read field: "Salt    ", #   7 in fldList, rec=   7
(PID.TID 0000.0001) READ_MFLDS_3D_RL: read field: "GuNm1   ", #   2 in fldList, rec=   2
(PID.TID 0000.0001) READ_MFLDS_3D_RL: field: "GuNm2   " missing in file: pickup.0000072000
(PID.TID 0000.0001) READ_MFLDS_3D_RL: read field: "GvNm1   ", #   4 in fldList, rec=   4
(PID.TID 0000.0001) READ_MFLDS_3D_RL: field: "GvNm2   " missing in file: pickup.0000072000
(PID.TID 0000.0001) READ_MFLDS_3D_RL: read field: "EtaN    ", #   9 in fldList, rec= 121
(PID.TID 0000.0001) READ_MFLDS_3D_RL: read field: "dEtaHdt ", #  10 in fldList, rec= 122
(PID.TID 0000.0001) READ_MFLDS_3D_RL: read field: "EtaH    ", #  11 in fldList, rec= 123
(PID.TID 0000.0001) // =======================================================
(PID.TID 0000.0001) // Model current state
(PID.TID 0000.0001) // =======================================================
(PID.TID 0000.0001) 
 EXTERNAL_FIELDS_LOAD, it=     72000 : Reading new data, i0,i1=   12    1 (prev=   12    0 )
(PID.TID 0000.0001) SOLVE_FOR_PRESSURE: putPmEinXvector =    F
 cg2d: Sum(rhs),rhsMax =  -9.66338120633736E-12  4.27829651258201E+00
 cg2d: Sum(rhs),rhsMax =  -9.57811607804615E-12  4.27316012236889E+00
 cg2d: Sum(rhs),rhsMax =  -9.49285094975494E-12  4.26762372435599E+00
 cg2d: Sum(rhs),rhsMax =  -9.57811607804615E-12  4.26250700484418E+00
 cg2d: Sum(rhs),rhsMax =  -9.49285094975494E-12  4.25770388894066E+00
 cg2d: Sum(rhs),rhsMax =  -9.54969436861575E-12  4.25319685341460E+00
 cg2d: Sum(rhs),rhsMax =  -9.74864633462857E-12  4.24900188439991E+00
 cg2d: Sum(rhs),rhsMax =  -9.49285094975494E-12  4.24513385956114E+00
 cg2d: Sum(rhs),rhsMax =  -9.49285094975494E-12  4.24159888844761E+00
 cg2d: Sum(rhs),rhsMax =  -9.60653778747655E-12  4.23840119272556E+00
 cg2d: Sum(rhs),rhsMax =  -9.46442924032453E-12  4.23553911791698E+00
 cg2d: Sum(rhs),rhsMax =  -9.69180291576777E-12  4.23300291095818E+00
 cg2d: Sum(rhs),rhsMax =  -9.66338120633736E-12  4.23077338588500E+00
 cg2d: Sum(rhs),rhsMax =  -9.69180291576777E-12  4.22882246780273E+00
 cg2d: Sum(rhs),rhsMax =  -9.43600753089413E-12  4.22711470997816E+00
 EXTERNAL_FIELDS_LOAD, it=     72015 : Reading new data, i0,i1=    1    2 (prev=   12    1 )
 cg2d: Sum(rhs),rhsMax =  -9.77706804405898E-12  4.22560898193716E+00
 cg2d: Sum(rhs),rhsMax =  -9.57811607804615E-12  4.22414669422438E+00
 cg2d: Sum(rhs),rhsMax =  -9.57811607804615E-12  4.22297627592815E+00
 cg2d: Sum(rhs),rhsMax =  -9.32232069317251E-12  4.22179769579503E+00
 cg2d: Sum(rhs),rhsMax =  -9.46442924032453E-12  4.22066224884584E+00
(PID.TID 0000.0001) Did not write pickup because writePickupAtEnd = FALSE
 --> f_ice     = 0.000000000000000D+00
 --> f_smrarea = 0.000000000000000D+00
 --> f_smrarea = 0.000000000000000D+00
 --> f_smrarea = 0.000000000000000D+00
 --> objf_test(bi,bj)   =  0.118456287433047D+05
 --> objf_tracer(bi,bj) =  0.000000000000000D+00
 --> objf_atl(bi,bj)    =  0.000000000000000D+00
 --> objf_test(bi,bj)   =  0.952598726232083D+04
 --> objf_tracer(bi,bj) =  0.000000000000000D+00
 --> objf_atl(bi,bj)    =  0.000000000000000D+00
 --> objf_test(bi,bj)   =  0.694500755497453D+04
 --> objf_tracer(bi,bj) =  0.000000000000000D+00
 --> objf_atl(bi,bj)    =  0.000000000000000D+00
 --> objf_test(bi,bj)   =  0.454206357569771D+04
 --> objf_tracer(bi,bj) =  0.000000000000000D+00
 --> objf_atl(bi,bj)    =  0.000000000000000D+00
 --> objf_test(bi,bj)   =  0.460173821219595D+04
 --> objf_tracer(bi,bj) =  0.000000000000000D+00
 --> objf_atl(bi,bj)    =  0.000000000000000D+00
 --> objf_test(bi,bj)   =  0.135687787178278D+05
 --> objf_tracer(bi,bj) =  0.000000000000000D+00
 --> objf_atl(bi,bj)    =  0.000000000000000D+00
 --> objf_test(bi,bj)   =  0.116265114389077D+05
 --> objf_tracer(bi,bj) =  0.000000000000000D+00
 --> objf_atl(bi,bj)    =  0.000000000000000D+00
 --> objf_test(bi,bj)   =  0.115335485589612D+05
 --> objf_tracer(bi,bj) =  0.000000000000000D+00
 --> objf_atl(bi,bj)    =  0.000000000000000D+00
 --> objf_test(bi,bj)   =  0.727554323625122D+04
 --> objf_tracer(bi,bj) =  0.000000000000000D+00
 --> objf_atl(bi,bj)    =  0.000000000000000D+00
 --> objf_test(bi,bj)   =  0.725992690968002D+04
 --> objf_tracer(bi,bj) =  0.000000000000000D+00
 --> objf_atl(bi,bj)    =  0.000000000000000D+00
 --> objf_test(bi,bj)   =  0.580655750951094D+04
 --> objf_tracer(bi,bj) =  0.000000000000000D+00
 --> objf_atl(bi,bj)    =  0.000000000000000D+00
 --> objf_test(bi,bj)   =  0.666394237789256D+04
 --> objf_tracer(bi,bj) =  0.000000000000000D+00
 --> objf_atl(bi,bj)    =  0.000000000000000D+00
  local fc =  0.101195234097525D+06
 global fc =  0.101195234097525D+06
grad-res -------------------------------
 grad-res     0    4    4    1    1    1    1    1   1.01195263715E+05  1.01195293377E+05  1.01195234098E+05
 grad-res     0    4    4    4    0    1    1    1   2.96386123328E+00  2.96395068654E+00 -3.01813241095E-05
(PID.TID 0000.0001)  ADM  ref_cost_function      =  1.01195263715265E+05
(PID.TID 0000.0001)  ADM  adjoint_gradient       =  2.96386123327860E+00
(PID.TID 0000.0001)  ADM  finite-diff_grad       =  2.96395068653510E+00
 ph-grd  ierr ---------------------------
 ph-grd  ierr =            0 , icomp =            4 , ichknum =            4
(PID.TID 0000.0001) 
(PID.TID 0000.0001) // =======================================================
(PID.TID 0000.0001) // Gradient check results  >>> START <<<
(PID.TID 0000.0001) // =======================================================
(PID.TID 0000.0001) 
(PID.TID 0000.0001)  EPS =   1.000000E-02
(PID.TID 0000.0001) 
(PID.TID 0000.0001) grdchk output h.p:  Id Itile Jtile LAYER   bi   bj   X(Id)           X(Id)+/-EPS
(PID.TID 0000.0001) grdchk output h.c:  Id  FC                   FC1                  FC2
(PID.TID 0000.0001) grdchk output h.g:  Id     FC1-FC2/(2*EPS)      ADJ GRAD(FC)         1-FDGRD/ADGRD
(PID.TID 0000.0001) 
(PID.TID 0000.0001) grdchk output (p):   1     1     1     1    1    1   0.000000000E+00 -1.000000000E-02
(PID.TID 0000.0001) grdchk output (c):   1  1.0119526371527E+05  1.0119529671264E+05  1.0119523074512E+05
(PID.TID 0000.0001) grdchk output (g):   1     3.2983763449010E+00  3.2981673422018E+00 -6.3369343498376E-05
(PID.TID 0000.0001) 
(PID.TID 0000.0001) grdchk output (p):   2     2     1     1    1    1   0.000000000E+00 -1.000000000E-02
(PID.TID 0000.0001) grdchk output (c):   2  1.0119526371527E+05  1.0119530108384E+05  1.0119522638123E+05
(PID.TID 0000.0001) grdchk output (g):   2     3.7351309118094E+00  3.7350646377656E+00 -1.7743747484644E-05
(PID.TID 0000.0001) 
(PID.TID 0000.0001) grdchk output (p):   3     3     1     1    1    1   0.000000000E+00 -1.000000000E-02
(PID.TID 0000.0001) grdchk output (c):   3  1.0119526371527E+05  1.0119529769852E+05  1.0119522974525E+05
(PID.TID 0000.0001) grdchk output (g):   3     3.3976637016167E+00  3.3988014452325E+00  3.3474847946580E-04
(PID.TID 0000.0001) 
(PID.TID 0000.0001) grdchk output (p):   4     4     1     1    1    1   0.000000000E+00 -1.000000000E-02
(PID.TID 0000.0001) grdchk output (c):   4  1.0119526371527E+05  1.0119529337654E+05  1.0119523409753E+05
(PID.TID 0000.0001) grdchk output (g):   4     2.9639506865351E+00  2.9638612332786E+00 -3.0181324109479E-05
(PID.TID 0000.0001) 
(PID.TID 0000.0001) // =======================================================
(PID.TID 0000.0001) // Gradient check results  >>> END <<<
(PID.TID 0000.0001) // =======================================================
(PID.TID 0000.0001) 
(PID.TID 0000.0001)   Seconds in section "ALL                    [THE_MODEL_MAIN]":
(PID.TID 0000.0001)           User time:   669.75999999999999
(PID.TID 0000.0001)         System time:   2.3000000000000003
(PID.TID 0000.0001)     Wall clock time:   674.52279591560364
(PID.TID 0000.0001)          No. starts:           1
(PID.TID 0000.0001)           No. stops:           1
(PID.TID 0000.0001)   Seconds in section "INITIALISE_FIXED       [THE_MODEL_MAIN]":
(PID.TID 0000.0001)           User time:  0.35999999999999999
(PID.TID 0000.0001)         System time:  5.00000000000000028E-002
(PID.TID 0000.0001)     Wall clock time:  0.43881893157958984
(PID.TID 0000.0001)          No. starts:           1
(PID.TID 0000.0001)           No. stops:           1
(PID.TID 0000.0001)   Seconds in section "ADTHE_MAIN_LOOP          [ADJOINT RUN]":
(PID.TID 0000.0001)           User time:   340.49000000000001
(PID.TID 0000.0001)         System time:   1.9600000000000002
(PID.TID 0000.0001)     Wall clock time:   344.09203791618347
(PID.TID 0000.0001)          No. starts:           1
(PID.TID 0000.0001)           No. stops:           1
(PID.TID 0000.0001)   Seconds in section "UPDATE_R_STAR       [FORWARD_STEP]":
(PID.TID 0000.0001)           User time:   12.190000000000055
(PID.TID 0000.0001)         System time:  9.99999999999978684E-003
(PID.TID 0000.0001)     Wall clock time:   12.185743808746338
(PID.TID 0000.0001)          No. starts:         400
(PID.TID 0000.0001)           No. stops:         400
(PID.TID 0000.0001)   Seconds in section "LOAD_FIELDS_DRIVER  [FORWARD_STEP]":
(PID.TID 0000.0001)           User time:  0.73999999999978172
(PID.TID 0000.0001)         System time:  2.00000000000000178E-002
(PID.TID 0000.0001)     Wall clock time:   1.1868197917938232
(PID.TID 0000.0001)          No. starts:         200
(PID.TID 0000.0001)           No. stops:         200
(PID.TID 0000.0001)   Seconds in section "EXTERNAL_FLDS_LOAD [LOAD_FLDS_DRIVER]":
(PID.TID 0000.0001)           User time:  0.79999999999972715
(PID.TID 0000.0001)         System time:  2.00000000000000178E-002
(PID.TID 0000.0001)     Wall clock time:   1.2587897777557373
(PID.TID 0000.0001)          No. starts:         220
(PID.TID 0000.0001)           No. stops:         220
(PID.TID 0000.0001)   Seconds in section "I/O (WRITE)        [ADJOINT LOOP]":
(PID.TID 0000.0001)           User time:   2.2999999999999545
(PID.TID 0000.0001)         System time:  0.24999999999999956
(PID.TID 0000.0001)     Wall clock time:   2.6769261360168457
(PID.TID 0000.0001)          No. starts:         340
(PID.TID 0000.0001)           No. stops:         340
(PID.TID 0000.0001)   Seconds in section "DO_ATMOSPHERIC_PHYS [FORWARD_STEP]":
(PID.TID 0000.0001)           User time:   0.0000000000000000
(PID.TID 0000.0001)         System time:   0.0000000000000000
(PID.TID 0000.0001)     Wall clock time:  1.83963775634765625E-003
(PID.TID 0000.0001)          No. starts:         200
(PID.TID 0000.0001)           No. stops:         200
(PID.TID 0000.0001)   Seconds in section "DO_OCEANIC_PHYS     [FORWARD_STEP]":
(PID.TID 0000.0001)           User time:   59.549999999999955
(PID.TID 0000.0001)         System time:  6.00000000000000533E-002
(PID.TID 0000.0001)     Wall clock time:   59.727671146392822
(PID.TID 0000.0001)          No. starts:         200
(PID.TID 0000.0001)           No. stops:         200
(PID.TID 0000.0001)   Seconds in section "DYNAMICS            [FORWARD_STEP]":
(PID.TID 0000.0001)           User time:   114.10999999999956
(PID.TID 0000.0001)         System time:  7.00000000000002842E-002
(PID.TID 0000.0001)     Wall clock time:   114.49807333946228
(PID.TID 0000.0001)          No. starts:         200
(PID.TID 0000.0001)           No. stops:         200
(PID.TID 0000.0001)   Seconds in section "SOLVE_FOR_PRESSURE  [FORWARD_STEP]":
(PID.TID 0000.0001)           User time:   35.830000000000496
(PID.TID 0000.0001)         System time:   0.0000000000000000
(PID.TID 0000.0001)     Wall clock time:   36.002770423889160
(PID.TID 0000.0001)          No. starts:         200
(PID.TID 0000.0001)           No. stops:         200
(PID.TID 0000.0001)   Seconds in section "MOM_CORRECTION_STEP [FORWARD_STEP]":
(PID.TID 0000.0001)           User time:   3.1599999999999682
(PID.TID 0000.0001)         System time:  3.00000000000002487E-002
(PID.TID 0000.0001)     Wall clock time:   3.0210282802581787
(PID.TID 0000.0001)          No. starts:         200
(PID.TID 0000.0001)           No. stops:         200
(PID.TID 0000.0001)   Seconds in section "INTEGR_CONTINUITY   [FORWARD_STEP]":
(PID.TID 0000.0001)           User time:   6.9399999999999409
(PID.TID 0000.0001)         System time:  9.99999999999978684E-003
(PID.TID 0000.0001)     Wall clock time:   7.1088666915893555
(PID.TID 0000.0001)          No. starts:         200
(PID.TID 0000.0001)           No. stops:         200
(PID.TID 0000.0001)   Seconds in section "CALC_R_STAR         [FORWARD_STEP]":
(PID.TID 0000.0001)           User time:   1.3999999999999773
(PID.TID 0000.0001)         System time:   0.0000000000000000
(PID.TID 0000.0001)     Wall clock time:   1.3215484619140625
(PID.TID 0000.0001)          No. starts:         200
(PID.TID 0000.0001)           No. stops:         200
(PID.TID 0000.0001)   Seconds in section "BLOCKING_EXCHANGES  [FORWARD_STEP]":
(PID.TID 0000.0001)           User time:   8.6699999999999591
(PID.TID 0000.0001)         System time:   0.0000000000000000
(PID.TID 0000.0001)     Wall clock time:   8.5968325138092041
(PID.TID 0000.0001)          No. starts:         400
(PID.TID 0000.0001)           No. stops:         400
(PID.TID 0000.0001)   Seconds in section "THERMODYNAMICS      [FORWARD_STEP]":
(PID.TID 0000.0001)           User time:   151.00999999999908
(PID.TID 0000.0001)         System time:  7.00000000000007283E-002
(PID.TID 0000.0001)     Wall clock time:   151.51104569435120
(PID.TID 0000.0001)          No. starts:         200
(PID.TID 0000.0001)           No. stops:         200
(PID.TID 0000.0001)   Seconds in section "TRC_CORRECTION_STEP [FORWARD_STEP]":
(PID.TID 0000.0001)           User time:   1.5100000000002183
(PID.TID 0000.0001)         System time:   0.0000000000000000
(PID.TID 0000.0001)     Wall clock time:   1.5703096389770508
(PID.TID 0000.0001)          No. starts:         200
(PID.TID 0000.0001)           No. stops:         200
(PID.TID 0000.0001)   Seconds in section "MONITOR             [FORWARD_STEP]":
(PID.TID 0000.0001)           User time:   3.2099999999999227
(PID.TID 0000.0001)         System time:   0.0000000000000000
(PID.TID 0000.0001)     Wall clock time:   3.2641563415527344
(PID.TID 0000.0001)          No. starts:         200
(PID.TID 0000.0001)           No. stops:         200
(PID.TID 0000.0001)   Seconds in section "COST_TILE           [FORWARD_STEP]":
(PID.TID 0000.0001)           User time:   5.5799999999999272
(PID.TID 0000.0001)         System time:  9.99999999999978684E-003
(PID.TID 0000.0001)     Wall clock time:   5.5698115825653076
(PID.TID 0000.0001)          No. starts:         200
(PID.TID 0000.0001)           No. stops:         200
(PID.TID 0000.0001)   Seconds in section "DO_THE_MODEL_IO     [FORWARD_STEP]":
(PID.TID 0000.0001)           User time:  0.80000000000006821
(PID.TID 0000.0001)         System time:  0.12000000000000011
(PID.TID 0000.0001)     Wall clock time:   1.1197972297668457
(PID.TID 0000.0001)          No. starts:         200
(PID.TID 0000.0001)           No. stops:         200
(PID.TID 0000.0001)   Seconds in section "DO_WRITE_PICKUP     [FORWARD_STEP]":
(PID.TID 0000.0001)           User time:  7.00000000000500222E-002
(PID.TID 0000.0001)         System time:   0.0000000000000000
(PID.TID 0000.0001)     Wall clock time:  5.95366954803466797E-002
(PID.TID 0000.0001)          No. starts:         200
(PID.TID 0000.0001)           No. stops:         200
(PID.TID 0000.0001)   Seconds in section "GRDCHK_MAIN         [THE_MODEL_MAIN]":
(PID.TID 0000.0001)           User time:   328.90999999999997
(PID.TID 0000.0001)         System time:  0.29000000000000004
(PID.TID 0000.0001)     Wall clock time:   329.99187493324280
(PID.TID 0000.0001)          No. starts:           1
(PID.TID 0000.0001)           No. stops:           1
(PID.TID 0000.0001)   Seconds in section "INITIALISE_VARIA    [THE_MAIN_LOOP]":
(PID.TID 0000.0001)           User time:   3.1599999999999682
(PID.TID 0000.0001)         System time:  6.00000000000000533E-002
(PID.TID 0000.0001)     Wall clock time:   3.2203671932220459
(PID.TID 0000.0001)          No. starts:           8
(PID.TID 0000.0001)           No. stops:           8
(PID.TID 0000.0001)   Seconds in section "MAIN LOOP           [THE_MAIN_LOOP]":
(PID.TID 0000.0001)           User time:   325.51000000000010
(PID.TID 0000.0001)         System time:  0.22000000000000020
(PID.TID 0000.0001)     Wall clock time:   326.50418710708618
(PID.TID 0000.0001)          No. starts:           8
(PID.TID 0000.0001)           No. stops:           8
(PID.TID 0000.0001)   Seconds in section "FORWARD_STEP        [THE_MAIN_LOOP]":
(PID.TID 0000.0001)           User time:   320.60999999999910
(PID.TID 0000.0001)         System time:  0.22000000000000020
(PID.TID 0000.0001)     Wall clock time:   321.59711694717407
(PID.TID 0000.0001)          No. starts:         160
(PID.TID 0000.0001)           No. stops:         160
(PID.TID 0000.0001)   Seconds in section "COST_FINAL         [ADJOINT SPIN-DOWN]":
(PID.TID 0000.0001)           User time:  9.00000000001455192E-002
(PID.TID 0000.0001)         System time:   0.0000000000000000
(PID.TID 0000.0001)     Wall clock time:  9.18946266174316406E-002
(PID.TID 0000.0001)          No. starts:           8
(PID.TID 0000.0001)           No. stops:           8
(PID.TID 0000.0001) // ======================================================
(PID.TID 0000.0001) // Tile <-> Tile communication statistics
(PID.TID 0000.0001) // ======================================================
(PID.TID 0000.0001) // o Tile number: 000001
(PID.TID 0000.0001) //         No. X exchanges =              0
(PID.TID 0000.0001) //            Max. X spins =              0
(PID.TID 0000.0001) //            Min. X spins =     1000000000
(PID.TID 0000.0001) //          Total. X spins =              0
(PID.TID 0000.0001) //            Avg. X spins =       0.00E+00
(PID.TID 0000.0001) //         No. Y exchanges =              0
(PID.TID 0000.0001) //            Max. Y spins =              0
(PID.TID 0000.0001) //            Min. Y spins =     1000000000
(PID.TID 0000.0001) //          Total. Y spins =              0
(PID.TID 0000.0001) //            Avg. Y spins =       0.00E+00
(PID.TID 0000.0001) // o Tile number: 000002
(PID.TID 0000.0001) //         No. X exchanges =              0
(PID.TID 0000.0001) //            Max. X spins =              0
(PID.TID 0000.0001) //            Min. X spins =     1000000000
(PID.TID 0000.0001) //          Total. X spins =              0
(PID.TID 0000.0001) //            Avg. X spins =       0.00E+00
(PID.TID 0000.0001) //         No. Y exchanges =              0
(PID.TID 0000.0001) //            Max. Y spins =              0
(PID.TID 0000.0001) //            Min. Y spins =     1000000000
(PID.TID 0000.0001) //          Total. Y spins =              0
(PID.TID 0000.0001) //            Avg. Y spins =       0.00E+00
(PID.TID 0000.0001) // o Tile number: 000003
(PID.TID 0000.0001) //         No. X exchanges =              0
(PID.TID 0000.0001) //            Max. X spins =              0
(PID.TID 0000.0001) //            Min. X spins =     1000000000
(PID.TID 0000.0001) //          Total. X spins =              0
(PID.TID 0000.0001) //            Avg. X spins =       0.00E+00
(PID.TID 0000.0001) //         No. Y exchanges =              0
(PID.TID 0000.0001) //            Max. Y spins =              0
(PID.TID 0000.0001) //            Min. Y spins =     1000000000
(PID.TID 0000.0001) //          Total. Y spins =              0
(PID.TID 0000.0001) //            Avg. Y spins =       0.00E+00
(PID.TID 0000.0001) // o Tile number: 000004
(PID.TID 0000.0001) //         No. X exchanges =              0
(PID.TID 0000.0001) //            Max. X spins =              0
(PID.TID 0000.0001) //            Min. X spins =     1000000000
(PID.TID 0000.0001) //          Total. X spins =              0
(PID.TID 0000.0001) //            Avg. X spins =       0.00E+00
(PID.TID 0000.0001) //         No. Y exchanges =              0
(PID.TID 0000.0001) //            Max. Y spins =              0
(PID.TID 0000.0001) //            Min. Y spins =     1000000000
(PID.TID 0000.0001) //          Total. Y spins =              0
(PID.TID 0000.0001) //            Avg. Y spins =       0.00E+00
(PID.TID 0000.0001) // o Tile number: 000005
(PID.TID 0000.0001) //         No. X exchanges =              0
(PID.TID 0000.0001) //            Max. X spins =              0
(PID.TID 0000.0001) //            Min. X spins =     1000000000
(PID.TID 0000.0001) //          Total. X spins =              0
(PID.TID 0000.0001) //            Avg. X spins =       0.00E+00
(PID.TID 0000.0001) //         No. Y exchanges =              0
(PID.TID 0000.0001) //            Max. Y spins =              0
(PID.TID 0000.0001) //            Min. Y spins =     1000000000
(PID.TID 0000.0001) //          Total. Y spins =              0
(PID.TID 0000.0001) //            Avg. Y spins =       0.00E+00
(PID.TID 0000.0001) // o Tile number: 000006
(PID.TID 0000.0001) //         No. X exchanges =              0
(PID.TID 0000.0001) //            Max. X spins =              0
(PID.TID 0000.0001) //            Min. X spins =     1000000000
(PID.TID 0000.0001) //          Total. X spins =              0
(PID.TID 0000.0001) //            Avg. X spins =       0.00E+00
(PID.TID 0000.0001) //         No. Y exchanges =              0
(PID.TID 0000.0001) //            Max. Y spins =              0
(PID.TID 0000.0001) //            Min. Y spins =     1000000000
(PID.TID 0000.0001) //          Total. Y spins =              0
(PID.TID 0000.0001) //            Avg. Y spins =       0.00E+00
(PID.TID 0000.0001) // o Tile number: 000007
(PID.TID 0000.0001) //         No. X exchanges =              0
(PID.TID 0000.0001) //            Max. X spins =              0
(PID.TID 0000.0001) //            Min. X spins =     1000000000
(PID.TID 0000.0001) //          Total. X spins =              0
(PID.TID 0000.0001) //            Avg. X spins =       0.00E+00
(PID.TID 0000.0001) //         No. Y exchanges =              0
(PID.TID 0000.0001) //            Max. Y spins =              0
(PID.TID 0000.0001) //            Min. Y spins =     1000000000
(PID.TID 0000.0001) //          Total. Y spins =              0
(PID.TID 0000.0001) //            Avg. Y spins =       0.00E+00
(PID.TID 0000.0001) // o Tile number: 000008
(PID.TID 0000.0001) //         No. X exchanges =              0
(PID.TID 0000.0001) //            Max. X spins =              0
(PID.TID 0000.0001) //            Min. X spins =     1000000000
(PID.TID 0000.0001) //          Total. X spins =              0
(PID.TID 0000.0001) //            Avg. X spins =       0.00E+00
(PID.TID 0000.0001) //         No. Y exchanges =              0
(PID.TID 0000.0001) //            Max. Y spins =              0
(PID.TID 0000.0001) //            Min. Y spins =     1000000000
(PID.TID 0000.0001) //          Total. Y spins =              0
(PID.TID 0000.0001) //            Avg. Y spins =       0.00E+00
(PID.TID 0000.0001) // o Tile number: 000009
(PID.TID 0000.0001) //         No. X exchanges =              0
(PID.TID 0000.0001) //            Max. X spins =              0
(PID.TID 0000.0001) //            Min. X spins =     1000000000
(PID.TID 0000.0001) //          Total. X spins =              0
(PID.TID 0000.0001) //            Avg. X spins =       0.00E+00
(PID.TID 0000.0001) //         No. Y exchanges =              0
(PID.TID 0000.0001) //            Max. Y spins =              0
(PID.TID 0000.0001) //            Min. Y spins =     1000000000
(PID.TID 0000.0001) //          Total. Y spins =              0
(PID.TID 0000.0001) //            Avg. Y spins =       0.00E+00
(PID.TID 0000.0001) // o Tile number: 000010
(PID.TID 0000.0001) //         No. X exchanges =              0
(PID.TID 0000.0001) //            Max. X spins =              0
(PID.TID 0000.0001) //            Min. X spins =     1000000000
(PID.TID 0000.0001) //          Total. X spins =              0
(PID.TID 0000.0001) //            Avg. X spins =       0.00E+00
(PID.TID 0000.0001) //         No. Y exchanges =              0
(PID.TID 0000.0001) //            Max. Y spins =              0
(PID.TID 0000.0001) //            Min. Y spins =     1000000000
(PID.TID 0000.0001) //          Total. Y spins =              0
(PID.TID 0000.0001) //            Avg. Y spins =       0.00E+00
(PID.TID 0000.0001) // o Tile number: 000011
(PID.TID 0000.0001) //         No. X exchanges =              0
(PID.TID 0000.0001) //            Max. X spins =              0
(PID.TID 0000.0001) //            Min. X spins =     1000000000
(PID.TID 0000.0001) //          Total. X spins =              0
(PID.TID 0000.0001) //            Avg. X spins =       0.00E+00
(PID.TID 0000.0001) //         No. Y exchanges =              0
(PID.TID 0000.0001) //            Max. Y spins =              0
(PID.TID 0000.0001) //            Min. Y spins =     1000000000
(PID.TID 0000.0001) //          Total. Y spins =              0
(PID.TID 0000.0001) //            Avg. Y spins =       0.00E+00
(PID.TID 0000.0001) // o Tile number: 000012
(PID.TID 0000.0001) //         No. X exchanges =              0
(PID.TID 0000.0001) //            Max. X spins =              0
(PID.TID 0000.0001) //            Min. X spins =     1000000000
(PID.TID 0000.0001) //          Total. X spins =              0
(PID.TID 0000.0001) //            Avg. X spins =       0.00E+00
(PID.TID 0000.0001) //         No. Y exchanges =              0
(PID.TID 0000.0001) //            Max. Y spins =              0
(PID.TID 0000.0001) //            Min. Y spins =     1000000000
(PID.TID 0000.0001) //          Total. Y spins =              0
(PID.TID 0000.0001) //            Avg. Y spins =       0.00E+00
(PID.TID 0000.0001) // o Thread number: 000001
(PID.TID 0000.0001) //            No. barriers =         183308
(PID.TID 0000.0001) //      Max. barrier spins =              1
(PID.TID 0000.0001) //      Min. barrier spins =              1
(PID.TID 0000.0001) //     Total barrier spins =         183308
(PID.TID 0000.0001) //      Avg. barrier spins =       1.00E+00
PROGRAM MAIN: Execution ended Normally
