(PID.TID 0000.0001) 
(PID.TID 0000.0001) // ======================================================
(PID.TID 0000.0001) //                      MITgcm UV
(PID.TID 0000.0001) //                      =========
(PID.TID 0000.0001) // ======================================================
(PID.TID 0000.0001) // execution environment starting up...
(PID.TID 0000.0001) 
(PID.TID 0000.0001) // MITgcmUV version:  checkpoint66f
(PID.TID 0000.0001) // Build user:        jmc
(PID.TID 0000.0001) // Build host:        baudelaire
(PID.TID 0000.0001) // Build date:        Tue Apr 11 13:24:54 EDT 2017
(PID.TID 0000.0001) 
(PID.TID 0000.0001) // =======================================================
(PID.TID 0000.0001) // Execution Environment parameter file "eedata"
(PID.TID 0000.0001) // =======================================================
(PID.TID 0000.0001) ># Example "eedata" file
(PID.TID 0000.0001) ># Lines beginning "#" are comments
(PID.TID 0000.0001) ># nTx - No. threads per process in X
(PID.TID 0000.0001) ># nTy - No. threads per process in Y
(PID.TID 0000.0001) > &EEPARMS
(PID.TID 0000.0001) > useCubedSphereExchange=.TRUE.,
(PID.TID 0000.0001) > nTx=1,
(PID.TID 0000.0001) > nTy=1,
(PID.TID 0000.0001) > /
(PID.TID 0000.0001) ># Note: Some systems use & as the
(PID.TID 0000.0001) ># namelist terminator. Other systems
(PID.TID 0000.0001) ># use a / character (as shown here).
(PID.TID 0000.0001) 
(PID.TID 0000.0001) // =======================================================
(PID.TID 0000.0001) // Computational Grid Specification ( see files "SIZE.h" )
(PID.TID 0000.0001) //                                  ( and "eedata"       )
(PID.TID 0000.0001) // =======================================================
(PID.TID 0000.0001)      nPx =    1 ; /* No. processes in X */
(PID.TID 0000.0001)      nPy =    1 ; /* No. processes in Y */
(PID.TID 0000.0001)      nSx =   12 ; /* No. tiles in X per process */
(PID.TID 0000.0001)      nSy =    1 ; /* No. tiles in Y per process */
(PID.TID 0000.0001)      sNx =   32 ; /* Tile size in X */
(PID.TID 0000.0001)      sNy =   16 ; /* Tile size in Y */
(PID.TID 0000.0001)      OLx =    4 ; /* Tile overlap distance in X */
(PID.TID 0000.0001)      OLy =    4 ; /* Tile overlap distance in Y */
(PID.TID 0000.0001)      nTx =    1 ; /* No. threads in X per process */
(PID.TID 0000.0001)      nTy =    1 ; /* No. threads in Y per process */
(PID.TID 0000.0001)       Nr =   15 ; /* No. levels in the vertical   */
(PID.TID 0000.0001)       Nx =  384 ; /* Total domain size in X ( = nPx*nSx*sNx ) */
(PID.TID 0000.0001)       Ny =   16 ; /* Total domain size in Y ( = nPy*nSy*sNy ) */
(PID.TID 0000.0001)   nTiles =   12 ; /* Total no. tiles per process ( = nSx*nSy ) */
(PID.TID 0000.0001)   nProcs =    1 ; /* Total no. processes ( = nPx*nPy ) */
(PID.TID 0000.0001) nThreads =    1 ; /* Total no. threads per process ( = nTx*nTy ) */
(PID.TID 0000.0001) usingMPI =    F ; /* Flag used to control whether MPI is in use */
(PID.TID 0000.0001)                   /*  note: To execute a program with MPI calls */
(PID.TID 0000.0001)                   /*  it must be launched appropriately e.g     */
(PID.TID 0000.0001)                   /*  "mpirun -np 64 ......"                    */
(PID.TID 0000.0001) useCoupler=    F ;/* Flag used to control communications with   */
(PID.TID 0000.0001)                   /*  other model components, through a coupler */
(PID.TID 0000.0001) debugMode =    F ; /* print debug msg. (sequence of S/R calls)  */
(PID.TID 0000.0001) printMapIncludesZeros=    F ; /* print zeros in Std.Output maps */
(PID.TID 0000.0001) maxLengthPrt1D=   65 /* maxLength of 1D array printed to StdOut */
(PID.TID 0000.0001) 
(PID.TID 0000.0001) // ======================================================
(PID.TID 0000.0001) // Mapping of tiles to threads
(PID.TID 0000.0001) // ======================================================
(PID.TID 0000.0001) // -o- Thread   1, tiles (   1:  12,   1:   1)
(PID.TID 0000.0001) 
(PID.TID 0000.0001) W2_READPARMS: file data.exch2 not found
(PID.TID 0000.0001) => use W2_EXCH2 default: regular 6-facets Cube
(PID.TID 0000.0001) W2_useE2ioLayOut=    T ;/* T: use Exch2 glob IO map; F: use model default */
(PID.TID 0000.0001) W2_mapIO        =  -1 ; /* select option for Exch2 global-IO map */
(PID.TID 0000.0001) W2_printMsg     =  -1 ; /* select option for printing information */
(PID.TID 0000.0001) ===== Start setting W2 TOPOLOGY:
(PID.TID 0000.0001)  write to log-file: w2_tile_topology.0000.log
(PID.TID 0000.0001) =====       setting W2 TOPOLOGY: Done
(PID.TID 0000.0001) 
(PID.TID 0000.0001)  INI_PARMS: opening model parameter file "data"
(PID.TID 0000.0001)  OPEN_COPY_DATA_FILE: opening file data
(PID.TID 0000.0001) // =======================================================
(PID.TID 0000.0001) // Parameter file "data"
(PID.TID 0000.0001) // =======================================================
(PID.TID 0000.0001) ># ====================
(PID.TID 0000.0001) ># | Model parameters |
(PID.TID 0000.0001) ># ====================
(PID.TID 0000.0001) >#
(PID.TID 0000.0001) ># Continuous equation parameters
(PID.TID 0000.0001) > &PARM01
(PID.TID 0000.0001) > tRef=15*20.,
(PID.TID 0000.0001) > sRef=15*35.,
(PID.TID 0000.0001) > viscAh =3.E5,
(PID.TID 0000.0001) > viscAr =1.E-3,
(PID.TID 0000.0001) > diffKrT=3.E-5,
(PID.TID 0000.0001) > diffKrS=3.E-5,
(PID.TID 0000.0001) > ivdc_kappa=10.,
(PID.TID 0000.0001) > implicitDiffusion=.TRUE.,
(PID.TID 0000.0001) > gravity=9.81,
(PID.TID 0000.0001) > rhoConst=1035.,
(PID.TID 0000.0001) > rhoConstFresh=1000.,
(PID.TID 0000.0001) > eosType='JMD95Z',
(PID.TID 0000.0001) > staggerTimeStep=.TRUE.,
(PID.TID 0000.0001) > vectorInvariantMomentum=.TRUE.,
(PID.TID 0000.0001) > implicitFreeSurface=.TRUE.,
(PID.TID 0000.0001) > exactConserv=.TRUE.,
(PID.TID 0000.0001) > select_rStar=2,
(PID.TID 0000.0001) > nonlinFreeSurf=4,
(PID.TID 0000.0001) > hFacInf=0.2,
(PID.TID 0000.0001) > hFacSup=2.0,
(PID.TID 0000.0001) > useRealFreshWaterFlux=.TRUE.,
(PID.TID 0000.0001) > hFacMin=.1,
(PID.TID 0000.0001) > hFacMinDr=20.,
(PID.TID 0000.0001) >#- to check that it has no impact:
(PID.TID 0000.0001) > doResetHFactors=.TRUE.,
(PID.TID 0000.0001) >#tempAdvScheme=77,
(PID.TID 0000.0001) >#saltAdvScheme=77,
(PID.TID 0000.0001) > readBinaryPrec=64,
(PID.TID 0000.0001) > writeBinaryPrec=64,
(PID.TID 0000.0001) > useSingleCpuIO=.TRUE.,
(PID.TID 0000.0001) >#debugLevel = 2,
(PID.TID 0000.0001) > /
(PID.TID 0000.0001) >
(PID.TID 0000.0001) ># Elliptic solver parameters
(PID.TID 0000.0001) > &PARM02
(PID.TID 0000.0001) > cg2dMaxIters=200,
(PID.TID 0000.0001) >#cg2dTargetResidual=1.E-9,
(PID.TID 0000.0001) > cg2dTargetResWunit=1.E-14,
(PID.TID 0000.0001) > /
(PID.TID 0000.0001) >
(PID.TID 0000.0001) ># Time stepping parameters
(PID.TID 0000.0001) > &PARM03
(PID.TID 0000.0001) > nIter0=72000,
(PID.TID 0000.0001) > nTimeSteps=10,
(PID.TID 0000.0001) >#endTime=31104000.,
(PID.TID 0000.0001) > deltaTMom   =1200.,
(PID.TID 0000.0001) > deltaTtracer=86400.,
(PID.TID 0000.0001) > deltaTFreeSurf=86400.,
(PID.TID 0000.0001) > deltaTClock =86400.,
(PID.TID 0000.0001) > abEps = 0.1,
(PID.TID 0000.0001) > forcing_In_AB=.FALSE.,
(PID.TID 0000.0001) > pickupStrictlyMatch=.FALSE.,
(PID.TID 0000.0001) > pChkptFreq   =3110400000.,
(PID.TID 0000.0001) > chkptFreq    = 155520000.,
(PID.TID 0000.0001) >#tave_lastIter=0.,
(PID.TID 0000.0001) >#taveFreq     = 2592000.,
(PID.TID 0000.0001) >#dumpFreq     =  864000.,
(PID.TID 0000.0001) > monitorFreq  = 15552000.,
(PID.TID 0000.0001) > periodicExternalForcing=.TRUE.,
(PID.TID 0000.0001) > externForcingPeriod=2592000.,
(PID.TID 0000.0001) > externForcingCycle=31104000.,
(PID.TID 0000.0001) ># 6 months restoring timescale for temperature
(PID.TID 0000.0001) >#tauThetaClimRelax = 15552000.,
(PID.TID 0000.0001) ># 2 months restoring timescale for tsalinity
(PID.TID 0000.0001) >#tauSaltClimRelax = 5184000.,
(PID.TID 0000.0001) >#latBandClimRelax=60.,
(PID.TID 0000.0001) > monitorFreq =1.,
(PID.TID 0000.0001) > /
(PID.TID 0000.0001) >
(PID.TID 0000.0001) ># Gridding parameters
(PID.TID 0000.0001) > &PARM04
(PID.TID 0000.0001) > usingCurvilinearGrid=.TRUE.,
(PID.TID 0000.0001) > horizGridFile='grid_cs32',
(PID.TID 0000.0001) > radius_fromHorizGrid=6370.E3,
(PID.TID 0000.0001) > delR= 50., 70., 100., 140., 190.,
(PID.TID 0000.0001) >       240., 290., 340., 390., 440.,
(PID.TID 0000.0001) >       490., 540., 590., 640., 690.,
(PID.TID 0000.0001) > /
(PID.TID 0000.0001) >
(PID.TID 0000.0001) ># Input datasets
(PID.TID 0000.0001) > &PARM05
(PID.TID 0000.0001) > bathyFile      ='bathy_Hmin50.bin',
(PID.TID 0000.0001) > hydrogThetaFile='lev_T_cs_15k.bin',
(PID.TID 0000.0001) > hydrogSaltFile ='lev_S_cs_15k.bin',
(PID.TID 0000.0001) > /
(PID.TID 0000.0001) 
(PID.TID 0000.0001)  INI_PARMS ; starts to read PARM01
(PID.TID 0000.0001)  INI_PARMS ; read PARM01 : OK
(PID.TID 0000.0001)  INI_PARMS ; starts to read PARM02
(PID.TID 0000.0001)  INI_PARMS ; read PARM02 : OK
(PID.TID 0000.0001)  INI_PARMS ; starts to read PARM03
(PID.TID 0000.0001)  INI_PARMS ; read PARM03 : OK
(PID.TID 0000.0001)  INI_PARMS ; starts to read PARM04
(PID.TID 0000.0001)  INI_PARMS ; read PARM04 : OK
(PID.TID 0000.0001)  INI_PARMS ; starts to read PARM05
(PID.TID 0000.0001)  INI_PARMS ; read PARM05 : OK
(PID.TID 0000.0001)  INI_PARMS: finished reading file "data"
(PID.TID 0000.0001)  PACKAGES_BOOT: opening data.pkg
(PID.TID 0000.0001)  OPEN_COPY_DATA_FILE: opening file data.pkg
(PID.TID 0000.0001) // =======================================================
(PID.TID 0000.0001) // Parameter file "data.pkg"
(PID.TID 0000.0001) // =======================================================
(PID.TID 0000.0001) ># Packages
(PID.TID 0000.0001) > &PACKAGES
(PID.TID 0000.0001) > useGMRedi=.TRUE.,
(PID.TID 0000.0001) > useEXF   =.TRUE.,
(PID.TID 0000.0001) > useCAL   =.TRUE.,
(PID.TID 0000.0001) > useSEAICE=.TRUE.,
(PID.TID 0000.0001) > useDiagnostics=.TRUE.,
(PID.TID 0000.0001) >#useMNC = .TRUE.,
(PID.TID 0000.0001) > /
(PID.TID 0000.0001) 
(PID.TID 0000.0001)  PACKAGES_BOOT: finished reading data.pkg
(PID.TID 0000.0001)  PACKAGES_BOOT: On/Off package Summary
 --------  pkgs with a standard "usePKG" On/Off switch in "data.pkg":  --------
 pkg/gmredi               compiled   and   used ( useGMRedi                = T )
 pkg/cal                  compiled   and   used ( useCAL                   = T )
 pkg/exf                  compiled   and   used ( useEXF                   = T )
 pkg/bulk_force           compiled but not used ( useBulkForce             = F )
 pkg/seaice               compiled   and   used ( useSEAICE                = T )
 pkg/thsice               compiled but not used ( useThSIce                = F )
 pkg/diagnostics          compiled   and   used ( useDiagnostics           = T )
 pkg/mnc                  compiled but not used ( useMNC                   = F )
 -------- pkgs without standard "usePKG" On/Off switch in "data.pkg":  --------
 pkg/generic_advdiff      compiled   and   used ( useGAD                   = T )
 pkg/mom_common           compiled   and   used ( momStepping              = T )
 pkg/mom_vecinv           compiled   and   used ( +vectorInvariantMomentum = T )
 pkg/mom_fluxform         compiled but not used ( & not vectorInvariantMom = F )
 pkg/monitor              compiled   and   used ( monitorFreq > 0.         = T )
 pkg/timeave              compiled but not used ( taveFreq > 0.            = F )
 pkg/debug                compiled but not used ( debugMode                = F )
 pkg/exch2                compiled   and   used
 pkg/rw                   compiled   and   used
 pkg/mdsio                compiled   and   used
(PID.TID 0000.0001)  PACKAGES_BOOT: End of package Summary
(PID.TID 0000.0001) 
(PID.TID 0000.0001) CAL_READPARMS: opening data.cal
(PID.TID 0000.0001)  OPEN_COPY_DATA_FILE: opening file data.cal
(PID.TID 0000.0001) // =======================================================
(PID.TID 0000.0001) // Parameter file "data.cal"
(PID.TID 0000.0001) // =======================================================
(PID.TID 0000.0001) >#
(PID.TID 0000.0001) ># *******************
(PID.TID 0000.0001) ># Calendar Parameters
(PID.TID 0000.0001) ># *******************
(PID.TID 0000.0001) > &CAL_NML
(PID.TID 0000.0001) > TheCalendar='model',
(PID.TID 0000.0001) > startDate_1=00010101,
(PID.TID 0000.0001) > startDate_2=000000,
(PID.TID 0000.0001) > /
(PID.TID 0000.0001) 
(PID.TID 0000.0001) CAL_READPARMS: finished reading data.cal
(PID.TID 0000.0001) EXF_READPARMS: opening data.exf
(PID.TID 0000.0001)  OPEN_COPY_DATA_FILE: opening file data.exf
(PID.TID 0000.0001) // =======================================================
(PID.TID 0000.0001) // Parameter file "data.exf"
(PID.TID 0000.0001) // =======================================================
(PID.TID 0000.0001) ># *********************
(PID.TID 0000.0001) ># External Forcing Data
(PID.TID 0000.0001) ># *********************
(PID.TID 0000.0001) > &EXF_NML_01
(PID.TID 0000.0001) >#exf_debugLev      = 3,
(PID.TID 0000.0001) >#useExfCheckRange  = .TRUE.,
(PID.TID 0000.0001) >#useStabilityFct_overIce=.TRUE.,
(PID.TID 0000.0001) >#snow_emissivity   = 0.98,
(PID.TID 0000.0001) >#ice_emissivity    = 0.98,
(PID.TID 0000.0001) > ocean_emissivity  = 1.,
(PID.TID 0000.0001) > atmrho            = 1.22,
(PID.TID 0000.0001) > humid_fac         = .608,
(PID.TID 0000.0001) > ht                = 10.,
(PID.TID 0000.0001) > exf_albedo        = 0.066,
(PID.TID 0000.0001) >#readStressOnAgrid = .TRUE.,
(PID.TID 0000.0001) > readStressOnCgrid = .TRUE.,
(PID.TID 0000.0001) > exf_monFreq       = 0.,
(PID.TID 0000.0001) > repeatPeriod      = 31104000.,
(PID.TID 0000.0001) > exf_iprec         = 64,
(PID.TID 0000.0001) > /
(PID.TID 0000.0001) >
(PID.TID 0000.0001) ># *********************
(PID.TID 0000.0001) > &EXF_NML_02
(PID.TID 0000.0001) >#
(PID.TID 0000.0001) > atempstartdate1   = 00010116,
(PID.TID 0000.0001) >#atempstartdate2   = 180000,
(PID.TID 0000.0001) > atempperiod       = 2592000.0,
(PID.TID 0000.0001) >#
(PID.TID 0000.0001) > aqhstartdate1     = 00010116,
(PID.TID 0000.0001) >#aqhstartdate2     = 180000,
(PID.TID 0000.0001) > aqhperiod         = 2592000.0,
(PID.TID 0000.0001) >#
(PID.TID 0000.0001) > precipstartdate1  = 00010116,
(PID.TID 0000.0001) >#precipstartdate2  = 180000,
(PID.TID 0000.0001) > precipperiod      = 2592000.0,
(PID.TID 0000.0001) >#
(PID.TID 0000.0001) > snowprecipstartdate1= 00010116,
(PID.TID 0000.0001) >#snowprecipstartdate2= 180000,
(PID.TID 0000.0001) > snowprecipperiod    = 2592000.,
(PID.TID 0000.0001) >#
(PID.TID 0000.0001) > runoffstartdate1  = 00010116,
(PID.TID 0000.0001) >#runoffstartdate2  = 180000,
(PID.TID 0000.0001) > runoffperiod      = 2592000.0,
(PID.TID 0000.0001) >#
(PID.TID 0000.0001) > uwindstartdate1   = 00010116,
(PID.TID 0000.0001) >#uwindstartdate2   = 180000,
(PID.TID 0000.0001) > uwindperiod       = 2592000.0,
(PID.TID 0000.0001) >#
(PID.TID 0000.0001) > vwindstartdate1   = 00010116,
(PID.TID 0000.0001) >#vwindstartdate2   = 180000,
(PID.TID 0000.0001) > vwindperiod       = 2592000.0,
(PID.TID 0000.0001) >#
(PID.TID 0000.0001) > ustressstartdate1 = 00010116,
(PID.TID 0000.0001) >#ustressstartdate2 = 180000,
(PID.TID 0000.0001) > ustressperiod     = 2592000.0,
(PID.TID 0000.0001) >#
(PID.TID 0000.0001) > vstressstartdate1 = 00010116,
(PID.TID 0000.0001) >#vstressstartdate2 = 180000,
(PID.TID 0000.0001) > vstressperiod     = 2592000.0,
(PID.TID 0000.0001) >#
(PID.TID 0000.0001) > wspeedstartdate1  = 00010116,
(PID.TID 0000.0001) >#wspeedstartdate2  = 180000,
(PID.TID 0000.0001) > wspeedperiod      = 2592000.0,
(PID.TID 0000.0001) >#
(PID.TID 0000.0001) > swdownstartdate1  = 00010116,
(PID.TID 0000.0001) >#swdownstartdate2  = 180000,
(PID.TID 0000.0001) > swdownperiod      = 2592000.0,
(PID.TID 0000.0001) >#
(PID.TID 0000.0001) > lwdownstartdate1  = 00010116,
(PID.TID 0000.0001) >#lwdownstartdate2  = 180000,
(PID.TID 0000.0001) > lwdownperiod      = 2592000.0,
(PID.TID 0000.0001) >#
(PID.TID 0000.0001) > climsssstartdate1  = 00010116,
(PID.TID 0000.0001) >#climsssstartdate2  = 180000,
(PID.TID 0000.0001) > climsssperiod      = 2592000.0,
(PID.TID 0000.0001) >#
(PID.TID 0000.0001) > climsststartdate1  = 00010116,
(PID.TID 0000.0001) >#climsststartdate2  = 180000,
(PID.TID 0000.0001) > climsstperiod      = 2592000.0,
(PID.TID 0000.0001) >#
(PID.TID 0000.0001) > atempfile         = 'core_t_Air_cs32.bin',
(PID.TID 0000.0001) > aqhfile           = 'core_q_air_cs32.bin',
(PID.TID 0000.0001) > ustressfile       = 'trenberth_taux.bin',
(PID.TID 0000.0001) > vstressfile       = 'trenberth_tauy.bin',
(PID.TID 0000.0001) >#uwindfile         = 'core_u_wind_cs32.bin',
(PID.TID 0000.0001) >#vwindfile         = 'core_v_wind_cs32.bin',
(PID.TID 0000.0001) > wspeedfile        = 'core_wndSpd_cs32.bin',
(PID.TID 0000.0001) > precipfile        = 'core_prec_1_cs32.bin',
(PID.TID 0000.0001) >#snowprecipfile    = 'core_snwP_1_cs32.bin',
(PID.TID 0000.0001) > lwdownfile        = 'core_dwnLw_cs32.bin',
(PID.TID 0000.0001) > swdownfile        = 'core_dwnSw_cs32.bin',
(PID.TID 0000.0001) > runoffFile        = 'core_rnof_1_cs32.bin'
(PID.TID 0000.0001) > runoftempFile     = 'runoff_temperature.bin'
(PID.TID 0000.0001) > climsstfile       = 'lev_surfT_cs_12m.bin',
(PID.TID 0000.0001) > climsssfile       = 'lev_surfS_cs_12m.bin',
(PID.TID 0000.0001) >#
(PID.TID 0000.0001) > /
(PID.TID 0000.0001) >
(PID.TID 0000.0001) ># *********************
(PID.TID 0000.0001) > &EXF_NML_03
(PID.TID 0000.0001) > /
(PID.TID 0000.0001) >
(PID.TID 0000.0001) ># *********************
(PID.TID 0000.0001) > &EXF_NML_04
(PID.TID 0000.0001) > /
(PID.TID 0000.0001) 
(PID.TID 0000.0001) EXF_READPARMS: reading EXF_NML_01
(PID.TID 0000.0001) EXF_READPARMS: reading EXF_NML_02
(PID.TID 0000.0001) EXF_READPARMS: reading EXF_NML_03
(PID.TID 0000.0001) EXF_READPARMS: finished reading data.exf
(PID.TID 0000.0001)  GM_READPARMS: opening data.gmredi
(PID.TID 0000.0001)  OPEN_COPY_DATA_FILE: opening file data.gmredi
(PID.TID 0000.0001) // =======================================================
(PID.TID 0000.0001) // Parameter file "data.gmredi"
(PID.TID 0000.0001) // =======================================================
(PID.TID 0000.0001) ># GM+Redi package parameters:
(PID.TID 0000.0001) >
(PID.TID 0000.0001) >#-from MOM :
(PID.TID 0000.0001) ># GM_background_K: 	G & Mc.W  diffusion coefficient
(PID.TID 0000.0001) ># GM_maxSlope    :	max slope of isopycnals
(PID.TID 0000.0001) ># GM_Scrit       :	transition for scaling diffusion coefficient
(PID.TID 0000.0001) ># GM_Sd          :	half width scaling for diffusion coefficient
(PID.TID 0000.0001) ># GM_taper_scheme:	slope clipping or one of the tapering schemes
(PID.TID 0000.0001) ># GM_Kmin_horiz  :	horizontal diffusion minimum value
(PID.TID 0000.0001) >
(PID.TID 0000.0001) >#-Option parameters (needs to "define" options in GMREDI_OPTIONS.h")
(PID.TID 0000.0001) ># GM_isopycK     :	isopycnal diffusion coefficient (default=GM_background_K)
(PID.TID 0000.0001) ># GM_AdvForm     :	turn on GM Advective form       (default=Skew flux form)
(PID.TID 0000.0001) >
(PID.TID 0000.0001) > &GM_PARM01
(PID.TID 0000.0001) >  GM_Visbeck_alpha   = 0.,
(PID.TID 0000.0001) >  GM_background_K    = 800.,
(PID.TID 0000.0001) ># GM_AdvForm         = .TRUE.,
(PID.TID 0000.0001) ># GM_background_K    = 10.,
(PID.TID 0000.0001) ># GM_Visbeck_alpha   = 1.e-2,
(PID.TID 0000.0001) >  GM_Visbeck_length  = 2.e+5,
(PID.TID 0000.0001) >  GM_Visbeck_depth   = 1.e+3,
(PID.TID 0000.0001) >  GM_Visbeck_maxval_K= 2.5e+3,
(PID.TID 0000.0001) >  GM_taper_scheme    = 'gkw91',
(PID.TID 0000.0001) ># GM_Small_Number    = 1.e-18,
(PID.TID 0000.0001) >  GM_maxSlope        = 1.e-2,
(PID.TID 0000.0001) >  GM_Kmin_horiz      = 50.,
(PID.TID 0000.0001) >  GM_Scrit           = 4.e-3,
(PID.TID 0000.0001) >  GM_Sd              = 1.e-3,
(PID.TID 0000.0001) > /
(PID.TID 0000.0001) >
(PID.TID 0000.0001) 
(PID.TID 0000.0001)  GM_READPARMS: finished reading data.gmredi
(PID.TID 0000.0001) 
(PID.TID 0000.0001)  SEAICE_READPARMS: opening data.seaice
(PID.TID 0000.0001)  OPEN_COPY_DATA_FILE: opening file data.seaice
(PID.TID 0000.0001) // =======================================================
(PID.TID 0000.0001) // Parameter file "data.seaice"
(PID.TID 0000.0001) // =======================================================
(PID.TID 0000.0001) ># SEAICE parameters
(PID.TID 0000.0001) > &SEAICE_PARM01
(PID.TID 0000.0001) > LSR_ERROR             = 1.E-12,
(PID.TID 0000.0001) ># test strong implicit coupling method for LSR
(PID.TID 0000.0001) > SEAICEuseStrImpCpl    = .TRUE.,
(PID.TID 0000.0001) ># test restricted additive Schwarz (RAS) method for LSR
(PID.TID 0000.0001) ># SEAICE_OLx/y have to be .LE. OLx/y-2
(PID.TID 0000.0001) > SEAICE_OLx = 2,
(PID.TID 0000.0001) > SEAICE_OLy = 2,
(PID.TID 0000.0001) >#SEAICE_deltaTevp = 60.,
(PID.TID 0000.0001) >#SEAICEuseDynamics = .FALSE.,
(PID.TID 0000.0001) > SEAICE_clipVelocities = .TRUE.,
(PID.TID 0000.0001) >#
(PID.TID 0000.0001) > SEAICE_salt0          = 4.,
(PID.TID 0000.0001) > SEAICEadvHeff         = .TRUE.,
(PID.TID 0000.0001) > SEAICEadvArea         = .TRUE.,
(PID.TID 0000.0001) > SEAICEadvSnow         = .TRUE.,
(PID.TID 0000.0001) > SEAICEadvScheme       = 77,
(PID.TID 0000.0001) > SEAICE_multDim        = 7,
(PID.TID 0000.0001) > SEAICE_wetAlbTemp     = 0.,
(PID.TID 0000.0001) > SEAICE_mcPheePiston   = 0.00057,
(PID.TID 0000.0001) > SEAICE_areaLossFormula= 2,
(PID.TID 0000.0001) > SEAICEheatConsFix     = .TRUE.,
(PID.TID 0000.0001) >#SEAICE_monFreq        = 2592000.,
(PID.TID 0000.0001) >#SEAICEwriteState      = .TRUE.,
(PID.TID 0000.0001) > /
(PID.TID 0000.0001) >
(PID.TID 0000.0001) > &SEAICE_PARM03
(PID.TID 0000.0001) > /
(PID.TID 0000.0001) 
(PID.TID 0000.0001)  SEAICE_READPARMS: finished reading data.seaice
(PID.TID 0000.0001)  DIAGNOSTICS_READPARMS: opening data.diagnostics
(PID.TID 0000.0001)  OPEN_COPY_DATA_FILE: opening file data.diagnostics
(PID.TID 0000.0001) // =======================================================
(PID.TID 0000.0001) // Parameter file "data.diagnostics"
(PID.TID 0000.0001) // =======================================================
(PID.TID 0000.0001) ># Diagnostic Package Choices
(PID.TID 0000.0001) >#--------------------
(PID.TID 0000.0001) >#  dumpAtLast (logical): always write output at the end of simulation (default=F)
(PID.TID 0000.0001) >#  diag_mnc   (logical): write to NetCDF files (default=useMNC)
(PID.TID 0000.0001) >#--for each output-stream:
(PID.TID 0000.0001) >#  fileName(n) : prefix of the output file name (max 80c long) for outp.stream n
(PID.TID 0000.0001) >#  frequency(n):< 0 : write snap-shot output every |frequency| seconds
(PID.TID 0000.0001) >#               > 0 : write time-average output every frequency seconds
(PID.TID 0000.0001) >#  timePhase(n)     : write at time = timePhase + multiple of |frequency|
(PID.TID 0000.0001) >#    averagingFreq  : frequency (in s) for periodic averaging interval
(PID.TID 0000.0001) >#    averagingPhase : phase     (in s) for periodic averaging interval
(PID.TID 0000.0001) >#    repeatCycle    : number of averaging intervals in 1 cycle
(PID.TID 0000.0001) >#  levels(:,n) : list of levels to write to file (Notes: declared as REAL)
(PID.TID 0000.0001) >#                when this entry is missing, select all common levels of this list
(PID.TID 0000.0001) >#  fields(:,n) : list of selected diagnostics fields (8.c) in outp.stream n
(PID.TID 0000.0001) >#                (see "available_diagnostics.log" file for the full list of diags)
(PID.TID 0000.0001) >#  missing_value(n) : missing value for real-type fields in output file "n"
(PID.TID 0000.0001) >#  fileFlags(n)     : specific code (8c string) for output file "n"
(PID.TID 0000.0001) >#--------------------
(PID.TID 0000.0001) > &DIAGNOSTICS_LIST
(PID.TID 0000.0001) ># diag_mnc     = .FALSE.,
(PID.TID 0000.0001) ># dumpAtLast   = .TRUE.,
(PID.TID 0000.0001) >#--
(PID.TID 0000.0001) >  fields(1:12,1) = 'ETAN    ','ETANSQ  ','DETADT2 ','PHIBOT  ','PHIBOTSQ',
(PID.TID 0000.0001) >                   'oceTAUX ','oceTAUY ',
(PID.TID 0000.0001) >                   'oceQnet ','oceSflux','oceFWflx',
(PID.TID 0000.0001) >#                  'surForcT','surForcS','TFLUX   ','SFLUX   ','oceFreez',
(PID.TID 0000.0001) >                   'TRELAX  ','SRELAX  ',
(PID.TID 0000.0001) >#                  'GM_VisbK',
(PID.TID 0000.0001) >   fileName(1) = 'surfDiag',
(PID.TID 0000.0001) >  frequency(1) = 1555200000.,
(PID.TID 0000.0001) >  fields(1:15,2) = 'UVEL    ','VVEL    ','WVEL    ','PHIHYD  ',
(PID.TID 0000.0001) >                   'VVELMASS','UVELMASS','WVELSQ  ',
(PID.TID 0000.0001) >                   'THETA   ','UTHMASS ','VTHMASS ','WTHMASS ',
(PID.TID 0000.0001) >                   'SALT    ','USLTMASS','VSLTMASS','WSLTMASS',
(PID.TID 0000.0001) ># do not specify levels => all levels are selected
(PID.TID 0000.0001) >#  fileName(2) = 'dynDiag',
(PID.TID 0000.0001) >  frequency(2) = 1555200000.,
(PID.TID 0000.0001) >
(PID.TID 0000.0001) >  fields(1:8,3)  = 'DRHODR  ','RHOAnoma','CONVADJ ',
(PID.TID 0000.0001) >#                  'GM_PsiX ','GM_PsiY ',
(PID.TID 0000.0001) >                   'GM_Kwx  ','GM_Kwy  ','GM_Kwz  ',
(PID.TID 0000.0001) >                   'GM_Kux  ','GM_Kvy  ',
(PID.TID 0000.0001) >#                  'GM_Kuz  ','GM_Kvz  ',
(PID.TID 0000.0001) >#- disable this output list by commenting out the file name
(PID.TID 0000.0001) >#  fileName(3) = 'oceDiag',
(PID.TID 0000.0001) >  frequency(3) = 1555200000.,
(PID.TID 0000.0001) >
(PID.TID 0000.0001) >  fields(1:7,4)  = 'ADVx_TH ','ADVy_TH ','ADVr_TH ',
(PID.TID 0000.0001) >                   'DIFx_TH ','DIFy_TH ','DFrE_TH ',
(PID.TID 0000.0001) >                   'DFrI_TH ',
(PID.TID 0000.0001) >#                  'ADVx_SLT',
(PID.TID 0000.0001) >#  fileName(4) = 'flxDiag',
(PID.TID 0000.0001) >  frequency(4) = 1728000.,
(PID.TID 0000.0001) >
(PID.TID 0000.0001) >  fields(1:5,5)  = 'SIheff  ','SIarea  ','SIhsnow ',
(PID.TID 0000.0001) >                   'SIuice  ','SIvice  ',
(PID.TID 0000.0001) >  fileName(5) = 'seaiceDiag',
(PID.TID 0000.0001) >  frequency(5) = 1555200000.,
(PID.TID 0000.0001) > averagingFreq(5) = 2592000.,
(PID.TID 0000.0001) >   repeatCycle(5) = 12,
(PID.TID 0000.0001) >#---
(PID.TID 0000.0001) >  frequency(6) = 86400.0,
(PID.TID 0000.0001) >  fields(1:12,6) ='UVELMASS','VVELMASS',
(PID.TID 0000.0001) >                 'ADVx_TH ','ADVy_TH ','DFxE_TH ','DFyE_TH ',
(PID.TID 0000.0001) >                 'ADVx_SLT','ADVy_SLT','DFxE_SLT','DFyE_SLT',
(PID.TID 0000.0001) >                 'AB_gT   ','AB_gS   ',
(PID.TID 0000.0001) >#  filename(6) = 'budg2d_hflux_set2',
(PID.TID 0000.0001) >   fileFlags(6) = 'DI      ',
(PID.TID 0000.0001) >#---
(PID.TID 0000.0001) >  frequency(7) = -86400.0,
(PID.TID 0000.0001) >   fields(1:3,7) = 'ETAN    ','SIheff  ','SIhsnow ',
(PID.TID 0000.0001) >#  filename(7) = 'budg2d_snap_set1',
(PID.TID 0000.0001) >   timePhase(7)= 0.,
(PID.TID 0000.0001) >   fileFlags(7) = 'D       ',
(PID.TID 0000.0001) >#---
(PID.TID 0000.0001) >  frequency(8) = -86400.0,
(PID.TID 0000.0001) >   fields(1:2,8) = 'THETA   ','SALT    ',
(PID.TID 0000.0001) >#  filename(8) = 'budg2d_snap_set2',
(PID.TID 0000.0001) >   timePhase(8)= 0.,
(PID.TID 0000.0001) >   fileFlags(8) = 'DI      ',
(PID.TID 0000.0001) >#---
(PID.TID 0000.0001) >  frequency(9) = 86400.0,
(PID.TID 0000.0001) >   fields(1:16,9) = 'oceFWflx','SIatmFW ','TFLUX   ','SItflux ','SFLUX   ',
(PID.TID 0000.0001) >                  'SRELAX  ','TRELAX  ','oceSflux','oceQnet ','SIatmQnt','oceQsw  ',
(PID.TID 0000.0001) >                  'WTHMASS ','WSLTMASS','SIaaflux','SIsnPrcp','SIacSubl',
(PID.TID 0000.0001) >   levels(1,9) = 1.,
(PID.TID 0000.0001) >#  filename(9) = 'budg2d_zflux_set1',
(PID.TID 0000.0001) >   fileFlags(9) = 'D       ',
(PID.TID 0000.0001) >#---
(PID.TID 0000.0001) >  frequency(10) = 86400.0,
(PID.TID 0000.0001) >   fields(1:8,10) ='ADVxHEFF','ADVyHEFF','DFxEHEFF','DFyEHEFF',
(PID.TID 0000.0001) >                 'ADVxSNOW','ADVySNOW','DFxESNOW','DFyESNOW',
(PID.TID 0000.0001) >#  filename(10) = 'budg2d_hflux_set1',
(PID.TID 0000.0001) >   fileFlags(10) = 'D       ',
(PID.TID 0000.0001) > /
(PID.TID 0000.0001) >
(PID.TID 0000.0001) >#--------------------
(PID.TID 0000.0001) ># Parameter for Diagnostics of per level statistics:
(PID.TID 0000.0001) >#--------------------
(PID.TID 0000.0001) >#  diagSt_mnc (logical): write stat-diags to NetCDF files (default=diag_mnc)
(PID.TID 0000.0001) >#  diagSt_regMaskFile : file containing the region-mask to read-in
(PID.TID 0000.0001) >#  nSetRegMskFile   : number of region-mask sets within the region-mask file
(PID.TID 0000.0001) >#  set_regMask(i)   : region-mask set-index that identifies the region "i"
(PID.TID 0000.0001) >#  val_regMask(i)   : region "i" identifier value in the region mask
(PID.TID 0000.0001) >#--for each output-stream:
(PID.TID 0000.0001) >#  stat_fName(n) : prefix of the output file name (max 80c long) for outp.stream n
(PID.TID 0000.0001) >#  stat_freq(n):< 0 : write snap-shot output every |stat_freq| seconds
(PID.TID 0000.0001) >#               > 0 : write time-average output every stat_freq seconds
(PID.TID 0000.0001) >#  stat_phase(n)    : write at time = stat_phase + multiple of |stat_freq|
(PID.TID 0000.0001) >#  stat_region(:,n) : list of "regions" (default: 1 region only=global)
(PID.TID 0000.0001) >#  stat_fields(:,n) : list of selected diagnostics fields (8.c) in outp.stream n
(PID.TID 0000.0001) >#                (see "available_diagnostics.log" file for the full list of diags)
(PID.TID 0000.0001) >#--------------------
(PID.TID 0000.0001) > &DIAG_STATIS_PARMS
(PID.TID 0000.0001) >#- regional mask: 3 lat. band: 1 : y <= -24 ; 2 : -24<y<24 ; 3 : 24 <= y
(PID.TID 0000.0001) > diagSt_regMaskFile='regMask_lat24.bin',
(PID.TID 0000.0001) > nSetRegMskFile = 1,
(PID.TID 0000.0001) > set_regMask(1:3) = 1,  1,  1,
(PID.TID 0000.0001) > val_regMask(1:3) = 1., 2., 3.,
(PID.TID 0000.0001) >#---
(PID.TID 0000.0001) > stat_fields(1:8,1)  = 'ETAN    ','UVEL    ','VVEL    ','WVEL    ',
(PID.TID 0000.0001) >                       'THETA   ','SALT    ','CONVADJ ','DETADT2 ',
(PID.TID 0000.0001) >  stat_fName(1) = 'dynStDiag',
(PID.TID 0000.0001) >   stat_freq(1) = 864000.,
(PID.TID 0000.0001) > stat_fields(1:5,5)  = 'SIheff  ','SIarea  ','SIhsnow ',
(PID.TID 0000.0001) >                       'SIuice  ','SIvice  ',
(PID.TID 0000.0001) > stat_region(1:3,5)  = 1, 3, 0,
(PID.TID 0000.0001) >  stat_fName(5) = 'seaiceStDiag',
(PID.TID 0000.0001) >   stat_freq(5) = 864000.,
(PID.TID 0000.0001) > /
(PID.TID 0000.0001) >
(PID.TID 0000.0001) 
(PID.TID 0000.0001) S/R DIAGNOSTICS_READPARMS, read namelist "diagnostics_list": start
(PID.TID 0000.0001) S/R DIAGNOSTICS_READPARMS, read namelist "diagnostics_list": OK
(PID.TID 0000.0001) S/R DIAGNOSTICS_READPARMS, read namelist "DIAG_STATIS_PARMS": start
(PID.TID 0000.0001) S/R DIAGNOSTICS_READPARMS, read namelist "DIAG_STATIS_PARMS": OK
(PID.TID 0000.0001)  DIAGNOSTICS_READPARMS: global parameter summary:
(PID.TID 0000.0001)  dumpAtLast = /* always write time-ave diags at the end */
(PID.TID 0000.0001)                   F
(PID.TID 0000.0001)     ;
(PID.TID 0000.0001)  diag_mnc =   /* write NetCDF output files */
(PID.TID 0000.0001)                   F
(PID.TID 0000.0001)     ;
(PID.TID 0000.0001)  useMissingValue = /* put MissingValue where mask = 0 */
(PID.TID 0000.0001)                   F
(PID.TID 0000.0001)     ;
(PID.TID 0000.0001)  diagCG_maxIters = /* max number of iters in diag_cg2d */
(PID.TID 0000.0001)                     200
(PID.TID 0000.0001)     ;
(PID.TID 0000.0001)  diagCG_resTarget = /* residual target for diag_cg2d */
(PID.TID 0000.0001)                 1.000000000000000E-07
(PID.TID 0000.0001)     ;
(PID.TID 0000.0001)  diagCG_pcOffDFac = /* preconditioner off-diagonal factor */
(PID.TID 0000.0001)                 9.611687812379854E-01
(PID.TID 0000.0001)     ;
(PID.TID 0000.0001) -----------------------------------------------------
(PID.TID 0000.0001)  DIAGNOSTICS_READPARMS: active diagnostics summary:
(PID.TID 0000.0001) -----------------------------------------------------
(PID.TID 0000.0001) Creating Output Stream: surfDiag
(PID.TID 0000.0001) Output Frequency: 1555200000.000000 ; Phase:           0.000000
(PID.TID 0000.0001)  Averaging Freq.: 1555200000.000000 , Phase:           0.000000 , Cycle:   1
(PID.TID 0000.0001)  missing value: -9.990000000000E+02
(PID.TID 0000.0001)  Levels:    will be set later
(PID.TID 0000.0001)  Fields:    ETAN     ETANSQ   DETADT2  PHIBOT   PHIBOTSQ oceTAUX  oceTAUY  oceQnet  oceSflux oceFWflx
(PID.TID 0000.0001)  Fields:    TRELAX   SRELAX
(PID.TID 0000.0001) Creating Output Stream: seaiceDiag
(PID.TID 0000.0001) Output Frequency: 1555200000.000000 ; Phase:           0.000000
(PID.TID 0000.0001)  Averaging Freq.:    2592000.000000 , Phase:           0.000000 , Cycle:  12
(PID.TID 0000.0001)  missing value: -9.990000000000E+02
(PID.TID 0000.0001)  Levels:    will be set later
(PID.TID 0000.0001)  Fields:    SIheff   SIarea   SIhsnow  SIuice   SIvice
(PID.TID 0000.0001) -----------------------------------------------------
(PID.TID 0000.0001)  DIAGNOSTICS_READPARMS: statistics diags. summary:
(PID.TID 0000.0001) Creating Stats. Output Stream: dynStDiag
(PID.TID 0000.0001) Output Frequency:     864000.000000 ; Phase:           0.000000
(PID.TID 0000.0001)  Regions:   0
(PID.TID 0000.0001)  Fields:    ETAN     UVEL     VVEL     WVEL     THETA    SALT     CONVADJ  DETADT2
(PID.TID 0000.0001) Creating Stats. Output Stream: seaiceStDiag
(PID.TID 0000.0001) Output Frequency:     864000.000000 ; Phase:           0.000000
(PID.TID 0000.0001)  Regions:   0  1  3
(PID.TID 0000.0001)  Fields:    SIheff   SIarea   SIhsnow  SIuice   SIvice
(PID.TID 0000.0001) -----------------------------------------------------
(PID.TID 0000.0001) 
(PID.TID 0000.0001) SET_PARMS: done
(PID.TID 0000.0001) Enter INI_VERTICAL_GRID: setInterFDr=    T ; setCenterDr=    F
(PID.TID 0000.0001) tile:   1 ; Read from file grid_cs32.face001.bin
(PID.TID 0000.0001)   => xC yC dxF dyF rA xG yG dxV dyU rAz dxC dyC rAw rAs dxG dyG AngleCS AngleSN
(PID.TID 0000.0001) tile:   2 ; Read from file grid_cs32.face001.bin
(PID.TID 0000.0001)   => xC yC dxF dyF rA xG yG dxV dyU rAz dxC dyC rAw rAs dxG dyG AngleCS AngleSN
(PID.TID 0000.0001) tile:   3 ; Read from file grid_cs32.face002.bin
(PID.TID 0000.0001)   => xC yC dxF dyF rA xG yG dxV dyU rAz dxC dyC rAw rAs dxG dyG AngleCS AngleSN
(PID.TID 0000.0001) tile:   4 ; Read from file grid_cs32.face002.bin
(PID.TID 0000.0001)   => xC yC dxF dyF rA xG yG dxV dyU rAz dxC dyC rAw rAs dxG dyG AngleCS AngleSN
(PID.TID 0000.0001) tile:   5 ; Read from file grid_cs32.face003.bin
(PID.TID 0000.0001)   => xC yC dxF dyF rA xG yG dxV dyU rAz dxC dyC rAw rAs dxG dyG AngleCS AngleSN
(PID.TID 0000.0001) tile:   6 ; Read from file grid_cs32.face003.bin
(PID.TID 0000.0001)   => xC yC dxF dyF rA xG yG dxV dyU rAz dxC dyC rAw rAs dxG dyG AngleCS AngleSN
(PID.TID 0000.0001) tile:   7 ; Read from file grid_cs32.face004.bin
(PID.TID 0000.0001)   => xC yC dxF dyF rA xG yG dxV dyU rAz dxC dyC rAw rAs dxG dyG AngleCS AngleSN
(PID.TID 0000.0001) tile:   8 ; Read from file grid_cs32.face004.bin
(PID.TID 0000.0001)   => xC yC dxF dyF rA xG yG dxV dyU rAz dxC dyC rAw rAs dxG dyG AngleCS AngleSN
(PID.TID 0000.0001) tile:   9 ; Read from file grid_cs32.face005.bin
(PID.TID 0000.0001)   => xC yC dxF dyF rA xG yG dxV dyU rAz dxC dyC rAw rAs dxG dyG AngleCS AngleSN
(PID.TID 0000.0001) tile:  10 ; Read from file grid_cs32.face005.bin
(PID.TID 0000.0001)   => xC yC dxF dyF rA xG yG dxV dyU rAz dxC dyC rAw rAs dxG dyG AngleCS AngleSN
(PID.TID 0000.0001) tile:  11 ; Read from file grid_cs32.face006.bin
(PID.TID 0000.0001)   => xC yC dxF dyF rA xG yG dxV dyU rAz dxC dyC rAw rAs dxG dyG AngleCS AngleSN
(PID.TID 0000.0001) tile:  12 ; Read from file grid_cs32.face006.bin
(PID.TID 0000.0001)   => xC yC dxF dyF rA xG yG dxV dyU rAz dxC dyC rAw rAs dxG dyG AngleCS AngleSN
(PID.TID 0000.0001) %MON XC_max                       =   1.7854351589505E+02
(PID.TID 0000.0001) %MON XC_min                       =  -1.7854351589505E+02
(PID.TID 0000.0001) %MON XC_mean                      =  -1.4199289892029E-14
(PID.TID 0000.0001) %MON XC_sd                        =   1.0355545336287E+02
(PID.TID 0000.0001) %MON XG_max                       =   1.8000000000000E+02
(PID.TID 0000.0001) %MON XG_min                       =  -1.7708797161002E+02
(PID.TID 0000.0001) %MON XG_mean                      =   1.8603515625000E+00
(PID.TID 0000.0001) %MON XG_sd                        =   1.0357130300504E+02
(PID.TID 0000.0001) %MON DXC_max                      =   3.2375185836900E+05
(PID.TID 0000.0001) %MON DXC_min                      =   1.1142031410131E+05
(PID.TID 0000.0001) %MON DXC_mean                     =   2.8605689051214E+05
(PID.TID 0000.0001) %MON DXC_sd                       =   3.4042087138252E+04
(PID.TID 0000.0001) %MON DXF_max                      =   3.2369947500827E+05
(PID.TID 0000.0001) %MON DXF_min                      =   1.2020820513318E+05
(PID.TID 0000.0001) %MON DXF_mean                     =   2.8605437324820E+05
(PID.TID 0000.0001) %MON DXF_sd                       =   3.4050524252539E+04
(PID.TID 0000.0001) %MON DXG_max                      =   3.2375195872773E+05
(PID.TID 0000.0001) %MON DXG_min                      =   1.0098378008791E+05
(PID.TID 0000.0001) %MON DXG_mean                     =   2.8603818508931E+05
(PID.TID 0000.0001) %MON DXG_sd                       =   3.4140406908005E+04
(PID.TID 0000.0001) %MON DXV_max                      =   3.2380418162750E+05
(PID.TID 0000.0001) %MON DXV_min                      =   8.0152299824136E+04
(PID.TID 0000.0001) %MON DXV_mean                     =   2.8603970633619E+05
(PID.TID 0000.0001) %MON DXV_sd                       =   3.4145142117723E+04
(PID.TID 0000.0001) %MON YC_max                       =   8.7940663871962E+01
(PID.TID 0000.0001) %MON YC_min                       =  -8.7940663871962E+01
(PID.TID 0000.0001) %MON YC_mean                      =  -2.3684757858670E-15
(PID.TID 0000.0001) %MON YC_sd                        =   3.8676242969072E+01
(PID.TID 0000.0001) %MON YG_max                       =   9.0000000000000E+01
(PID.TID 0000.0001) %MON YG_min                       =  -9.0000000000000E+01
(PID.TID 0000.0001) %MON YG_mean                      =  -4.1448326252673E-15
(PID.TID 0000.0001) %MON YG_sd                        =   3.8676895860710E+01
(PID.TID 0000.0001) %MON DYC_max                      =   3.2375185836900E+05
(PID.TID 0000.0001) %MON DYC_min                      =   1.1142031410131E+05
(PID.TID 0000.0001) %MON DYC_mean                     =   2.8605689051214E+05
(PID.TID 0000.0001) %MON DYC_sd                       =   3.4042087138252E+04
(PID.TID 0000.0001) %MON DYF_max                      =   3.2369947500827E+05
(PID.TID 0000.0001) %MON DYF_min                      =   1.2020820513318E+05
(PID.TID 0000.0001) %MON DYF_mean                     =   2.8605437324820E+05
(PID.TID 0000.0001) %MON DYF_sd                       =   3.4050524252539E+04
(PID.TID 0000.0001) %MON DYG_max                      =   3.2375195872773E+05
(PID.TID 0000.0001) %MON DYG_min                      =   1.0098378008791E+05
(PID.TID 0000.0001) %MON DYG_mean                     =   2.8603818508931E+05
(PID.TID 0000.0001) %MON DYG_sd                       =   3.4140406908005E+04
(PID.TID 0000.0001) %MON DYU_max                      =   3.2380418162750E+05
(PID.TID 0000.0001) %MON DYU_min                      =   8.0152299824136E+04
(PID.TID 0000.0001) %MON DYU_mean                     =   2.8603970633619E+05
(PID.TID 0000.0001) %MON DYU_sd                       =   3.4145142117723E+04
(PID.TID 0000.0001) %MON RA_max                       =   1.0479260248419E+11
(PID.TID 0000.0001) %MON RA_min                       =   1.4019007022556E+10
(PID.TID 0000.0001) %MON RA_mean                      =   8.2992246709265E+10
(PID.TID 0000.0001) %MON RA_sd                        =   1.7509089299457E+10
(PID.TID 0000.0001) %MON RAW_max                      =   1.0480965274559E+11
(PID.TID 0000.0001) %MON RAW_min                      =   1.2166903467143E+10
(PID.TID 0000.0001) %MON RAW_mean                     =   8.2992246709235E+10
(PID.TID 0000.0001) %MON RAW_sd                       =   1.7481917919656E+10
(PID.TID 0000.0001) %MON RAS_max                      =   1.0480965274559E+11
(PID.TID 0000.0001) %MON RAS_min                      =   1.2166903467143E+10
(PID.TID 0000.0001) %MON RAS_mean                     =   8.2992246709235E+10
(PID.TID 0000.0001) %MON RAS_sd                       =   1.7481917919656E+10
(PID.TID 0000.0001) %MON RAZ_max                      =   1.0484349334619E+11
(PID.TID 0000.0001) %MON RAZ_min                      =   8.8317900612505E+09
(PID.TID 0000.0001) %MON RAZ_mean                     =   8.2992246709235E+10
(PID.TID 0000.0001) %MON RAZ_sd                       =   1.7482297311044E+10
(PID.TID 0000.0001) %MON AngleCS_max                  =   9.9999994756719E-01
(PID.TID 0000.0001) %MON AngleCS_min                  =  -9.9968286884824E-01
(PID.TID 0000.0001) %MON AngleCS_mean                 =   3.3078922539000E-01
(PID.TID 0000.0001) %MON AngleCS_sd                   =   6.2496278958502E-01
(PID.TID 0000.0001) %MON AngleSN_max                  =   9.9968286884824E-01
(PID.TID 0000.0001) %MON AngleSN_min                  =  -9.9999994756719E-01
(PID.TID 0000.0001) %MON AngleSN_mean                 =  -3.3078922539000E-01
(PID.TID 0000.0001) %MON AngleSN_sd                   =   6.2496278958502E-01
(PID.TID 0000.0001)  MDS_READ_FIELD: opening global file: bathy_Hmin50.bin
(PID.TID 0000.0001) // =======================================================
(PID.TID 0000.0001) // Field Model R_low (ini_masks_etc)
(PID.TID 0000.0001) // CMIN =         -5.200000000000000E+03
(PID.TID 0000.0001) // CMAX =         -5.000000000000000E+01
(PID.TID 0000.0001) // CINT =          1.907407407407407E+02
(PID.TID 0000.0001) // SYMBOLS (CMIN->CMAX): -abcdefghijklmnopqrstuvwxyz+
(PID.TID 0000.0001) //                  0.0: .
(PID.TID 0000.0001) // RANGE I (Lo:Hi:Step):(    -3:   388:     1)
(PID.TID 0000.0001) // RANGE J (Lo:Hi:Step):(    20:    -3:    -1)
(PID.TID 0000.0001) // RANGE K (Lo:Hi:Step):(   1:   1:   1)
(PID.TID 0000.0001) // =======================================================
(PID.TID 0000.0001) K =   1
(PID.TID 0000.0001) //                I=6       I=16      I=26      I=36      I=38      I=48      I=58      I=68      I=70      I=80      I=90      I=100     I=102     I=112     I=122     I=132     I=134     I=144     I=154     I=164     I=166     I=176     I=186     I=196     I=198     I=208     I=218     I=228     I=230     I=240     I=250     I=260     I=262     I=272     I=282     I=292     I=294     I=304     I=314     I=324     I=326     I=336     I=346     I=356     I=358     I=368     I=378     I=388
(PID.TID 0000.0001) // |--J--|321012345|789012345|789012345|789012345|901234567|901234567|901234567|901234567|123456789|123456789|123456789|123456789|345678901|345678901|345678901|345678901|567890123|567890123|567890123|567890123|789012345|789012345|789012345|789012345|901234567|901234567|901234567|901234567|123456789|123456789|123456789|123456789|345678901|345678901|345678901|345678901|567890123|567890123|567890123|567890123|789012345|789012345|789012345|789012345|901234567|901234567|901234567|901234567|
(PID.TID 0000.0001) //     20 fbbbcgfcaa-aae+.......................lccbbc-ddcbcdehkhhmn..++........................lcgfdddhq.+hiilnz++.+oquxyz--adgkf................................okn.skkodcaabcfmtooyxz......+yuiiy....++gb--------a-fc----bba-cp.............tfeecccbbdegb--------ddcca-a-----acbaa------bbaaaabecccbbdeddedcdcccdddcddffggghiggfffdeeff........ywxy.lulo.lv...kcdgddffefffilyx+ijlihjlica---a--cgffel.+edfgeedflcbahgflfffilyx+fffk.+xyyy.........mgeimvskjkllllcbahgfllfhdffhkfffca-aady...llnabdoa--a
(PID.TID 0000.0001) //     19 zmfeccdghfeegcbt......................aadcac--cbbeefjkfefw+..........zpu..............aafifccgnrzgghjry.+++sr+lq.--edfkk................................kqnzrqqkoxtkblwnnsp.vv......skhggt...+++t---------b-da----bbbbfu..............fdddccaadct---------bdaf---------edd-------adlaaaaddccaadcdddcbbbbcdddcccdffffghgffffddeff+..........vnhzy.tllqiedccdhggfggffiiggflligfiljfba---aafddehy...pwvlhfffcbagfccgffiiggfcbdgy..yz..........xigqophijkkiifcbagfcceeffffjlkjgaa---bfvheeln-aesaaab
(PID.TID 0000.0001) //     18 ..wifedfkhfegbbcivlqfoz..............jaad--ba-abcehjnldcclz+........spps.............jaacfihggokeeffgt..++++..hhlfdeddke...............................vkqn+xnnnz..qcz+.zwxtsttz..ysrkhot++++++zig------cabbcbba--aabfu+..............hcbaaaaaccig--------b--f---------egqqqaa----frb---baaaaaccdccbaaabbddddccdffffghfeeeeedeff+........+kkrhw.vqmlnieddcdehgggffgigedbjiffefilhfcaaaacgceei.......zomggfcaecbbffgigedbaaceiy.............zilrddefikkhhgfcaecbbccddefilihecbaacbaajfega-aesfeed
(PID.TID 0000.0001) //     17 ..+wfeefikhgcbbccaaacgn.............icaa--abbbccceiomkfdbbc+.......+s...............icaaccfihfoedddeedy..++...nnqwgfeeke...............................xsrxzz+z.yy.z++..+zsjjllllljllpjos+++.+zhhi-----efdcddb-----adu+...............hcbaa--acchi-----e-----ea--------foqqoqqo--hlwgea-baa--accddba--bbbddddccdfffhhgfeeddccedd.........+nk+..xiioonhfefddegihhghigfdbahfeddfgikhfffdfgccffw........zohhgebbaaaghigfdbaaabdgx..............nheddefiklhghgebbaaaaaccdfhlhfefdcccaabjefbaaafoosso
(PID.TID 0000.0001) //     16 ....wiheddeccdfhfbabdfl............jdbad--bddefhhkqqlgfaakqz..v.+..+...............jdbaddddgifkccccdccd+.++..++ynvz.tkkq.............................++..u+....z.mu....++zyslllllkhggkmpy++...ihhi-----eigfdba----adu+................kdcaaa-acchi-----ea---feb-----a-acnoohfghknvmwnucacaaa-accdcb---bbbcdddddefffggfeeedcccccb..........qhu..hhhkojgffgeefghihhiieedbaccbbdcdfgghhiihcbeiw.........+ynjgebaaaahiieedbaaabcdy..............ygddeghiljgfjgebaaaa-aacccfikkhecccbbbaaabaadfklnqpp
(PID.TID 0000.0001) //     15 ......ylea--acfihebcbbes..........sfcbbnabbcffijnpnqneaaat..umrr+s.z..............sfcbbngfffigcaaabdbcac+.+++++zgmpx...y.............................+++++.ztsvd.mm....++..zslwz.yhhhhnz+++...rhgc----ablifeb--dfdfu+................+lkdca--abcgc----ab----ige----acaaalllkddfiy..yswxbdca--abcccb---bbbbddddeffflhfeeeecbbbbaa..........thk.xgghiligfghfefhhhhiiheedcdba-abbacbcdceffbbfw+..........++ujfbaaa-iiheedcdbbabdmz.............zfdeghikkifdujfbaaa----aacffiljgfffcca--adfikkiihhhf
(PID.TID 0000.0001) //     14 ........c---acgkhdcc--di..........ofddch--adgillkkkifcadcx.ymmqzqikvnnps..........ofddchohffikaaaaabaaa-aw+.+ysnggox++...............................+++++wmegt-.qrv..........yzzzzrjil+++....qhgd-----ajlifcacdlqx+++...............mligea---abgd-----a-----i---cccdeabkklldinqssy..xxvgea---abbbb---abaaddddeedkmeddefdbbbaaaa...........+y.uhghikihgfghefgihhhgeeeeedbc---b--aaaaabaabm..............+viba---hgeeeeeddbaadhw.............nedeghjjhfed+viba-------acdefinmlgiieb-chnnnmlmlgffc
(PID.TID 0000.0001) //     13 .......+b----cfkhec---afz.........nhfdff--cfiljigfjd--efdozy...+ximpnnuz..........nhfdffholghkaaaaaba-a---flkkuswyy++++y..............................+++yqddhp-+zr...........zzzzz++ry++......yd-------iljhcbbchz+......++.........+mmhffc----ad--------------aeecdeidfkkqnqlmqquukqqmfffc----aaba------acdddcbcineddgdbaaa----..............iihiijjhfefgefhjihiffgggffcdd--a------aa-bfz...............+qe---aiffgggffecaabelx...........zjecehijhfecc.+qe---aa---aedeegknmlgiigcdfhpokkimlfdb
(PID.TID 0000.0001) //     12 .......ec----chjhec---ag..........skiqdd-abgkhfcccea-bdei........t................skiqddeiiiifaaabae--a---dd--iu+++.+++s..............................++zwgfcfk-xq++..........+z+++++.+++....++.s-------gknhccbbhwwy.....+++........+njfeed-----s------------a-ceccdejhlllkqlkklssiccdeeeed-----aa-------abddcabcnfddegcaaa-----.............wjkkkjjjigeefffgjiiighiiihhhlf------------dk+................+ja---ighiiihhhdaabdffghtxx......mfccehjiffdb-..+ja------bffdddehfd--bedaacfhpnligiihd
(PID.TID 0000.0001) //     11 ......pdca--achlheba--ai..........nkn.fd-acghfbaaaa-achmy......................+..nkn.fdemijidaaaabi-------a--q+....++.z.......+++....................++vnbbbcleiis...........+++++..........+yyza----b-fkpkeeecflmqxy....++........+lhfeecc----za----b-----a--ccccddkhieekkossssfbbbbcdeecc------------aaadcbabcfhddccba-------............njjijhhihijhgggggjjjjijkkkkjzqd-----------irw.................++e---jijkkkkjjhcaacddeegpy.....xfdccdhjgfdda-..++e-----mhmijddda--------ahhfiokhedegg
(PID.TID 0000.0001) //     10 ......wfdb--achlhea---an.........uos..dc-adhfca-----bfiv.......................+.uos..dcemikkfdcaabi-------equ+................++sy...................+tq-fdbblcmk...........................zyvuq----ccjknqiheddefhiksz++++........zkhfdccb----uq----cc----a---dcfhkopqjeissrnpfbbcccdedccb------------aabdcaaaacfddbca-------a..........zslihhigghgijjihhhhkllkkkkkkjk+xfa-abb-----vvv...................+wa--kkkkkkjkkkedccdeeeeipz..zwhccbcdhgfddcam...+wa---mlmkijhc----------cjjffiheb-aad
(PID.TID 0000.0001) //      9 ......vgec---bfikca--cjl+.......+nnv.+cc-achfa------ch+..................w......+nnv.+ccffhkkiddaadha-----as++...........w.......njo+................+x-----bcgipvz++........................zxuuk------diqqojfefiiiijmy.++.........zkhfdbaa----uk------a---a----djmqrrnlllsoiddcccccdjfdbaa-------daa---acccaaaacccca--------ac.........+zjijhfgfggffhjkkkiillljihhghgi.+udaabbb----tei...................++qdejihhghgihighdeeffgghimnnjgecbbcdgfeccbas...++qdeqnghiljcaaaaidaa----beedeeca--bb
(PID.TID 0000.0001) //      8 .....zleca---afjfca--hdfz.......vkky.jceaaeifa--acbcei...................w......vkky.jceddefijffdddhb--a-afv.............w.......likn+.....++.....++znpa----bbdinn..ss.........................+yku------fnlmnjhinlksssw............qhfeca------yku--------------ejnpqqnninnritqdccchkmfca--------addc--aeffaaaaaaccb-a----a--bd+.......wihgghgeffffeefhijkjkljiigeeffef.++udbbaba---ven....................++xyigeeffefffhjhhikkklljklmhffeeeggfdcbaay.....++xywnfgllcbbabegkecba----ddddcaacdc
(PID.TID 0000.0001) //      7 ...+zohec--abcfkhecbchbdx.......qiht.faaabfida-aabchjk...................zz.....qiht.faaaabdgijgfededcdcb-f+.............zz.....nhhijz....tqq.....+ujgzgd---abcinn...pz.........................+zu------cegklkkknols..xuu..........zgfdba------+zu--------------edefqgqddsz+......+yuddba--------bcd---affaaadffabbb-----aa-bccmm+....tiggfggfeeeefeeefiiiijkiihheddddd.+.+ufb-----l.gx...........s.........++zhheddddddddjjllliijhfkmmkkjjhijgdcba--q......++zzkfilfccccoz..ulkcd---bccnfddddd
(PID.TID 0000.0001) //      6 ..+yomfddcaabefkifdchaadt......uqdeisc---afhfaa---bfgi....................zz..rnqdeisc----dfefgifffkklldc--v..............zz..rnjffggm...nlmn+....+sffzya--aabciup...pp.........................v.x-----eaaffdfhimrmp...yuu.++.......zudba------v.x---------a----fbbpqgzenx+........zdbcba--------adc---dda-adffe-aa--------aaacmllkhhfffffffgfeeeeeeeefhhhhijihhffddcbb....+ufc-baaqvhh..........dcfeeh......++hffddcbbbbdhhiihedddb-cfhhhjjjieca----+.......++zggqvifefhz......zobbaccfwuffeee
(PID.TID 0000.0001) //      5 ..+nhgffkghccfhkhffgdaackz....uoibcimlaababcgca----abe.....................ysstlibcimlaaacfbddfjjhijeehf-a-c...............ysstlgeeeeoz..ijklt+....lfjzzf---adfczs...su.........................qk.yi---fdaadcehllotq....yy+++zzs.....+zcba-----qk.yi-------gha-fjddqs+xkrz.........q-bccba-------cdd--aaa----df------------aaachikdccdeeeeeeedddedddddgghhhhjhhgffcbbaa.....+upjdcy.vohq.......+idcdfeeefwz....gffcbbaaaaddfegecca----dfeefhfgdb-----+.efwz....+hhn.vklox.........gdccfjwrigffh
(PID.TID 0000.0001) //      4 .+ujhgfllfhdffhkfffca-aady...llnabdopfcbfbbbcgfcaa-aae+.......................lcabdopfcbdgdbcdehlihgfddc--ms..................lcgfdddhq.+hiilnz++.+oquxyz--adgkf................................okn.zd--dcaabcfmtooyxz......+yuiiy....++gb------okn.zd---eciiiicfkeeqy.ysz..........n-aagb--------ddcca-a-----acbaa------bbaaaabfgdcbbdeddedcdcccdddcddffggghiggfffdbaa-........ywxy.lulo.lv...kcdgddffefffilyx+fffdbaa---acdcccba--abvfedeffdcca----b+.fffilyx+fffk.+xyyy.........mgeimvskjklll
(PID.TID 0000.0001) //      3 +vjggfcceeffffjlkjgaa---bfvheeln-aesphfdzmfeccdghfeegcbt......................aa-aesphfdhgabddeflihhgfecbaaayq+++++...........aafifccgnrzgghjry.+++sr+lq.--edfkk................................kqnz.vtpoxtkblwnnsp.vv......skhggt...+++t-------kqnz.vtpkllgdccfkkkkk..++..........+g---t---------bdaf---------edd-------adlaaaafecaaadcdddcbbbbcdddcccdffffghgffffdcaa-+..........vnhzy.tllqiedccdhggfggffiiggffffdcaa----abcaaaa-acxxmecdjmdbba----r+.gffiiggfcbdgy..yz..........xigqophijkkii
(PID.TID 0000.0001) //      2 qifeecbbccddefilihecbaacbaajfega-aesqhff..wifedfkhfegbbcivlqfoz..............jaa-aesqhffiea-cdeflkkljifeddcba---bry+.........jaacfihggokeeffgt..++++..hhlfdeddke...............................vkqn+.sghz..qcz+.zwxtsttz..ysrkhot++++++zig------kqn+.sghfcbcbbbdgfdek.++++.........+l---ig--------b--f---------egqqqaa----frb---caaaaaccdccbaaabbddddccdffffghfeeeeecba-+........+kkrhw.vqmlnieddcdehgggffgigedbeeeecba------baaaa-euwxqdbcdkud-----sy+.ffgigedbaaceiy.............zilrddefikkhh
(PID.TID 0000.0001) //      1 ebbbbaaaaaccdfhlhfefdcccaabjefbaaafonhgl..+wfeefikhgcbbccaaacgn.............icaaaafonhglid--adfgkkkklkhffddca-----s++++.....icaaccfihfoedddeedy..++...nnqwgfeeke...............................xsrxz.tedyy.z++..+zsjjllllljllpjos+++.+zhhi-----esrxz.tedcbbbbaaadddet.++++.........+l---hi-----e-----ea--------foqqoqqo--hlwgea----a-accddba--bbbddddccdfffhhgfeeddccba-.........+nk+..xiioonhfefddegihhghigfdbaeddccba-------aaaabgns.qcbcchyzqngll++..ghigfdbaaabdgx..............nheddefiklhg
(PID.TID 0000.0001) //      0 -aaaaaaa-aacccfikkhecccbbbaaabaadfkllilm....wiheddeccdfhfbabdfl............jdbaddfkllilmgebaadfijjiiikjhffdcba-----lllgn...jdbaddddgifkccccdccd+.++..++ynvz.tkkq.............................++..u+..zmd.mu....++zyslllllkhggkmpy++...ihhi-----e.u+..zmdfbd---a-aeef.xx+..........+++s--hi-----ea---feb-----a-acnoohfghknvmwnuca-----accdcb---bbbcdddddefffggfeeedcccbba..........qhu..hhhkojgffgeefghihhiieedbaedcccbba----aa--alrwwy.kcbccc+...++++...hiieedbaaabcdy..............ygddeghiljgf
(PID.TID 0000.0001) //     -1 --aaaaa----aacffiljgfffcca--adfikkiikimi......ylea--acfihebcbbes..........sfcbbnkkiikimiiheccfurkiffhijjigfecb-----l----..sfcbbngfffigcaaabdbcac+.+++++zgmpx...y.............................+++++.z+.wq.mm....++..zslwz.yhhhhnz+++...rhgc----ab++.z+.wqgbf-------dgzpoy+........+ys+yrbgc----ab----ige----acaaalllkddfiy..yswxb--aa-abcccb---bbbbddddeffflhfeeeecbbcbba..........thk.xgghiligfghfefhhhhiiheedcdecbbcbbaa----a--bdflm.yuibbcc.......+...iiheedcdbbabdmz.............zfdeghikkifd
(PID.TID 0000.0001) //     -2 --aaa-------acdefinmlgiieb-chnnnmlmlfklk........c---acgkhdcc--di..........ofddchmlmlfklklkhednwwsheeghhijjgfdca----g---a..ofddchohffikaaaaabaaa-aw+.+ysnggox++...............................+++++wmu++y.qrv..........yzzzzrjil+++....qhgd-----a++wmu++ywn--------fwvmgy+........+r-.+++gd-----a-----i---cccdeabkklldinqssy..xxv-abc--abbbb---abaaddddeedkmeddefdbbbdcba...........+y.uhghikihgfghefgihhhgeeeeeddbbbdcbaa-------ba-hv.susfbcc.......+...hgeeeeeddbaadhw.............nedeghjjhfed
(PID.TID 0000.0001) //     -3 a--a---aa---aedeegknmlgiigcdfhpokkimdkmk.......+b----cfkhec---afz.........nhfdffkkimdkmknoiedcfjvpddegghhhhgfdcbaa-n---a..nhfdffholghkaaaaaba-a---flkkuswyy++++y..............................+++yqd.++++zr...........zzzzz++ry++......yd-------+yqd.+++zvq--dafz.lqnggw+........+b-....d--------------aeecdeidfkkqnqlmqquukqqmfabcc---aaba------acdddcbcineddgdbaaaeedb..............iihiijjhfefgefhjihiffgggffbaaaeedbaa----------nysqssfcd...........iffgggffecaabelx...........zjecehijhfecc
(PID.TID 0000.0001) // =======================================================
(PID.TID 0000.0001) // END OF FIELD                                          =
(PID.TID 0000.0001) // =======================================================
(PID.TID 0000.0001) 
(PID.TID 0000.0001) // =======================================================
(PID.TID 0000.0001) // Field Model Ro_surf (ini_masks_etc)
(PID.TID 0000.0001) // CMIN =          1.000000000000000E+32
(PID.TID 0000.0001) // CMAX =         -1.000000000000000E+32
(PID.TID 0000.0001) // CINT =          0.000000000000000E+00
(PID.TID 0000.0001) // SYMBOLS (CMIN->CMAX): -abcdefghijklmnopqrstuvwxyz+
(PID.TID 0000.0001) //                  0.0: .
(PID.TID 0000.0001) // RANGE I (Lo:Hi:Step):(    -3:   388:     1)
(PID.TID 0000.0001) // RANGE J (Lo:Hi:Step):(    20:    -3:    -1)
(PID.TID 0000.0001) // RANGE K (Lo:Hi:Step):(   1:   1:   1)
(PID.TID 0000.0001) // =======================================================
(PID.TID 0000.0001) // =======================================================
(PID.TID 0000.0001) // END OF FIELD                                          =
(PID.TID 0000.0001) // =======================================================
(PID.TID 0000.0001) 
(PID.TID 0000.0001) // =======================================================
(PID.TID 0000.0001) // Field hFacC at iteration          0
(PID.TID 0000.0001) // CMIN =          1.000000000000000E+00
(PID.TID 0000.0001) // CMAX =          1.000000000000000E+00
(PID.TID 0000.0001) // CINT =          0.000000000000000E+00
(PID.TID 0000.0001) // SYMBOLS (CMIN->CMAX): -abcdefghijklmnopqrstuvwxyz+
(PID.TID 0000.0001) //                  0.0: .
(PID.TID 0000.0001) // RANGE I (Lo:Hi:Step):(    -3:   388:     1)
(PID.TID 0000.0001) // RANGE J (Lo:Hi:Step):(    20:    -3:    -1)
(PID.TID 0000.0001) // RANGE K (Lo:Hi:Step):(   1:   1:   1)
(PID.TID 0000.0001) // =======================================================
(PID.TID 0000.0001) // =======================================================
(PID.TID 0000.0001) // END OF FIELD                                          =
(PID.TID 0000.0001) // =======================================================
(PID.TID 0000.0001) 
(PID.TID 0000.0001) // =======================================================
(PID.TID 0000.0001) // Field hFacW at iteration          0
(PID.TID 0000.0001) // CMIN =          1.000000000000000E+00
(PID.TID 0000.0001) // CMAX =          1.000000000000000E+00
(PID.TID 0000.0001) // CINT =          0.000000000000000E+00
(PID.TID 0000.0001) // SYMBOLS (CMIN->CMAX): -abcdefghijklmnopqrstuvwxyz+
(PID.TID 0000.0001) //                  0.0: .
(PID.TID 0000.0001) // RANGE I (Lo:Hi:Step):(    -3:   388:     1)
(PID.TID 0000.0001) // RANGE J (Lo:Hi:Step):(    20:    -3:    -1)
(PID.TID 0000.0001) // RANGE K (Lo:Hi:Step):(   1:   1:   1)
(PID.TID 0000.0001) // =======================================================
(PID.TID 0000.0001) // =======================================================
(PID.TID 0000.0001) // END OF FIELD                                          =
(PID.TID 0000.0001) // =======================================================
(PID.TID 0000.0001) 
(PID.TID 0000.0001) // =======================================================
(PID.TID 0000.0001) // Field hFacS at iteration          0
(PID.TID 0000.0001) // CMIN =          1.000000000000000E+00
(PID.TID 0000.0001) // CMAX =          1.000000000000000E+00
(PID.TID 0000.0001) // CINT =          0.000000000000000E+00
(PID.TID 0000.0001) // SYMBOLS (CMIN->CMAX): -abcdefghijklmnopqrstuvwxyz+
(PID.TID 0000.0001) //                  0.0: .
(PID.TID 0000.0001) // RANGE I (Lo:Hi:Step):(    -3:   388:     1)
(PID.TID 0000.0001) // RANGE J (Lo:Hi:Step):(    20:    -3:    -1)
(PID.TID 0000.0001) // RANGE K (Lo:Hi:Step):(   1:   1:   1)
(PID.TID 0000.0001) // =======================================================
(PID.TID 0000.0001) // =======================================================
(PID.TID 0000.0001) // END OF FIELD                                          =
(PID.TID 0000.0001) // =======================================================
(PID.TID 0000.0001) 
(PID.TID 0000.0001) 
(PID.TID 0000.0001) // =======================================================
(PID.TID 0000.0001) // Calendar configuration >>> START <<<
(PID.TID 0000.0001) // =======================================================
(PID.TID 0000.0001) 
(PID.TID 0000.0001) modelstart = /* Start time of the model integration [s] */
(PID.TID 0000.0001)                 6.220800000000000E+09
(PID.TID 0000.0001)     ;
(PID.TID 0000.0001) modelend  = /* End time of the model integration [s] */
(PID.TID 0000.0001)                 6.221664000000000E+09
(PID.TID 0000.0001)     ;
(PID.TID 0000.0001) modelStep = /* Time interval for a model forward step [s] */
(PID.TID 0000.0001)                 8.640000000000000E+04
(PID.TID 0000.0001)     ;
(PID.TID 0000.0001) usingGregorianCalendar= /* Calendar Type: Gregorian Calendar */
(PID.TID 0000.0001)                   F
(PID.TID 0000.0001)     ;
(PID.TID 0000.0001) usingJulianCalendar = /* Calendar Type: Julian Calendar */
(PID.TID 0000.0001)                   F
(PID.TID 0000.0001)     ;
(PID.TID 0000.0001) usingNoLeapYearCal  = /* Calendar Type: without Leap Year */
(PID.TID 0000.0001)                   F
(PID.TID 0000.0001)     ;
(PID.TID 0000.0001) usingModelCalendar  = /* Calendar Type: Model Calendar */
(PID.TID 0000.0001)                   T
(PID.TID 0000.0001)     ;
(PID.TID 0000.0001) modelStartDate YYYYMMDD = /* Model start date YYYY-MM-DD */
(PID.TID 0000.0001)                 2010101
(PID.TID 0000.0001)     ;
(PID.TID 0000.0001)   modelStartDate HHMMSS = /* Model start date HH-MM-SS  */
(PID.TID 0000.0001)                       0
(PID.TID 0000.0001)     ;
(PID.TID 0000.0001) modelEndDate   YYYYMMDD = /* Model end date YYYY-MM-DD */
(PID.TID 0000.0001)                 2010111
(PID.TID 0000.0001)     ;
(PID.TID 0000.0001)   modelEndDate   HHMMSS = /* Model end date HH-MM-SS  */
(PID.TID 0000.0001)                       0
(PID.TID 0000.0001)     ;
(PID.TID 0000.0001) intyears = /* Number of calendar years affected by the integration */
(PID.TID 0000.0001)                       1
(PID.TID 0000.0001)     ;
(PID.TID 0000.0001) intmonths= /* Number of calendar months affected by the integration */
(PID.TID 0000.0001)                       1
(PID.TID 0000.0001)     ;
(PID.TID 0000.0001) intdays = /* Number of calendar days affected by the integration */
(PID.TID 0000.0001)                      10
(PID.TID 0000.0001)     ;
(PID.TID 0000.0001) modelIter0 = /* Base timestep number  */
(PID.TID 0000.0001)                   72000
(PID.TID 0000.0001)     ;
(PID.TID 0000.0001) modelIterEnd = /* Final timestep number  */
(PID.TID 0000.0001)                   72010
(PID.TID 0000.0001)     ;
(PID.TID 0000.0001) modelIntSteps= /* Number of model timesteps  */
(PID.TID 0000.0001)                      10
(PID.TID 0000.0001)     ;
(PID.TID 0000.0001) 
(PID.TID 0000.0001) // =======================================================
(PID.TID 0000.0001) // Calendar configuration  >>> END <<<
(PID.TID 0000.0001) // =======================================================
(PID.TID 0000.0001) 
(PID.TID 0000.0001) GAD_INIT_FIXED: GAD_OlMinSize=  1  0  1
(PID.TID 0000.0001) 
(PID.TID 0000.0001) // ===================================
(PID.TID 0000.0001) // GAD parameters :
(PID.TID 0000.0001) // ===================================
(PID.TID 0000.0001) tempAdvScheme =   /* Temp. Horiz.Advection scheme selector */
(PID.TID 0000.0001)                       2
(PID.TID 0000.0001)     ;
(PID.TID 0000.0001) tempVertAdvScheme =   /* Temp. Vert. Advection scheme selector */
(PID.TID 0000.0001)                       2
(PID.TID 0000.0001)     ;
(PID.TID 0000.0001) tempMultiDimAdvec =   /* use Muti-Dim Advec method for Temp */
(PID.TID 0000.0001)                   F
(PID.TID 0000.0001)     ;
(PID.TID 0000.0001) tempSOM_Advection = /* use 2nd Order Moment Advection for Temp */
(PID.TID 0000.0001)                   F
(PID.TID 0000.0001)     ;
(PID.TID 0000.0001) AdamsBashforthGt = /* apply Adams-Bashforth extrapolation on Gt */
(PID.TID 0000.0001)                   T
(PID.TID 0000.0001)     ;
(PID.TID 0000.0001) AdamsBashforth_T = /* apply Adams-Bashforth extrapolation on Temp */
(PID.TID 0000.0001)                   F
(PID.TID 0000.0001)     ;
(PID.TID 0000.0001) saltAdvScheme =   /* Salt. Horiz.advection scheme selector */
(PID.TID 0000.0001)                       2
(PID.TID 0000.0001)     ;
(PID.TID 0000.0001) saltVertAdvScheme =   /* Salt. Vert. Advection scheme selector */
(PID.TID 0000.0001)                       2
(PID.TID 0000.0001)     ;
(PID.TID 0000.0001) saltMultiDimAdvec =   /* use Muti-Dim Advec method for Salt */
(PID.TID 0000.0001)                   F
(PID.TID 0000.0001)     ;
(PID.TID 0000.0001) saltSOM_Advection = /* use 2nd Order Moment Advection for Salt */
(PID.TID 0000.0001)                   F
(PID.TID 0000.0001)     ;
(PID.TID 0000.0001) AdamsBashforthGs = /* apply Adams-Bashforth extrapolation on Gs */
(PID.TID 0000.0001)                   T
(PID.TID 0000.0001)     ;
(PID.TID 0000.0001) AdamsBashforth_S = /* apply Adams-Bashforth extrapolation on Salt */
(PID.TID 0000.0001)                   F
(PID.TID 0000.0001)     ;
(PID.TID 0000.0001) // ===================================
(PID.TID 0000.0001) 
(PID.TID 0000.0001) // =======================================================
(PID.TID 0000.0001) // External forcing (EXF) configuration >>> START <<<
(PID.TID 0000.0001) // =======================================================
(PID.TID 0000.0001) 
(PID.TID 0000.0001)  EXF general parameters:
(PID.TID 0000.0001) 
(PID.TID 0000.0001) exf_iprec = /* exf file precision */
(PID.TID 0000.0001)                      64
(PID.TID 0000.0001)     ;
(PID.TID 0000.0001) useExfYearlyFields = /* add extension _YEAR to input file names */
(PID.TID 0000.0001)                   F
(PID.TID 0000.0001)     ;
(PID.TID 0000.0001) twoDigitYear = /* use 2-digit year extension */
(PID.TID 0000.0001)                   F
(PID.TID 0000.0001)     ;
(PID.TID 0000.0001) useExfCheckRange = /* check for fields range */
(PID.TID 0000.0001)                   T
(PID.TID 0000.0001)     ;
(PID.TID 0000.0001) exf_debugLev = /* select EXF-debug printing level */
(PID.TID 0000.0001)                       2
(PID.TID 0000.0001)     ;
(PID.TID 0000.0001) exf_monFreq  = /* EXF monitor frequency [ s ] */
(PID.TID 0000.0001)                 0.000000000000000E+00
(PID.TID 0000.0001)     ;
(PID.TID 0000.0001) repeatPeriod = /* period for cycling forcing dataset [ s ] */
(PID.TID 0000.0001)                 3.110400000000000E+07
(PID.TID 0000.0001)     ;
(PID.TID 0000.0001) climTempFreeze= /* Minimum climatological temperature [deg.C] */
(PID.TID 0000.0001)                -1.900000000000000E+00
(PID.TID 0000.0001)     ;
(PID.TID 0000.0001) windStressMax = /* Maximum absolute windstress [ Pa ] */
(PID.TID 0000.0001)                 2.000000000000000E+00
(PID.TID 0000.0001)     ;
(PID.TID 0000.0001) stressIsOnCgrid = /* set u,v_stress on Arakawa C-grid */
(PID.TID 0000.0001)                   T
(PID.TID 0000.0001)     ;
(PID.TID 0000.0001) rotateStressOnAgrid = /* rotate u,v_stress on Arakawa A-grid */
(PID.TID 0000.0001)                   F
(PID.TID 0000.0001)     ;
(PID.TID 0000.0001) cen2kel = /* conversion of deg. Centigrade to Kelvin [K] */
(PID.TID 0000.0001)                 2.731500000000000E+02
(PID.TID 0000.0001)     ;
(PID.TID 0000.0001) gravity_mks= /* gravitational acceleration [m/s^2] */
(PID.TID 0000.0001)                 9.810000000000000E+00
(PID.TID 0000.0001)     ;
(PID.TID 0000.0001) atmrho =  /* mean atmospheric density [kg/m^3] */
(PID.TID 0000.0001)                 1.220000000000000E+00
(PID.TID 0000.0001)     ;
(PID.TID 0000.0001) atmcp =  /* mean atmospheric specific heat [J/kg/K] */
(PID.TID 0000.0001)                 1.005000000000000E+03
(PID.TID 0000.0001)     ;
(PID.TID 0000.0001) flamb =  /* latent heat of evaporation [J/kg] */
(PID.TID 0000.0001)                 2.500000000000000E+06
(PID.TID 0000.0001)     ;
(PID.TID 0000.0001) flami =  /* latent heat of pure-ice melting [J/kg] */
(PID.TID 0000.0001)                 3.340000000000000E+05
(PID.TID 0000.0001)     ;
(PID.TID 0000.0001) cvapor_fac = /* const. for Saturation calculation [?] */
(PID.TID 0000.0001)                 6.403800000000000E+05
(PID.TID 0000.0001)     ;
(PID.TID 0000.0001) cvapor_exp = /* const. for Saturation calculation [?] */
(PID.TID 0000.0001)                 5.107400000000000E+03
(PID.TID 0000.0001)     ;
(PID.TID 0000.0001) cvapor_fac_ice= /* const. for Saturation calculation [?] */
(PID.TID 0000.0001)                 1.163780000000000E+07
(PID.TID 0000.0001)     ;
(PID.TID 0000.0001) cvapor_exp_ice= /* const. for Saturation calculation [?] */
(PID.TID 0000.0001)                 5.897800000000000E+03
(PID.TID 0000.0001)     ;
(PID.TID 0000.0001) humid_fac = /* humidity coef. in virtual temp. [(kg/kg)^-1] */
(PID.TID 0000.0001)                 6.080000000000000E-01
(PID.TID 0000.0001)     ;
(PID.TID 0000.0001) gamma_blk = /* adiabatic lapse rate [?] */
(PID.TID 0000.0001)                 1.000000000000000E-02
(PID.TID 0000.0001)     ;
(PID.TID 0000.0001) saltsat = /* reduction of Qsat over salty water [-] */
(PID.TID 0000.0001)                 9.800000000000000E-01
(PID.TID 0000.0001)     ;
(PID.TID 0000.0001) noNegativeEvap = /* prevent negative Evaporation */
(PID.TID 0000.0001)                   F
(PID.TID 0000.0001)     ;
(PID.TID 0000.0001) sstExtrapol = /* extrapolation coeff from lev. 1 & 2 to surf [-] */
(PID.TID 0000.0001)                 0.000000000000000E+00
(PID.TID 0000.0001)     ;
(PID.TID 0000.0001) cDrag_1 = /* coef used in drag calculation [?] */
(PID.TID 0000.0001)                 2.700000000000000E-03
(PID.TID 0000.0001)     ;
(PID.TID 0000.0001) cDrag_2 = /* coef used in drag calculation [?] */
(PID.TID 0000.0001)                 1.420000000000000E-04
(PID.TID 0000.0001)     ;
(PID.TID 0000.0001) cDrag_3 = /* coef used in drag calculation [?] */
(PID.TID 0000.0001)                 7.640000000000000E-05
(PID.TID 0000.0001)     ;
(PID.TID 0000.0001) cStanton_1 = /* coef used in Stanton number calculation [?] */
(PID.TID 0000.0001)                 3.270000000000000E-02
(PID.TID 0000.0001)     ;
(PID.TID 0000.0001) cStanton_2 = /* coef used in Stanton number calculation [?] */
(PID.TID 0000.0001)                 1.800000000000000E-02
(PID.TID 0000.0001)     ;
(PID.TID 0000.0001) cDalton = /* coef used in Dalton number calculation [?] */
(PID.TID 0000.0001)                 3.460000000000000E-02
(PID.TID 0000.0001)     ;
(PID.TID 0000.0001) exf_scal_BulkCdn= /* Drag coefficient scaling factor [-] */
(PID.TID 0000.0001)                 1.000000000000000E+00
(PID.TID 0000.0001)     ;
(PID.TID 0000.0001) zolmin = /* minimum stability parameter [?] */
(PID.TID 0000.0001)                -1.000000000000000E+02
(PID.TID 0000.0001)     ;
(PID.TID 0000.0001) psim_fac = /* coef used in turbulent fluxes calculation [-] */
(PID.TID 0000.0001)                 5.000000000000000E+00
(PID.TID 0000.0001)     ;
(PID.TID 0000.0001) zref =  /* reference height [ m ] */
(PID.TID 0000.0001)                 1.000000000000000E+01
(PID.TID 0000.0001)     ;
(PID.TID 0000.0001) hu =  /* height of mean wind [ m ] */
(PID.TID 0000.0001)                 1.000000000000000E+01
(PID.TID 0000.0001)     ;
(PID.TID 0000.0001) ht =  /* height of mean temperature [ m ] */
(PID.TID 0000.0001)                 1.000000000000000E+01
(PID.TID 0000.0001)     ;
(PID.TID 0000.0001) hq =  /* height of mean spec.humidity [ m ] */
(PID.TID 0000.0001)                 1.000000000000000E+01
(PID.TID 0000.0001)     ;
(PID.TID 0000.0001) uMin = /* minimum wind speed [m/s] */
(PID.TID 0000.0001)                 5.000000000000000E-01
(PID.TID 0000.0001)     ;
(PID.TID 0000.0001) useStabilityFct_overIce= /* transfert Coeffs over sea-ice depend on stability */
(PID.TID 0000.0001)                   F
(PID.TID 0000.0001)     ;
(PID.TID 0000.0001) exf_iceCd = /* drag coefficient over sea-ice (fixed) [-] */
(PID.TID 0000.0001)                 1.630000000000000E-03
(PID.TID 0000.0001)     ;
(PID.TID 0000.0001) exf_iceCe = /* transfert coeff. over sea-ice, for Evap (fixed) [-] */
(PID.TID 0000.0001)                 1.630000000000000E-03
(PID.TID 0000.0001)     ;
(PID.TID 0000.0001) exf_iceCh = /* transfert coeff. over sea-ice, Sens.Heat.(fixed)[-] */
(PID.TID 0000.0001)                 1.630000000000000E-03
(PID.TID 0000.0001)     ;
(PID.TID 0000.0001) exf_albedo =  /* Sea-water albedo [-] */
(PID.TID 0000.0001)                 6.600000000000000E-02
(PID.TID 0000.0001)     ;
(PID.TID 0000.0001) useExfZenAlbedo = /* Sea-water albedo varies with zenith angle */
(PID.TID 0000.0001)                   F
(PID.TID 0000.0001)     ;
(PID.TID 0000.0001) select_ZenAlbedo = /* Sea-water albedo computation method */
(PID.TID 0000.0001)                       0
(PID.TID 0000.0001)     ;
(PID.TID 0000.0001) useExfZenIncoming = /* compute incoming solar radiation */
(PID.TID 0000.0001)                   F
(PID.TID 0000.0001)     ;
(PID.TID 0000.0001) ocean_emissivity = /* longwave ocean-surface emissivity [-] */
(PID.TID 0000.0001)                 1.000000000000000E+00
(PID.TID 0000.0001)     ;
(PID.TID 0000.0001) ice_emissivity = /* longwave seaice emissivity [-] */
(PID.TID 0000.0001)                 9.500000000000000E-01
(PID.TID 0000.0001)     ;
(PID.TID 0000.0001) snow_emissivity = /* longwave snow  emissivity [-] */
(PID.TID 0000.0001)                 9.500000000000000E-01
(PID.TID 0000.0001)     ;
(PID.TID 0000.0001) 
(PID.TID 0000.0001)  EXF main CPP flags:
(PID.TID 0000.0001) 
(PID.TID 0000.0001) // USE_EXF_INTERPOLATION:          NOT defined
(PID.TID 0000.0001) // ALLOW_ATM_TEMP:                     defined
(PID.TID 0000.0001) // ALLOW_ATM_WIND (useAtmWind):    NOT defined
(PID.TID 0000.0001) // ALLOW_DOWNWARD_RADIATION:           defined
(PID.TID 0000.0001) // ALLOW_BULKFORMULAE:                 defined
(PID.TID 0000.0001) 
(PID.TID 0000.0001)    Zonal wind stress forcing starts at             1296000.
(PID.TID 0000.0001)    Zonal wind stress forcing period is             2592000.
(PID.TID 0000.0001)    Zonal wind stress forcing repeat-cycle is      31104000.
(PID.TID 0000.0001)    Zonal wind stress forcing is read from file:
(PID.TID 0000.0001)    >> trenberth_taux.bin <<
(PID.TID 0000.0001) 
(PID.TID 0000.0001)    Meridional wind stress forcing starts at        1296000.
(PID.TID 0000.0001)    Meridional wind stress forcing period is        2592000.
(PID.TID 0000.0001)    Meridional wind stress forcing rep-cycle is    31104000.
(PID.TID 0000.0001)    Meridional wind stress forcing is read from file:
(PID.TID 0000.0001)    >> trenberth_tauy.bin <<
(PID.TID 0000.0001) 
(PID.TID 0000.0001)    Atmospheric temperature starts at               1296000.
(PID.TID 0000.0001)    Atmospheric temperature period is               2592000.
(PID.TID 0000.0001)    Atmospheric temperature repeat-cycle is        31104000.
(PID.TID 0000.0001)    Atmospheric temperature is read from file:
(PID.TID 0000.0001)    >> core_t_Air_cs32.bin <<
(PID.TID 0000.0001) 
(PID.TID 0000.0001)    Atmospheric specific humidity starts at         1296000.
(PID.TID 0000.0001)    Atmospheric specific humidity period is         2592000.
(PID.TID 0000.0001)    Atmospheric specific humidity rep-cycle is     31104000.
(PID.TID 0000.0001)    Atmospheric specific humidity is read from file:
(PID.TID 0000.0001)    >> core_q_air_cs32.bin <<
(PID.TID 0000.0001) 
(PID.TID 0000.0001) // ALLOW_READ_TURBFLUXES:          NOT defined
(PID.TID 0000.0001) // EXF_READ_EVAP:                  NOT defined
(PID.TID 0000.0001) 
(PID.TID 0000.0001)    Precipitation data starts at                    1296000.
(PID.TID 0000.0001)    Precipitation data period is                    2592000.
(PID.TID 0000.0001)    Precipitation data repeat-cycle is             31104000.
(PID.TID 0000.0001)    Precipitation data is read from file:
(PID.TID 0000.0001)    >> core_prec_1_cs32.bin <<
(PID.TID 0000.0001) 
(PID.TID 0000.0001) // ALLOW_RUNOFF:                       defined
(PID.TID 0000.0001)    Runoff data starts at                           1296000.
(PID.TID 0000.0001)    Runoff data period is                           2592000.
(PID.TID 0000.0001)    Runoff data repeat-cycle is                    31104000.
(PID.TID 0000.0001)    Runoff data is read from file:
(PID.TID 0000.0001)    >> core_rnof_1_cs32.bin <<
(PID.TID 0000.0001) 
(PID.TID 0000.0001) // ALLOW_RUNOFTEMP:                    defined
(PID.TID 0000.0001)    Runoff temp. is read from file:
(PID.TID 0000.0001)    >> runoff_temperature.bin <<
(PID.TID 0000.0001) 
(PID.TID 0000.0001) // ALLOW_SALTFLX:                  NOT defined
(PID.TID 0000.0001) 
(PID.TID 0000.0001)    Downward shortwave flux starts at               1296000.
(PID.TID 0000.0001)    Downward shortwave flux period is               2592000.
(PID.TID 0000.0001)    Downward shortwave flux repeat-cycle is        31104000.
(PID.TID 0000.0001)    Downward shortwave flux is read from file:
(PID.TID 0000.0001)    >> core_dwnSw_cs32.bin <<
(PID.TID 0000.0001) 
(PID.TID 0000.0001)    Downward longwave flux starts at                1296000.
(PID.TID 0000.0001)    Downward longwave flux period is                2592000.
(PID.TID 0000.0001)    Downward longwave flux repeat-cycle is         31104000.
(PID.TID 0000.0001)    Downward longwave flux is read from file:
(PID.TID 0000.0001)    >> core_dwnLw_cs32.bin <<
(PID.TID 0000.0001) 
(PID.TID 0000.0001) // =======================================================
(PID.TID 0000.0001) // External forcing (EXF) climatology configuration :
(PID.TID 0000.0001) // =======================================================
(PID.TID 0000.0001) 
(PID.TID 0000.0001) // ALLOW_CLIMSST_RELAXATION:           defined
(PID.TID 0000.0001)    Climatological SST starts at                    1296000.
(PID.TID 0000.0001)    Climatological SST period is                    2592000.
(PID.TID 0000.0001)    Climatological SST repeat-cycle is             31104000.
(PID.TID 0000.0001)    Climatological SST is read from file:
(PID.TID 0000.0001)    >> lev_surfT_cs_12m.bin <<
(PID.TID 0000.0001) 
(PID.TID 0000.0001) // ALLOW_CLIMSSS_RELAXATION:           defined
(PID.TID 0000.0001)    Climatological SSS starts at                    1296000.
(PID.TID 0000.0001)    Climatological SSS period is                    2592000.
(PID.TID 0000.0001)    Climatological SSS repeat-cycle is             31104000.
(PID.TID 0000.0001)    Climatological SSS is read from file:
(PID.TID 0000.0001)    >> lev_surfS_cs_12m.bin <<
(PID.TID 0000.0001) 
(PID.TID 0000.0001) // =======================================================
(PID.TID 0000.0001) // External forcing (EXF) configuration  >>> END <<<
(PID.TID 0000.0001) // =======================================================
(PID.TID 0000.0001) 
(PID.TID 0000.0001) // =======================================================
(PID.TID 0000.0001) // Seaice configuration (SEAICE_PARM01) >>> START <<<
(PID.TID 0000.0001) // =======================================================
(PID.TID 0000.0001) 
(PID.TID 0000.0001)    Seaice time stepping configuration   > START <
(PID.TID 0000.0001)    ----------------------------------------------
(PID.TID 0000.0001) SEAICE_deltaTtherm= /* thermodynamic timestep */
(PID.TID 0000.0001)                 8.640000000000000E+04
(PID.TID 0000.0001)     ;
(PID.TID 0000.0001) SEAICE_deltaTdyn  = /* dynamic timestep */
(PID.TID 0000.0001)                 8.640000000000000E+04
(PID.TID 0000.0001)     ;
(PID.TID 0000.0001) SEAICEuseBDF2  = /* use backw. differencing for mom. eq. */
(PID.TID 0000.0001)                   F
(PID.TID 0000.0001)     ;
(PID.TID 0000.0001) SEAICErestoreUnderIce  = /* restore T and S under ice */
(PID.TID 0000.0001)                   F
(PID.TID 0000.0001)     ;
(PID.TID 0000.0001) 
(PID.TID 0000.0001)    Seaice dynamics configuration   > START <
(PID.TID 0000.0001)    ------------------------------------------
(PID.TID 0000.0001) SEAICEuseDYNAMICS = /* use dynamics */
(PID.TID 0000.0001)                   T
(PID.TID 0000.0001)     ;
(PID.TID 0000.0001) model grid type   = /* type of sea ice model grid */
(PID.TID 0000.0001)               'C-GRID'
(PID.TID 0000.0001)     ;
(PID.TID 0000.0001) SEAICEuseStrImpCpl = /* use strongly implicit coupling */
(PID.TID 0000.0001)                   T
(PID.TID 0000.0001)     ;
(PID.TID 0000.0001) SEAICEusePicardAsPrecon = /* Picard as preconditioner */
(PID.TID 0000.0001)                   F
(PID.TID 0000.0001)     ;
(PID.TID 0000.0001) SEAICEuseLSR      = /* use default Picard-LSR solver */
(PID.TID 0000.0001)                   T
(PID.TID 0000.0001)     ;
(PID.TID 0000.0001) SEAICEuseKrylov   = /* use Picard-Krylov solver */
(PID.TID 0000.0001)                   F
(PID.TID 0000.0001)     ;
(PID.TID 0000.0001) SEAICEuseEVP      = /* use EVP solver rather than LSR */
(PID.TID 0000.0001)                   F
(PID.TID 0000.0001)     ;
(PID.TID 0000.0001) SEAICEuseJFNK     = /* use JFNK solver */
(PID.TID 0000.0001)                   F
(PID.TID 0000.0001)     ;
(PID.TID 0000.0001) OCEAN_drag        = /* air-ocean drag coefficient */
(PID.TID 0000.0001)                 1.000000000000000E-03
(PID.TID 0000.0001)     ;
(PID.TID 0000.0001) SEAICE_drag       = /* air-ice drag coefficient */
(PID.TID 0000.0001)                 2.000000000000000E-03
(PID.TID 0000.0001)     ;
(PID.TID 0000.0001) SEAICE_drag_south      = /* Southern Ocean SEAICE_drag */
(PID.TID 0000.0001)                 2.000000000000000E-03
(PID.TID 0000.0001)     ;
(PID.TID 0000.0001) SEAICE_waterDrag  = /* water-ice drag * density */
(PID.TID 0000.0001)                 5.500000000000000E+00
(PID.TID 0000.0001)     ;
(PID.TID 0000.0001) SEAICE_waterDrag_south = /* Southern Ocean waterDrag */
(PID.TID 0000.0001)                 5.500000000000000E+00
(PID.TID 0000.0001)     ;
(PID.TID 0000.0001) SEAICEuseTilt     = /* include surface tilt in dyna. */
(PID.TID 0000.0001)                   T
(PID.TID 0000.0001)     ;
(PID.TID 0000.0001) SEAICEuseTEM      = /* use truncated ellipse rheology */
(PID.TID 0000.0001)                   F
(PID.TID 0000.0001)     ;
(PID.TID 0000.0001) SEAICE_strength   = /* sea-ice strength Pstar */
(PID.TID 0000.0001)                 2.750000000000000E+04
(PID.TID 0000.0001)     ;
(PID.TID 0000.0001) SEAICE_cStar      = /* sea-ice strength parameter cStar */
(PID.TID 0000.0001)                 2.000000000000000E+01
(PID.TID 0000.0001)     ;
(PID.TID 0000.0001) SEAICEpressReplFac= /* press. replacement method factor */
(PID.TID 0000.0001)                 1.000000000000000E+00
(PID.TID 0000.0001)     ;
(PID.TID 0000.0001) SEAICE_tensilFac  = /* sea-ice tensile strength factor */
(PID.TID 0000.0001)                 0.000000000000000E+00
(PID.TID 0000.0001)     ;
(PID.TID 0000.0001) SEAICE_tensilDepth= /* crit. depth for tensile strength */
(PID.TID 0000.0001)                 0.000000000000000E+00
(PID.TID 0000.0001)     ;
(PID.TID 0000.0001) SEAICEpresH0   = /* sea-ice strength Heff threshold */
(PID.TID 0000.0001)                 1.000000000000000E+00
(PID.TID 0000.0001)     ;
(PID.TID 0000.0001) SEAICEpresPow0 = /* exponent for Heff<SEAICEpresH0 */
(PID.TID 0000.0001)                       1
(PID.TID 0000.0001)     ;
(PID.TID 0000.0001) SEAICEpresPow1 = /* exponent for Heff>SEAICEpresH0 */
(PID.TID 0000.0001)                       1
(PID.TID 0000.0001)     ;
(PID.TID 0000.0001) SEAICEetaZmethod = /* method computing eta at Z-point */
(PID.TID 0000.0001)                       0
(PID.TID 0000.0001)     ;
(PID.TID 0000.0001) SEAICE_zetaMin    = /* lower bound for viscosity */
(PID.TID 0000.0001)                 0.000000000000000E+00
(PID.TID 0000.0001)     ;
(PID.TID 0000.0001) SEAICE_eccen    = /* elliptical yield curve eccent */
(PID.TID 0000.0001)                 2.000000000000000E+00
(PID.TID 0000.0001)     ;
(PID.TID 0000.0001) SEAICEstressFactor    = /* wind stress scaling factor */
(PID.TID 0000.0001)                 1.000000000000000E+00
(PID.TID 0000.0001)     ;
(PID.TID 0000.0001) SEAICE_airTurnAngle    = /* air-ice turning angle */
(PID.TID 0000.0001)                 0.000000000000000E+00
(PID.TID 0000.0001)     ;
(PID.TID 0000.0001) SEAICE_waterTurnAngle  = /* ice-water turning angle */
(PID.TID 0000.0001)                 0.000000000000000E+00
(PID.TID 0000.0001)     ;
(PID.TID 0000.0001) SEAICEuseMetricTerms = /* use metric terms */
(PID.TID 0000.0001)                   T
(PID.TID 0000.0001)     ;
(PID.TID 0000.0001) SEAICE_no_slip    = /* no slip boundary conditions */
(PID.TID 0000.0001)                   F
(PID.TID 0000.0001)     ;
(PID.TID 0000.0001) SEAICE_clipVeloctities = /* impose max. vels. */
(PID.TID 0000.0001)                   T
(PID.TID 0000.0001)     ;
(PID.TID 0000.0001) useHB87stressCoupling  = /* altern. ice-ocean stress */
(PID.TID 0000.0001)                   F
(PID.TID 0000.0001)     ;
(PID.TID 0000.0001) SEAICEscaleSurfStress  = /* scale atm. and ocean-surface stress with AREA */
(PID.TID 0000.0001)                   F
(PID.TID 0000.0001)     ;
(PID.TID 0000.0001) SEAICE_maskRHS    = /* mask RHS of solver */
(PID.TID 0000.0001)                   F
(PID.TID 0000.0001)     ;
(PID.TID 0000.0001) SEAICEaddSnowMass = /* add snow mass to seaiceMassC/U/V */
(PID.TID 0000.0001)                   F
(PID.TID 0000.0001)     ;
(PID.TID 0000.0001) LSR_mixIniGuess = /* mix free-drift sol. into LSR initial Guess */
(PID.TID 0000.0001)                      -1
(PID.TID 0000.0001)     ;
(PID.TID 0000.0001) SEAICE_LSRrelaxU  = /* LSR solver: relaxation parameter */
(PID.TID 0000.0001)                 9.500000000000000E-01
(PID.TID 0000.0001)     ;
(PID.TID 0000.0001) SEAICE_LSRrelaxV  = /* LSR solver: relaxation parameter */
(PID.TID 0000.0001)                 9.500000000000000E-01
(PID.TID 0000.0001)     ;
(PID.TID 0000.0001) LSR_ERROR         = /* sets accuracy of LSR solver */
(PID.TID 0000.0001)                 1.000000000000000E-12
(PID.TID 0000.0001)     ;
(PID.TID 0000.0001) SOLV_NCHECK       = /* test interval for LSR solver */
(PID.TID 0000.0001)                       2
(PID.TID 0000.0001)     ;
(PID.TID 0000.0001) SEAICEuseMultiTileSolver = /* use full domain tri-diag solver */
(PID.TID 0000.0001)                   F
(PID.TID 0000.0001)     ;
(PID.TID 0000.0001) SEAICE_OLx = /* overlap for LSR/preconditioner */
(PID.TID 0000.0001)                       2
(PID.TID 0000.0001)     ;
(PID.TID 0000.0001) SEAICE_OLy = /* overlap for LSR/preconditioner */
(PID.TID 0000.0001)                       2
(PID.TID 0000.0001)     ;
(PID.TID 0000.0001) SEAICEnonLinIterMax = /* max. number of nonlinear solver steps */
(PID.TID 0000.0001)                       2
(PID.TID 0000.0001)     ;
(PID.TID 0000.0001) SEAICElinearIterMax = /* max. number of linear solver steps */
(PID.TID 0000.0001)                    1500
(PID.TID 0000.0001)     ;
(PID.TID 0000.0001) SEAICEnonLinTol     = /* non-linear solver tolerance */
(PID.TID 0000.0001)                 0.000000000000000E+00
(PID.TID 0000.0001)     ;
(PID.TID 0000.0001) 
(PID.TID 0000.0001)    Seaice advection diffusion config,   > START <
(PID.TID 0000.0001)    -----------------------------------------------
(PID.TID 0000.0001) SEAICEadvHeff = /* advect effective ice thickness */
(PID.TID 0000.0001)                   T
(PID.TID 0000.0001)     ;
(PID.TID 0000.0001) SEAICEadvArea = /* advect fractional ice area */
(PID.TID 0000.0001)                   T
(PID.TID 0000.0001)     ;
(PID.TID 0000.0001) SEAICEadvSnow = /* advect snow layer together with ice */
(PID.TID 0000.0001)                   T
(PID.TID 0000.0001)     ;
(PID.TID 0000.0001) SEAICEadvScheme   = /* advection scheme for ice */
(PID.TID 0000.0001)                      77
(PID.TID 0000.0001)     ;
(PID.TID 0000.0001) SEAICEadvSchArea   = /* advection scheme for area */
(PID.TID 0000.0001)                      77
(PID.TID 0000.0001)     ;
(PID.TID 0000.0001) SEAICEadvSchHeff   = /* advection scheme for thickness */
(PID.TID 0000.0001)                      77
(PID.TID 0000.0001)     ;
(PID.TID 0000.0001) SEAICEadvSchSnow   = /* advection scheme for snow */
(PID.TID 0000.0001)                      77
(PID.TID 0000.0001)     ;
(PID.TID 0000.0001) SEAICEdiffKhArea   = /* diffusivity (m^2/s) for area */
(PID.TID 0000.0001)                 0.000000000000000E+00
(PID.TID 0000.0001)     ;
(PID.TID 0000.0001) SEAICEdiffKhHeff   = /* diffusivity (m^2/s) for heff */
(PID.TID 0000.0001)                 0.000000000000000E+00
(PID.TID 0000.0001)     ;
(PID.TID 0000.0001) SEAICEdiffKhSnow   = /* diffusivity (m^2/s) for snow */
(PID.TID 0000.0001)                 0.000000000000000E+00
(PID.TID 0000.0001)     ;
(PID.TID 0000.0001) DIFF1             = /* parameter used in advect.F [m/s] */
(PID.TID 0000.0001)                 0.000000000000000E+00
(PID.TID 0000.0001)     ;
(PID.TID 0000.0001) 
(PID.TID 0000.0001)    Seaice thermodynamics configuration   > START <
(PID.TID 0000.0001)    -----------------------------------------------
(PID.TID 0000.0001) SEAICE_rhoIce     = /* density of sea ice (kg/m3) */
(PID.TID 0000.0001)                 9.100000000000000E+02
(PID.TID 0000.0001)     ;
(PID.TID 0000.0001) SEAICE_rhoSnow    = /* density of snow (kg/m3) */
(PID.TID 0000.0001)                 3.300000000000000E+02
(PID.TID 0000.0001)     ;
(PID.TID 0000.0001) SEAICE_rhoAir     = /* density of air (kg/m3) */
(PID.TID 0000.0001)                 1.220000000000000E+00
(PID.TID 0000.0001)     ;
(PID.TID 0000.0001) usePW79thermodynamics  = /* default 0-layer TD */
(PID.TID 0000.0001)                   T
(PID.TID 0000.0001)     ;
(PID.TID 0000.0001) SEAICE_lhEvap     = /* latent heat of evaporation */
(PID.TID 0000.0001)                 2.500000000000000E+06
(PID.TID 0000.0001)     ;
(PID.TID 0000.0001) SEAICE_lhFusion   = /* latent heat of fusion */
(PID.TID 0000.0001)                 3.340000000000000E+05
(PID.TID 0000.0001)     ;
(PID.TID 0000.0001) SEAICE_mcPheePiston = /* turbulent flux "piston velocity" a la McPhee (m/s) */
(PID.TID 0000.0001)                 5.700000000000000E-04
(PID.TID 0000.0001)     ;
(PID.TID 0000.0001) SEAICE_mcPheeTaper = /* tapering of turbulent flux (0.< <1.) for AREA=1. */
(PID.TID 0000.0001)                 0.000000000000000E+00
(PID.TID 0000.0001)     ;
(PID.TID 0000.0001) SEAICE_mcPheeStepFunc = /* replace linear tapering with step funct. */
(PID.TID 0000.0001)                   F
(PID.TID 0000.0001)     ;
(PID.TID 0000.0001) SEAICE_frazilFrac = /* frazil (T<tempFrz) to seaice conversion rate (0.< <1.) */
(PID.TID 0000.0001)                 1.000000000000000E+00
(PID.TID 0000.0001)     ;
(PID.TID 0000.0001) SEAICE_tempFrz0   = /* freezing temp. of sea water (intercept) */
(PID.TID 0000.0001)                 9.010000000000000E-02
(PID.TID 0000.0001)     ;
(PID.TID 0000.0001) SEAICE_dTempFrz_dS= /* freezing temp. of sea water (slope) */
(PID.TID 0000.0001)                -5.750000000000000E-02
(PID.TID 0000.0001)     ;
(PID.TID 0000.0001) SEAICE_growMeltByConv  = /* grow,melt by vert. conv. */
(PID.TID 0000.0001)                   F
(PID.TID 0000.0001)     ;
(PID.TID 0000.0001) SEAICE_doOpenWaterGrowth = /* grow by open water */
(PID.TID 0000.0001)                   T
(PID.TID 0000.0001)     ;
(PID.TID 0000.0001) SEAICE_doOpenWaterMelt = /* melt by open water */
(PID.TID 0000.0001)                   F
(PID.TID 0000.0001)     ;
(PID.TID 0000.0001) SEAICE_areaGainFormula = /* ice cover gain formula (1,2)*/
(PID.TID 0000.0001)                       1
(PID.TID 0000.0001)     1=from growth by ATM
(PID.TID 0000.0001)     2=from predicted growth by ATM
(PID.TID 0000.0001)     ;
(PID.TID 0000.0001) SEAICE_areaLossFormula = /* ice cover loss formula (1,2)*/
(PID.TID 0000.0001)                       2
(PID.TID 0000.0001)     1=from all but only melt conributions by ATM and OCN
(PID.TID 0000.0001)     2=from net melt-grow>0 by ATM and OCN
(PID.TID 0000.0001)     3=from predicted melt by ATM
(PID.TID 0000.0001)     ;
(PID.TID 0000.0001) HO                = /* nominal thickness of new ice */
(PID.TID 0000.0001)                 5.000000000000000E-01
(PID.TID 0000.0001)     ;
(PID.TID 0000.0001) HO_south               = /* Southern Ocean HO */
(PID.TID 0000.0001)                 5.000000000000000E-01
(PID.TID 0000.0001)     ;
(PID.TID 0000.0001) SEAICE_area_max        = /* set to les than 1. to mimic open leads */
(PID.TID 0000.0001)                 1.000000000000000E+00
(PID.TID 0000.0001)     ;
(PID.TID 0000.0001) SEAICE_salt0   = /* constant sea ice salinity */
(PID.TID 0000.0001)                 4.000000000000000E+00
(PID.TID 0000.0001)     ;
(PID.TID 0000.0001) SEAICE_salinityTracer = /* test SITR varia. salinity */
(PID.TID 0000.0001)                   F
(PID.TID 0000.0001)     ;
(PID.TID 0000.0001) SEAICEuseFlooding = /* turn submerged snow into ice */
(PID.TID 0000.0001)                   T
(PID.TID 0000.0001)     ;
(PID.TID 0000.0001) 
(PID.TID 0000.0001)    Seaice air-sea fluxes configuration,   > START <
(PID.TID 0000.0001)    -----------------------------------------------
(PID.TID 0000.0001) SEAICEheatConsFix  = /* accound for ocn<->seaice advect. heat flux */
(PID.TID 0000.0001)                   T
(PID.TID 0000.0001)     ;
(PID.TID 0000.0001) SEAICE_multDim    = /* number of ice categories (1 or 7) */
(PID.TID 0000.0001)                       7
(PID.TID 0000.0001)     ;
(PID.TID 0000.0001) SEAICE_PDF        = /* sea-ice distribution (-) */
(PID.TID 0000.0001)     7 @  1.428571428571428E-01              /* K =  1:  7 */
(PID.TID 0000.0001)     ;
(PID.TID 0000.0001) IMAX_TICE         = /* iterations for ice surface temp */
(PID.TID 0000.0001)                      10
(PID.TID 0000.0001)     ;
(PID.TID 0000.0001) postSolvTempIter= /* flux calculation after surf. temp iter */
(PID.TID 0000.0001)                       2
(PID.TID 0000.0001)     ;
(PID.TID 0000.0001) SEAICE_dryIceAlb  = /* winter albedo */
(PID.TID 0000.0001)                 7.500000000000000E-01
(PID.TID 0000.0001)     ;
(PID.TID 0000.0001) SEAICE_wetIceAlb  = /* summer albedo */
(PID.TID 0000.0001)                 6.600000000000000E-01
(PID.TID 0000.0001)     ;
(PID.TID 0000.0001) SEAICE_drySnowAlb = /* dry snow albedo */
(PID.TID 0000.0001)                 8.400000000000000E-01
(PID.TID 0000.0001)     ;
(PID.TID 0000.0001) SEAICE_wetSnowAlb = /* wet snow albedo */
(PID.TID 0000.0001)                 7.000000000000000E-01
(PID.TID 0000.0001)     ;
(PID.TID 0000.0001) SEAICE_dryIceAlb_south = /* Southern Ocean dryIceAlb */
(PID.TID 0000.0001)                 7.500000000000000E-01
(PID.TID 0000.0001)     ;
(PID.TID 0000.0001) SEAICE_wetIceAlb_south = /* Southern Ocean wetIceAlb */
(PID.TID 0000.0001)                 6.600000000000000E-01
(PID.TID 0000.0001)     ;
(PID.TID 0000.0001) SEAICE_drySnowAlb_south= /* Southern Ocean drySnowAlb */
(PID.TID 0000.0001)                 8.400000000000000E-01
(PID.TID 0000.0001)     ;
(PID.TID 0000.0001) SEAICE_wetSnowAlb_south= /* Southern Ocean wetSnowAlb */
(PID.TID 0000.0001)                 7.000000000000000E-01
(PID.TID 0000.0001)     ;
(PID.TID 0000.0001) SEAICE_wetAlbTemp= /* Temp (o.C) threshold for wet-albedo */
(PID.TID 0000.0001)                 0.000000000000000E+00
(PID.TID 0000.0001)     ;
(PID.TID 0000.0001) SEAICE_snow_emiss = /* snow emissivity */
(PID.TID 0000.0001)                 9.500000000000000E-01
(PID.TID 0000.0001)     ;
(PID.TID 0000.0001) SEAICE_ice_emiss = /* seaice emissivity */
(PID.TID 0000.0001)                 9.500000000000000E-01
(PID.TID 0000.0001)     ;
(PID.TID 0000.0001) SEAICE_cpAir      = /* heat capacity of air */
(PID.TID 0000.0001)                 1.005000000000000E+03
(PID.TID 0000.0001)     ;
(PID.TID 0000.0001) SEAICE_dalton     = /* constant dalton number */
(PID.TID 0000.0001)                 1.750000000000000E-03
(PID.TID 0000.0001)     ;
(PID.TID 0000.0001) SEAICE_iceConduct = /* sea-ice conductivity */
(PID.TID 0000.0001)                 2.165600000000000E+00
(PID.TID 0000.0001)     ;
(PID.TID 0000.0001) SEAICE_snowConduct= /* snow conductivity */
(PID.TID 0000.0001)                 3.100000000000000E-01
(PID.TID 0000.0001)     ;
(PID.TID 0000.0001) SEAICE_snowThick  = /* cutoff snow thickness (for albedo) */
(PID.TID 0000.0001)                 1.500000000000000E-01
(PID.TID 0000.0001)     ;
(PID.TID 0000.0001) SEAICE_shortwave  = /* penetration shortwave radiation */
(PID.TID 0000.0001)                 3.000000000000000E-01
(PID.TID 0000.0001)     ;
(PID.TID 0000.0001) useMaykutSatVapPoly = /* use Maykut Polynomial for Sat.Vap.Pr */
(PID.TID 0000.0001)                   F
(PID.TID 0000.0001)     ;
(PID.TID 0000.0001) MIN_ATEMP         = /* minimum air temperature */
(PID.TID 0000.0001)                -5.000000000000000E+01
(PID.TID 0000.0001)     ;
(PID.TID 0000.0001) MIN_LWDOWN        = /* minimum downward longwave */
(PID.TID 0000.0001)                 6.000000000000000E+01
(PID.TID 0000.0001)     ;
(PID.TID 0000.0001) MIN_TICE          = /* minimum ice temperature */
(PID.TID 0000.0001)                -5.000000000000000E+01
(PID.TID 0000.0001)     ;
(PID.TID 0000.0001) 
(PID.TID 0000.0001)    Seaice initialization and IO config.,   > START <
(PID.TID 0000.0001)    -------------------------------------------------
(PID.TID 0000.0001) SEAICE_initialHEFF= /* initial sea-ice thickness */
(PID.TID 0000.0001)                 0.000000000000000E+00
(PID.TID 0000.0001)     ;
(PID.TID 0000.0001) AreaFile = /* Initial ice concentration File */
(PID.TID 0000.0001)               ''
(PID.TID 0000.0001)     ;
(PID.TID 0000.0001) HeffFile = /* Initial effective ice thickness File */
(PID.TID 0000.0001)               ''
(PID.TID 0000.0001)     ;
(PID.TID 0000.0001) HsnowFile = /* Initial snow thickness File */
(PID.TID 0000.0001)               ''
(PID.TID 0000.0001)     ;
(PID.TID 0000.0001) uIceFile = /* Initial U-ice velocity File */
(PID.TID 0000.0001)               ''
(PID.TID 0000.0001)     ;
(PID.TID 0000.0001) vIceFile = /* Initial V-ice velocity File */
(PID.TID 0000.0001)               ''
(PID.TID 0000.0001)     ;
(PID.TID 0000.0001) SEAICEwriteState  = /* write sea ice state to file */
(PID.TID 0000.0001)                   F
(PID.TID 0000.0001)     ;
(PID.TID 0000.0001) SEAICE_monFreq  = /* monitor frequency */
(PID.TID 0000.0001)                 1.000000000000000E+00
(PID.TID 0000.0001)     ;
(PID.TID 0000.0001) SEAICE_dumpFreq   = /* dump frequency */
(PID.TID 0000.0001)                 0.000000000000000E+00
(PID.TID 0000.0001)     ;
(PID.TID 0000.0001) SEAICE_taveFreq   = /* time-averaging frequency */
(PID.TID 0000.0001)                 0.000000000000000E+00
(PID.TID 0000.0001)     ;
(PID.TID 0000.0001) SEAICE_mon_stdio  = /* write monitor to std-outp */
(PID.TID 0000.0001)                   T
(PID.TID 0000.0001)     ;
(PID.TID 0000.0001) SEAICE_dump_mdsio = /* write snap-shot   using MDSIO */
(PID.TID 0000.0001)                   T
(PID.TID 0000.0001)     ;
(PID.TID 0000.0001) SEAICE_tave_mdsio = /* write TimeAverage using MDSIO */
(PID.TID 0000.0001)                   T
(PID.TID 0000.0001)     ;
(PID.TID 0000.0001) SEAICE_mon_mnc    = /* write monitor to netcdf file */
(PID.TID 0000.0001)                   F
(PID.TID 0000.0001)     ;
(PID.TID 0000.0001) SEAICE_dump_mnc   = /* write snap-shot   using MNC */
(PID.TID 0000.0001)                   F
(PID.TID 0000.0001)     ;
(PID.TID 0000.0001) SEAICE_tave_mnc   = /* write TimeAverage using MNC */
(PID.TID 0000.0001)                   F
(PID.TID 0000.0001)     ;
(PID.TID 0000.0001) 
(PID.TID 0000.0001)    Seaice regularization numbers,   > START <
(PID.TID 0000.0001)    -----------------------------------------------
(PID.TID 0000.0001) SEAICE_deltaMin   = /* reduce singularities in Delta */
(PID.TID 0000.0001)                 1.000000000000000E-10
(PID.TID 0000.0001)     ;
(PID.TID 0000.0001) SEAICE_EPS        = /* small number */
(PID.TID 0000.0001)                 1.000000000000000E-10
(PID.TID 0000.0001)     ;
(PID.TID 0000.0001) SEAICE_EPS_SQ     = /* small number squared */
(PID.TID 0000.0001)                 1.000000000000000E-20
(PID.TID 0000.0001)     ;
(PID.TID 0000.0001) SEAICE_area_reg   = /* reduce derivative singularities */
(PID.TID 0000.0001)                 1.000000000000000E-05
(PID.TID 0000.0001)     ;
(PID.TID 0000.0001) SEAICE_hice_reg   = /* reduce derivative singularities */
(PID.TID 0000.0001)                 5.000000000000000E-02
(PID.TID 0000.0001)     ;
(PID.TID 0000.0001) SEAICE_area_floor = /* reduce derivative singularities */
(PID.TID 0000.0001)                 1.000000000000000E-05
(PID.TID 0000.0001)     ;
(PID.TID 0000.0001) 
(PID.TID 0000.0001) // =======================================================
(PID.TID 0000.0001) // Seaice configuration (SEAICE_PARM01) >>> END <<<
(PID.TID 0000.0001) // =======================================================
(PID.TID 0000.0001) 
(PID.TID 0000.0001) ------------------------------------------------------------
(PID.TID 0000.0001) DIAGNOSTICS_SET_LEVELS: done
(PID.TID 0000.0001)  Total Nb of available Diagnostics: ndiagt=   307
(PID.TID 0000.0001)  write list of available Diagnostics to file: available_diagnostics.log
(PID.TID 0000.0001) SETDIAG: Allocate  1 x  1 Levels for Diagnostic #    23 ETAN
(PID.TID 0000.0001) SETDIAG: Allocate  1 x  1 Levels for Diagnostic #    24 ETANSQ
(PID.TID 0000.0001) SETDIAG: Allocate  1 x  1 Levels for Diagnostic #    25 DETADT2
(PID.TID 0000.0001) SETDIAG: Allocate  1 x  1 Levels for Diagnostic #    73 PHIBOT
(PID.TID 0000.0001) SETDIAG: Allocate  1 x  1 Levels for Diagnostic #    74 PHIBOTSQ
(PID.TID 0000.0001) SETDIAG: Allocate  1 x  1 Levels for Diagnostic #    81 oceTAUX
(PID.TID 0000.0001) SETDIAG: Allocate  1 x  1 Levels for Diagnostic #    82 oceTAUY
(PID.TID 0000.0001) SETDIAG: Allocate  1 x  1 Levels for Diagnostic #    87 oceQnet
(PID.TID 0000.0001) SETDIAG: Allocate  1 x  1 Levels for Diagnostic #    86 oceSflux
(PID.TID 0000.0001) SETDIAG: Allocate  1 x  1 Levels for Diagnostic #    85 oceFWflx
(PID.TID 0000.0001) SETDIAG: Allocate  1 x  1 Levels for Diagnostic #    90 TRELAX
(PID.TID 0000.0001) SETDIAG: Allocate  1 x  1 Levels for Diagnostic #    91 SRELAX
(PID.TID 0000.0001) SETDIAG: Allocate  1 x 12 Levels for Diagnostic #   241 SIheff
(PID.TID 0000.0001) SETDIAG: Allocate  1 x 12 Levels for Diagnostic #   238 SIarea
(PID.TID 0000.0001) SETDIAG: Allocate  1 x 12 Levels for Diagnostic #   243 SIhsnow
(PID.TID 0000.0001) SETDIAG: Allocate  1 x 12 Levels for Diagnostic #   247 SIuice
(PID.TID 0000.0001) SETDIAG: Allocate  1 x 12 Levels for Diagnostic #   248 SIvice
(PID.TID 0000.0001)   space allocated for all diagnostics:      72 levels
(PID.TID 0000.0001)   set mate pointer for diag #    81  oceTAUX  , Parms: UU      U1 , mate:    82
(PID.TID 0000.0001)   set mate pointer for diag #    82  oceTAUY  , Parms: VV      U1 , mate:    81
(PID.TID 0000.0001)   set mate pointer for diag #   247  SIuice   , Parms: UU      M1 , mate:   248
(PID.TID 0000.0001)   set mate pointer for diag #   248  SIvice   , Parms: VV      M1 , mate:   247
(PID.TID 0000.0001) DIAGNOSTICS_SET_POINTERS: Set levels for Outp.Stream: surfDiag
(PID.TID 0000.0001)  Levels:       1.
(PID.TID 0000.0001) DIAGNOSTICS_SET_POINTERS: Set levels for Outp.Stream: seaiceDiag
(PID.TID 0000.0001)  Levels:       1.
(PID.TID 0000.0001) DIAGNOSTICS_SET_POINTERS: done
(PID.TID 0000.0001) ------------------------------------------------------------
 DIAGSTATS_SET_REGIONS: start reading region-mask file: regMask_lat24.bin
 DIAGSTATS_SET_REGIONS:  reading set k=  1
(PID.TID 0000.0001)  MDS_READ_FIELD: opening global file: regMask_lat24.bin
 DIAGSTATS_SET_REGIONS:          set k=  1 <= done
(PID.TID 0000.0001) DIAGSTATS_SET_REGIONS: define   3 regions:  1  2  3
(PID.TID 0000.0001) ------------------------------------------------------------
(PID.TID 0000.0001) SETDIAG: Allocate  1 Levels for Stats-Diag #    23 ETAN
(PID.TID 0000.0001) SETDIAG: Allocate 15 Levels for Stats-Diag #    30 UVEL
(PID.TID 0000.0001) SETDIAG: Allocate 15 Levels for Stats-Diag #    31 VVEL
(PID.TID 0000.0001) SETDIAG: Allocate 15 Levels for Stats-Diag #    32 WVEL
(PID.TID 0000.0001) SETDIAG: Allocate 15 Levels for Stats-Diag #    26 THETA
(PID.TID 0000.0001) SETDIAG: Allocate 15 Levels for Stats-Diag #    27 SALT
(PID.TID 0000.0001) SETDIAG: Allocate 15 Levels for Stats-Diag #    80 CONVADJ
(PID.TID 0000.0001) SETDIAG: Allocate  1 Levels for Stats-Diag #    25 DETADT2
(PID.TID 0000.0001) SETDIAG: Allocate  1 Levels for Stats-Diag #   241 SIheff
(PID.TID 0000.0001) SETDIAG: Allocate  1 Levels for Stats-Diag #   238 SIarea
(PID.TID 0000.0001) SETDIAG: Allocate  1 Levels for Stats-Diag #   243 SIhsnow
(PID.TID 0000.0001) SETDIAG: Allocate  1 Levels for Stats-Diag #   247 SIuice
(PID.TID 0000.0001) SETDIAG: Allocate  1 Levels for Stats-Diag #   248 SIvice
(PID.TID 0000.0001)   space allocated for all stats-diags:      97 levels
(PID.TID 0000.0001) DIAGSTATS_SET_POINTERS: done
(PID.TID 0000.0001) ------------------------------------------------------------
(PID.TID 0000.0001) DIAGSTATS_INI_IO: open file: dynStDiag.0000072000.txt , unit=     9
(PID.TID 0000.0001) DIAGSTATS_INI_IO: open file: seaiceStDiag.0000072000.txt , unit=    10
(PID.TID 0000.0001) INI_GLOBAL_DOMAIN: Found  19 CS-corner Pts in the domain
(PID.TID 0000.0001) %MON fCori_max                    =   1.4574827780704E-04
(PID.TID 0000.0001) %MON fCori_min                    =  -1.4574827780704E-04
(PID.TID 0000.0001) %MON fCori_mean                   =   3.3881317890172E-21
(PID.TID 0000.0001) %MON fCori_sd                     =   8.4202189509968E-05
(PID.TID 0000.0001) %MON fCoriG_max                   =   1.4584247033981E-04
(PID.TID 0000.0001) %MON fCoriG_min                   =  -1.4584247033981E-04
(PID.TID 0000.0001) %MON fCoriG_mean                  =  -1.6940658945086E-20
(PID.TID 0000.0001) %MON fCoriG_sd                    =   8.4202189509968E-05
(PID.TID 0000.0001) %MON fCoriCos_max                 =   1.4580166994612E-04
(PID.TID 0000.0001) %MON fCoriCos_min                 =   5.2407700865903E-06
(PID.TID 0000.0001) %MON fCoriCos_mean                =   1.1514045869113E-04
(PID.TID 0000.0001) %MON fCoriCos_sd                  =   3.0375849106513E-05
(PID.TID 0000.0001) INI_CG2D: CG2D normalisation factor =  1.9156564154949553E-04
(PID.TID 0000.0001) INI_CG2D: cg2dTolerance = 5.809016360175296E-07 (Area=3.6388673751E+14)
(PID.TID 0000.0001) 
(PID.TID 0000.0001) // =======================================================
(PID.TID 0000.0001) // Model configuration
(PID.TID 0000.0001) // =======================================================
(PID.TID 0000.0001) //
(PID.TID 0000.0001) // "Physical" paramters ( PARM01 in namelist )
(PID.TID 0000.0001) //
(PID.TID 0000.0001) buoyancyRelation = /* Type of relation to get Buoyancy */
(PID.TID 0000.0001)               'OCEANIC'
(PID.TID 0000.0001)     ;
(PID.TID 0000.0001) fluidIsAir   =  /* fluid major constituent is Air */
(PID.TID 0000.0001)                   F
(PID.TID 0000.0001)     ;
(PID.TID 0000.0001) fluidIsWater =  /* fluid major constituent is Water */
(PID.TID 0000.0001)                   T
(PID.TID 0000.0001)     ;
(PID.TID 0000.0001) usingPCoords =  /* use p (or p*) vertical coordinate */
(PID.TID 0000.0001)                   F
(PID.TID 0000.0001)     ;
(PID.TID 0000.0001) usingZCoords =  /* use z (or z*) vertical coordinate */
(PID.TID 0000.0001)                   T
(PID.TID 0000.0001)     ;
(PID.TID 0000.0001) tRef =   /* Reference temperature profile ( oC or K ) */
(PID.TID 0000.0001)    15 @  2.000000000000000E+01              /* K =  1: 15 */
(PID.TID 0000.0001)     ;
(PID.TID 0000.0001) sRef =   /* Reference salinity profile ( psu ) */
(PID.TID 0000.0001)    15 @  3.500000000000000E+01              /* K =  1: 15 */
(PID.TID 0000.0001)     ;
(PID.TID 0000.0001) useStrainTensionVisc= /* Use StrainTension Form of Viscous Operator */
(PID.TID 0000.0001)                   F
(PID.TID 0000.0001)     ;
(PID.TID 0000.0001) useVariableVisc = /* Use variable horizontal viscosity */
(PID.TID 0000.0001)                   F
(PID.TID 0000.0001)     ;
(PID.TID 0000.0001) useHarmonicVisc = /* Use harmonic horizontal viscosity */
(PID.TID 0000.0001)                   T
(PID.TID 0000.0001)     ;
(PID.TID 0000.0001) useBiharmonicVisc= /* Use biharmonic horiz.  viscosity */
(PID.TID 0000.0001)                   F
(PID.TID 0000.0001)     ;
(PID.TID 0000.0001) useSmag3D = /* Use isotropic 3-D Smagorinsky viscosity */
(PID.TID 0000.0001)                   F
(PID.TID 0000.0001)     ;
(PID.TID 0000.0001) viscAh  =   /* Lateral harmonic viscosity ( m^2/s ) */
(PID.TID 0000.0001)                 3.000000000000000E+05
(PID.TID 0000.0001)     ;
(PID.TID 0000.0001) viscA4  =   /* Lateral biharmonic viscosity ( m^4/s ) */
(PID.TID 0000.0001)                 0.000000000000000E+00
(PID.TID 0000.0001)     ;
(PID.TID 0000.0001) no_slip_sides =  /* Viscous BCs: No-slip sides */
(PID.TID 0000.0001)                   T
(PID.TID 0000.0001)     ;
(PID.TID 0000.0001) sideDragFactor = /* side-drag scaling factor (non-dim) */
(PID.TID 0000.0001)                 2.000000000000000E+00
(PID.TID 0000.0001)     ;
(PID.TID 0000.0001) viscArNr = /* vertical profile of vertical viscosity ( m^2/s )*/
(PID.TID 0000.0001)    15 @  1.000000000000000E-03              /* K =  1: 15 */
(PID.TID 0000.0001)     ;
(PID.TID 0000.0001) no_slip_bottom =  /* Viscous BCs: No-slip bottom */
(PID.TID 0000.0001)                   T
(PID.TID 0000.0001)     ;
(PID.TID 0000.0001) bottomVisc_pCell = /* Partial-cell in bottom Visc. BC */
(PID.TID 0000.0001)                   F
(PID.TID 0000.0001)     ;
(PID.TID 0000.0001) bottomDragLinear = /* linear bottom-drag coefficient ( m/s ) */
(PID.TID 0000.0001)                 0.000000000000000E+00
(PID.TID 0000.0001)     ;
(PID.TID 0000.0001) bottomDragQuadratic = /* quadratic bottom-drag coefficient (-) */
(PID.TID 0000.0001)                 0.000000000000000E+00
(PID.TID 0000.0001)     ;
(PID.TID 0000.0001) selectBotDragQuadr = /* select quadratic bottom drag options */
(PID.TID 0000.0001)                      -1
(PID.TID 0000.0001)     ;
(PID.TID 0000.0001) diffKhT =   /* Laplacian diffusion of heat laterally ( m^2/s ) */
(PID.TID 0000.0001)                 0.000000000000000E+00
(PID.TID 0000.0001)     ;
(PID.TID 0000.0001) diffK4T =   /* Biharmonic diffusion of heat laterally ( m^4/s ) */
(PID.TID 0000.0001)                 0.000000000000000E+00
(PID.TID 0000.0001)     ;
(PID.TID 0000.0001) diffKhS =   /* Laplacian diffusion of salt laterally ( m^2/s ) */
(PID.TID 0000.0001)                 0.000000000000000E+00
(PID.TID 0000.0001)     ;
(PID.TID 0000.0001) diffK4S =   /* Biharmonic diffusion of salt laterally ( m^4/s ) */
(PID.TID 0000.0001)                 0.000000000000000E+00
(PID.TID 0000.0001)     ;
(PID.TID 0000.0001) diffKrNrT = /* vertical profile of vertical diffusion of Temp ( m^2/s )*/
(PID.TID 0000.0001)    15 @  3.000000000000000E-05              /* K =  1: 15 */
(PID.TID 0000.0001)     ;
(PID.TID 0000.0001) diffKrNrS = /* vertical profile of vertical diffusion of Salt ( m^2/s )*/
(PID.TID 0000.0001)    15 @  3.000000000000000E-05              /* K =  1: 15 */
(PID.TID 0000.0001)     ;
(PID.TID 0000.0001) diffKrBL79surf = /* Surface diffusion for Bryan and Lewis 79 ( m^2/s ) */
(PID.TID 0000.0001)                 0.000000000000000E+00
(PID.TID 0000.0001)     ;
(PID.TID 0000.0001) diffKrBL79deep = /* Deep diffusion for Bryan and Lewis 1979 ( m^2/s ) */
(PID.TID 0000.0001)                 0.000000000000000E+00
(PID.TID 0000.0001)     ;
(PID.TID 0000.0001) diffKrBL79scl = /* Depth scale for Bryan and Lewis 1979 ( m ) */
(PID.TID 0000.0001)                 2.000000000000000E+02
(PID.TID 0000.0001)     ;
(PID.TID 0000.0001) diffKrBL79Ho = /* Turning depth for Bryan and Lewis 1979 ( m ) */
(PID.TID 0000.0001)                -2.000000000000000E+03
(PID.TID 0000.0001)     ;
(PID.TID 0000.0001) ivdc_kappa = /* Implicit Vertical Diffusivity for Convection ( m^2/s) */
(PID.TID 0000.0001)                 1.000000000000000E+01
(PID.TID 0000.0001)     ;
(PID.TID 0000.0001) hMixCriteria=  /* Criteria for mixed-layer diagnostic */
(PID.TID 0000.0001)                -8.000000000000000E-01
(PID.TID 0000.0001)     ;
(PID.TID 0000.0001) dRhoSmall =  /* Parameter for mixed-layer diagnostic */
(PID.TID 0000.0001)                 1.000000000000000E-06
(PID.TID 0000.0001)     ;
(PID.TID 0000.0001) hMixSmooth=  /* Smoothing parameter for mixed-layer diagnostic */
(PID.TID 0000.0001)                 0.000000000000000E+00
(PID.TID 0000.0001)     ;
(PID.TID 0000.0001) eosType =  /* Type of Equation of State */
(PID.TID 0000.0001)               'JMD95Z'
(PID.TID 0000.0001)     ;
(PID.TID 0000.0001) selectP_inEOS_Zc = /* select pressure to use in EOS (0,1,2,3) */
(PID.TID 0000.0001)                       0
(PID.TID 0000.0001)     0= -g*rhoConst*z ; 1= pRef (from tRef,sRef); 2= Hyd P ; 3= Hyd+NH P
(PID.TID 0000.0001)     ;
(PID.TID 0000.0001) HeatCapacity_Cp =  /* Specific heat capacity ( J/kg/K ) */
(PID.TID 0000.0001)                 3.994000000000000E+03
(PID.TID 0000.0001)     ;
(PID.TID 0000.0001) celsius2K = /* 0 degree Celsius converted to Kelvin ( K ) */
(PID.TID 0000.0001)                 2.731500000000000E+02
(PID.TID 0000.0001)     ;
(PID.TID 0000.0001) rhoConst  = /* Reference density (Boussinesq)  ( kg/m^3 ) */
(PID.TID 0000.0001)                 1.035000000000000E+03
(PID.TID 0000.0001)     ;
(PID.TID 0000.0001) rhoFacC = /* normalized Reference density @ cell-Center (-) */
(PID.TID 0000.0001)    15 @  1.000000000000000E+00              /* K =  1: 15 */
(PID.TID 0000.0001)     ;
(PID.TID 0000.0001) rhoFacF = /* normalized Reference density @ W-Interface (-) */
(PID.TID 0000.0001)    16 @  1.000000000000000E+00              /* K =  1: 16 */
(PID.TID 0000.0001)     ;
(PID.TID 0000.0001) rhoConstFresh = /* Fresh-water reference density ( kg/m^3 ) */
(PID.TID 0000.0001)                 1.000000000000000E+03
(PID.TID 0000.0001)     ;
(PID.TID 0000.0001) gravity =   /* Gravitational acceleration ( m/s^2 ) */
(PID.TID 0000.0001)                 9.810000000000000E+00
(PID.TID 0000.0001)     ;
(PID.TID 0000.0001) gBaro =   /* Barotropic gravity ( m/s^2 ) */
(PID.TID 0000.0001)                 9.810000000000000E+00
(PID.TID 0000.0001)     ;
(PID.TID 0000.0001) gravFacC = /* gravity factor (vs surf.) @ cell-Center (-) */
(PID.TID 0000.0001)    15 @  1.000000000000000E+00              /* K =  1: 15 */
(PID.TID 0000.0001)     ;
(PID.TID 0000.0001) gravFacF = /* gravity factor (vs surf.) @ W-Interface (-) */
(PID.TID 0000.0001)    16 @  1.000000000000000E+00              /* K =  1: 16 */
(PID.TID 0000.0001)     ;
(PID.TID 0000.0001) rotationPeriod =   /* Rotation Period ( s ) */
(PID.TID 0000.0001)                 8.616400000000000E+04
(PID.TID 0000.0001)     ;
(PID.TID 0000.0001) omega =   /* Angular velocity ( rad/s ) */
(PID.TID 0000.0001)                 7.292123516990375E-05
(PID.TID 0000.0001)     ;
(PID.TID 0000.0001) f0 =   /* Reference coriolis parameter ( 1/s ) */
(PID.TID 0000.0001)                 1.000000000000000E-04
(PID.TID 0000.0001)     ;
(PID.TID 0000.0001) beta =   /* Beta ( 1/(m.s) ) */
(PID.TID 0000.0001)                 9.999999999999999E-12
(PID.TID 0000.0001)     ;
(PID.TID 0000.0001) fPrime =   /* Second coriolis parameter ( 1/s ) */
(PID.TID 0000.0001)                 0.000000000000000E+00
(PID.TID 0000.0001)     ;
(PID.TID 0000.0001) rigidLid =   /* Rigid lid on/off flag */
(PID.TID 0000.0001)                   F
(PID.TID 0000.0001)     ;
(PID.TID 0000.0001) implicitFreeSurface =   /* Implicit free surface on/off flag */
(PID.TID 0000.0001)                   T
(PID.TID 0000.0001)     ;
(PID.TID 0000.0001) freeSurfFac =   /* Implicit free surface factor */
(PID.TID 0000.0001)                 1.000000000000000E+00
(PID.TID 0000.0001)     ;
(PID.TID 0000.0001) implicSurfPress =  /* Surface Pressure implicit factor (0-1)*/
(PID.TID 0000.0001)                 1.000000000000000E+00
(PID.TID 0000.0001)     ;
(PID.TID 0000.0001) implicDiv2DFlow =  /* Barot. Flow Div. implicit factor (0-1)*/
(PID.TID 0000.0001)                 1.000000000000000E+00
(PID.TID 0000.0001)     ;
(PID.TID 0000.0001) uniformLin_PhiSurf = /* use uniform Bo_surf on/off flag*/
(PID.TID 0000.0001)                   T
(PID.TID 0000.0001)     ;
(PID.TID 0000.0001) uniformFreeSurfLev = /* free-surface level-index is uniform */
(PID.TID 0000.0001)                   T
(PID.TID 0000.0001)     ;
(PID.TID 0000.0001) hFacMin =   /* minimum partial cell factor (hFac) */
(PID.TID 0000.0001)                 1.000000000000000E-01
(PID.TID 0000.0001)     ;
(PID.TID 0000.0001) hFacMinDr = /* minimum partial cell thickness ( m) */
(PID.TID 0000.0001)                 2.000000000000000E+01
(PID.TID 0000.0001)     ;
(PID.TID 0000.0001) exactConserv =  /* Exact Volume Conservation on/off flag*/
(PID.TID 0000.0001)                   T
(PID.TID 0000.0001)     ;
(PID.TID 0000.0001) linFSConserveTr = /* Tracer correction for Lin Free Surface on/off flag*/
(PID.TID 0000.0001)                   F
(PID.TID 0000.0001)     ;
(PID.TID 0000.0001) nonlinFreeSurf = /* Non-linear Free Surf. options (-1,0,1,2,3)*/
(PID.TID 0000.0001)                       4
(PID.TID 0000.0001)      -1,0= Off ; 1,2,3= On, 2=+rescale gU,gV, 3=+update cg2d solv.
(PID.TID 0000.0001)     ;
(PID.TID 0000.0001) hFacInf =   /* lower threshold for hFac (nonlinFreeSurf only)*/
(PID.TID 0000.0001)                 2.000000000000000E-01
(PID.TID 0000.0001)     ;
(PID.TID 0000.0001) hFacSup =   /* upper threshold for hFac (nonlinFreeSurf only)*/
(PID.TID 0000.0001)                 2.000000000000000E+00
(PID.TID 0000.0001)     ;
(PID.TID 0000.0001) select_rStar = /* r* Vertical coord. options (=0 r coord.; >0 uses r*)*/
(PID.TID 0000.0001)                       2
(PID.TID 0000.0001)     ;
(PID.TID 0000.0001) useRealFreshWaterFlux = /* Real Fresh Water Flux on/off flag*/
(PID.TID 0000.0001)                   T
(PID.TID 0000.0001)     ;
(PID.TID 0000.0001) temp_EvPrRn = /* Temp. of Evap/Prec/R (UNSET=use local T)(oC)*/
(PID.TID 0000.0001)                 1.234567000000000E+05
(PID.TID 0000.0001)     ;
(PID.TID 0000.0001) salt_EvPrRn = /* Salin. of Evap/Prec/R (UNSET=use local S)(psu)*/
(PID.TID 0000.0001)                 0.000000000000000E+00
(PID.TID 0000.0001)     ;
(PID.TID 0000.0001) selectAddFluid = /* option for mass source/sink of fluid (=0: off) */
(PID.TID 0000.0001)                       0
(PID.TID 0000.0001)     ;
(PID.TID 0000.0001) temp_addMass = /* Temp. of addMass array (UNSET=use local T)(oC)*/
(PID.TID 0000.0001)                 1.234567000000000E+05
(PID.TID 0000.0001)     ;
(PID.TID 0000.0001) salt_addMass = /* Salin. of addMass array (UNSET=use local S)(psu)*/
(PID.TID 0000.0001)                 0.000000000000000E+00
(PID.TID 0000.0001)     ;
(PID.TID 0000.0001) use3Dsolver = /* use 3-D pressure solver on/off flag */
(PID.TID 0000.0001)                   F
(PID.TID 0000.0001)     ;
(PID.TID 0000.0001) nonHydrostatic =  /* Non-Hydrostatic on/off flag */
(PID.TID 0000.0001)                   F
(PID.TID 0000.0001)     ;
(PID.TID 0000.0001) nh_Am2 = /* Non-Hydrostatic terms scaling factor */
(PID.TID 0000.0001)                 1.000000000000000E+00
(PID.TID 0000.0001)     ;
(PID.TID 0000.0001) implicitNHPress = /* Non-Hyd Pressure implicit factor (0-1)*/
(PID.TID 0000.0001)                 1.000000000000000E+00
(PID.TID 0000.0001)     ;
(PID.TID 0000.0001) selectNHfreeSurf = /* Non-Hyd (free-)Surface option */
(PID.TID 0000.0001)                       0
(PID.TID 0000.0001)     ;
(PID.TID 0000.0001) quasiHydrostatic = /* Quasi-Hydrostatic on/off flag */
(PID.TID 0000.0001)                   F
(PID.TID 0000.0001)     ;
(PID.TID 0000.0001) calc_wVelocity = /* vertical velocity calculation on/off flag */
(PID.TID 0000.0001)                   T
(PID.TID 0000.0001)     ;
(PID.TID 0000.0001) momStepping =  /* Momentum equation on/off flag */
(PID.TID 0000.0001)                   T
(PID.TID 0000.0001)     ;
(PID.TID 0000.0001) vectorInvariantMomentum= /* Vector-Invariant Momentum on/off */
(PID.TID 0000.0001)                   T
(PID.TID 0000.0001)     ;
(PID.TID 0000.0001) momAdvection =  /* Momentum advection on/off flag */
(PID.TID 0000.0001)                   T
(PID.TID 0000.0001)     ;
(PID.TID 0000.0001) momViscosity =  /* Momentum viscosity on/off flag */
(PID.TID 0000.0001)                   T
(PID.TID 0000.0001)     ;
(PID.TID 0000.0001) momImplVertAdv= /* Momentum implicit vert. advection on/off*/
(PID.TID 0000.0001)                   F
(PID.TID 0000.0001)     ;
(PID.TID 0000.0001) implicitViscosity = /* Implicit viscosity on/off flag */
(PID.TID 0000.0001)                   F
(PID.TID 0000.0001)     ;
(PID.TID 0000.0001) selectImplicitDrag= /* Implicit bot Drag options (0,1,2)*/
(PID.TID 0000.0001)                       0
(PID.TID 0000.0001)     0= Expl. ; 1= Impl. on provis. Vel ; 2= Fully Impl (with surf.P)
(PID.TID 0000.0001)     ;
(PID.TID 0000.0001) metricTerms =  /* metric-Terms on/off flag */
(PID.TID 0000.0001)                   F
(PID.TID 0000.0001)     ;
(PID.TID 0000.0001) useNHMTerms = /* Non-Hydrostatic Metric-Terms on/off */
(PID.TID 0000.0001)                   F
(PID.TID 0000.0001)     ;
(PID.TID 0000.0001) selectCoriMap = /* Coriolis Map options (0,1,2,3)*/
(PID.TID 0000.0001)                       2
(PID.TID 0000.0001)     0= f-Plane ; 1= Beta-Plane ; 2= Spherical ; 3= read from file
(PID.TID 0000.0001)     ;
(PID.TID 0000.0001) use3dCoriolis = /* 3-D Coriolis on/off flag */
(PID.TID 0000.0001)                   F
(PID.TID 0000.0001)     ;
(PID.TID 0000.0001) useCoriolis =  /* Coriolis on/off flag */
(PID.TID 0000.0001)                   T
(PID.TID 0000.0001)     ;
(PID.TID 0000.0001) useCDscheme =  /* CD scheme on/off flag */
(PID.TID 0000.0001)                   F
(PID.TID 0000.0001)     ;
(PID.TID 0000.0001) useEnergyConservingCoriolis= /* Flx-Form Coriolis scheme flag */
(PID.TID 0000.0001)                   F
(PID.TID 0000.0001)     ;
(PID.TID 0000.0001) useJamartWetPoints= /* Coriolis WetPoints method flag */
(PID.TID 0000.0001)                   F
(PID.TID 0000.0001)     ;
(PID.TID 0000.0001) useJamartMomAdv= /* V.I Non-linear terms Jamart flag */
(PID.TID 0000.0001)                   F
(PID.TID 0000.0001)     ;
(PID.TID 0000.0001) useAbsVorticity= /* V.I Works with f+zeta in Coriolis */
(PID.TID 0000.0001)                   F
(PID.TID 0000.0001)     ;
(PID.TID 0000.0001) selectVortScheme= /* V.I Scheme selector for Vorticity-Term */
(PID.TID 0000.0001)                       1
(PID.TID 0000.0001)    = 0 : enstrophy (Shallow-Water Eq.) conserving scheme by Sadourny, JAS 75
(PID.TID 0000.0001)    = 1 : same as 0 with modified hFac
(PID.TID 0000.0001)    = 2 : energy conserving scheme (used by Sadourny in JAS 75 paper)
(PID.TID 0000.0001)    = 3 : energy (general) and enstrophy (2D, nonDiv.) conserving scheme
(PID.TID 0000.0001)          from Sadourny (Burridge & Haseler, ECMWF Rep.4, 1977)
(PID.TID 0000.0001)     ;
(PID.TID 0000.0001) upwindVorticity= /* V.I Upwind bias vorticity flag */
(PID.TID 0000.0001)                   F
(PID.TID 0000.0001)     ;
(PID.TID 0000.0001) highOrderVorticity= /* V.I High order vort. advect. flag */
(PID.TID 0000.0001)                   F
(PID.TID 0000.0001)     ;
(PID.TID 0000.0001) upwindShear= /* V.I Upwind vertical Shear advection flag */
(PID.TID 0000.0001)                   F
(PID.TID 0000.0001)     ;
(PID.TID 0000.0001) selectKEscheme= /* V.I Kinetic Energy scheme selector */
(PID.TID 0000.0001)                       0
(PID.TID 0000.0001)     ;
(PID.TID 0000.0001) momForcing =  /* Momentum forcing on/off flag */
(PID.TID 0000.0001)                   T
(PID.TID 0000.0001)     ;
(PID.TID 0000.0001) momPressureForcing =  /* Momentum pressure term on/off flag */
(PID.TID 0000.0001)                   T
(PID.TID 0000.0001)     ;
(PID.TID 0000.0001) implicitIntGravWave= /* Implicit Internal Gravity Wave flag */
(PID.TID 0000.0001)                   F
(PID.TID 0000.0001)     ;
(PID.TID 0000.0001) staggerTimeStep =    /* Stagger time stepping on/off flag */
(PID.TID 0000.0001)                   T
(PID.TID 0000.0001)     ;
(PID.TID 0000.0001) doResetHFactors = /* reset thickness factors @ each time-step */
(PID.TID 0000.0001)                   T
(PID.TID 0000.0001)     ;
(PID.TID 0000.0001) multiDimAdvection =  /* enable/disable Multi-Dim Advection */
(PID.TID 0000.0001)                   T
(PID.TID 0000.0001)     ;
(PID.TID 0000.0001) useMultiDimAdvec =   /* Multi-Dim Advection is/is-not used */
(PID.TID 0000.0001)                   F
(PID.TID 0000.0001)     ;
(PID.TID 0000.0001) implicitDiffusion = /* Implicit Diffusion on/off flag */
(PID.TID 0000.0001)                   T
(PID.TID 0000.0001)     ;
(PID.TID 0000.0001) tempStepping =  /* Temperature equation on/off flag */
(PID.TID 0000.0001)                   T
(PID.TID 0000.0001)     ;
(PID.TID 0000.0001) tempAdvection = /* Temperature advection on/off flag */
(PID.TID 0000.0001)                   T
(PID.TID 0000.0001)     ;
(PID.TID 0000.0001) tempImplVertAdv = /* Temp. implicit vert. advection on/off */
(PID.TID 0000.0001)                   F
(PID.TID 0000.0001)     ;
(PID.TID 0000.0001) tempForcing  =  /* Temperature forcing on/off flag */
(PID.TID 0000.0001)                   T
(PID.TID 0000.0001)     ;
(PID.TID 0000.0001) balanceQnet  =  /* balance net heat-flux on/off flag */
(PID.TID 0000.0001)                   F
(PID.TID 0000.0001)     ;
(PID.TID 0000.0001) doThetaClimRelax = /* apply SST relaxation on/off flag */
(PID.TID 0000.0001)                   F
(PID.TID 0000.0001)     ;
(PID.TID 0000.0001) balanceThetaClimRelax= /* balance SST relaxation on/off flag */
(PID.TID 0000.0001)                   F
(PID.TID 0000.0001)     ;
(PID.TID 0000.0001) tempIsActiveTr = /* Temp. is a dynamically Active Tracer */
(PID.TID 0000.0001)                   T
(PID.TID 0000.0001)     ;
(PID.TID 0000.0001) saltStepping =  /* Salinity equation on/off flag */
(PID.TID 0000.0001)                   T
(PID.TID 0000.0001)     ;
(PID.TID 0000.0001) saltAdvection = /* Salinity advection on/off flag */
(PID.TID 0000.0001)                   T
(PID.TID 0000.0001)     ;
(PID.TID 0000.0001) saltImplVertAdv = /* Sali. implicit vert. advection on/off */
(PID.TID 0000.0001)                   F
(PID.TID 0000.0001)     ;
(PID.TID 0000.0001) saltForcing  =  /* Salinity forcing on/off flag */
(PID.TID 0000.0001)                   T
(PID.TID 0000.0001)     ;
(PID.TID 0000.0001) balanceEmPmR =  /* balance net fresh-water flux on/off flag */
(PID.TID 0000.0001)                   F
(PID.TID 0000.0001)     ;
(PID.TID 0000.0001) doSaltClimRelax = /* apply SSS relaxation on/off flag */
(PID.TID 0000.0001)                   F
(PID.TID 0000.0001)     ;
(PID.TID 0000.0001) balanceSaltClimRelax= /* balance SSS relaxation on/off flag */
(PID.TID 0000.0001)                   F
(PID.TID 0000.0001)     ;
(PID.TID 0000.0001) saltIsActiveTr = /* Salt  is a dynamically Active Tracer */
(PID.TID 0000.0001)                   T
(PID.TID 0000.0001)     ;
(PID.TID 0000.0001)  readBinaryPrec = /* Precision used for reading binary files */
(PID.TID 0000.0001)                      64
(PID.TID 0000.0001)     ;
(PID.TID 0000.0001) writeBinaryPrec = /* Precision used for writing binary files */
(PID.TID 0000.0001)                      64
(PID.TID 0000.0001)     ;
(PID.TID 0000.0001)  rwSuffixType =   /* select format of mds file suffix */
(PID.TID 0000.0001)                       0
(PID.TID 0000.0001)    = 0 : myIter (I10.10) ;   = 1 : 100*myTime (100th sec) ;
(PID.TID 0000.0001)    = 2 : myTime (seconds);   = 3 : myTime/360 (10th of hr);
(PID.TID 0000.0001)    = 4 : myTime/3600 (hours)
(PID.TID 0000.0001)     ;
(PID.TID 0000.0001)  globalFiles = /* write "global" (=not per tile) files */
(PID.TID 0000.0001)                   F
(PID.TID 0000.0001)     ;
(PID.TID 0000.0001)  useSingleCpuIO = /* only master MPI process does I/O */
(PID.TID 0000.0001)                   T
(PID.TID 0000.0001)     ;
(PID.TID 0000.0001)  useSingleCpuInput = /* only master process reads input */
(PID.TID 0000.0001)                   T
(PID.TID 0000.0001)     ;
(PID.TID 0000.0001) /* debLev[*]  : level of debug & auxiliary message printing */
(PID.TID 0000.0001) debLevZero =  0 ; /* level of disabled aux. msg printing */
(PID.TID 0000.0001)    debLevA =  1 ; /* level of minimum  aux. msg printing */
(PID.TID 0000.0001)    debLevB =  2 ; /* level of low aux. print (report read-file opening)*/
(PID.TID 0000.0001)    debLevC =  3 ; /* level of moderate debug prt (most pkgs debug msg) */
(PID.TID 0000.0001)    debLevD =  4 ; /* level of enhanced debug prt (add DEBUG_STATS prt) */
(PID.TID 0000.0001)    debLevE =  5 ; /* level of extensive debug printing */
(PID.TID 0000.0001) debugLevel =  /* select debug printing level */
(PID.TID 0000.0001)                       2
(PID.TID 0000.0001)     ;
(PID.TID 0000.0001)  plotLevel =  /* select PLOT_FIELD printing level */
(PID.TID 0000.0001)                       2
(PID.TID 0000.0001)     ;
(PID.TID 0000.0001) //
(PID.TID 0000.0001) // Elliptic solver(s) paramters ( PARM02 in namelist )
(PID.TID 0000.0001) //
(PID.TID 0000.0001) cg2dMaxIters =   /* Upper limit on 2d con. grad iterations  */
(PID.TID 0000.0001)                     200
(PID.TID 0000.0001)     ;
(PID.TID 0000.0001) cg2dChkResFreq =   /* 2d con. grad convergence test frequency */
(PID.TID 0000.0001)                       1
(PID.TID 0000.0001)     ;
(PID.TID 0000.0001) cg2dUseMinResSol= /* use cg2d last-iter(=0) / min-resid.(=1) solution */
(PID.TID 0000.0001)                       0
(PID.TID 0000.0001)     ;
(PID.TID 0000.0001) cg2dTargetResidual =   /* 2d con. grad target residual  */
(PID.TID 0000.0001)                 1.000000000000000E-07
(PID.TID 0000.0001)     ;
(PID.TID 0000.0001) cg2dTargetResWunit =   /* CG2d target residual [W units] */
(PID.TID 0000.0001)                 1.000000000000000E-14
(PID.TID 0000.0001)     ;
(PID.TID 0000.0001) cg2dPreCondFreq =   /* Freq. for updating cg2d preconditioner */
(PID.TID 0000.0001)                       1
(PID.TID 0000.0001)     ;
(PID.TID 0000.0001) useSRCGSolver =  /* use single reduction CG solver(s) */
(PID.TID 0000.0001)                   F
(PID.TID 0000.0001)     ;
(PID.TID 0000.0001) printResidualFreq = /* Freq. for printing CG residual */
(PID.TID 0000.0001)                       0
(PID.TID 0000.0001)     ;
(PID.TID 0000.0001) //
(PID.TID 0000.0001) // Time stepping paramters ( PARM03 in namelist )
(PID.TID 0000.0001) //
(PID.TID 0000.0001) deltaTMom =   /* Momentum equation timestep ( s ) */
(PID.TID 0000.0001)                 1.200000000000000E+03
(PID.TID 0000.0001)     ;
(PID.TID 0000.0001) deltaTFreeSurf = /* FreeSurface equation timestep ( s ) */
(PID.TID 0000.0001)                 8.640000000000000E+04
(PID.TID 0000.0001)     ;
(PID.TID 0000.0001) dTtracerLev =  /* Tracer equation timestep ( s ) */
(PID.TID 0000.0001)    15 @  8.640000000000000E+04              /* K =  1: 15 */
(PID.TID 0000.0001)     ;
(PID.TID 0000.0001) deltaTClock  =   /* Model clock timestep ( s ) */
(PID.TID 0000.0001)                 8.640000000000000E+04
(PID.TID 0000.0001)     ;
(PID.TID 0000.0001) cAdjFreq =   /* Convective adjustment interval ( s ) */
(PID.TID 0000.0001)                 0.000000000000000E+00
(PID.TID 0000.0001)     ;
(PID.TID 0000.0001) momForcingOutAB = /* =1: take Momentum Forcing out of Adams-Bash. stepping */
(PID.TID 0000.0001)                       1
(PID.TID 0000.0001)     ;
(PID.TID 0000.0001) tracForcingOutAB = /* =1: take T,S,pTr Forcing out of Adams-Bash. stepping */
(PID.TID 0000.0001)                       1
(PID.TID 0000.0001)     ;
(PID.TID 0000.0001) momDissip_In_AB = /* put Dissipation Tendency in Adams-Bash. stepping */
(PID.TID 0000.0001)                   T
(PID.TID 0000.0001)     ;
(PID.TID 0000.0001) doAB_onGtGs = /* apply AB on Tendencies (rather than on T,S)*/
(PID.TID 0000.0001)                   T
(PID.TID 0000.0001)     ;
(PID.TID 0000.0001) abEps =   /* Adams-Bashforth-2 stabilizing weight */
(PID.TID 0000.0001)                 1.000000000000000E-01
(PID.TID 0000.0001)     ;
(PID.TID 0000.0001) applyExchUV_early = /* Apply EXCH to U,V earlier in time-step */
(PID.TID 0000.0001)                   F
(PID.TID 0000.0001)     ;
(PID.TID 0000.0001) pickupStrictlyMatch= /* stop if pickup do not strictly match */
(PID.TID 0000.0001)                   F
(PID.TID 0000.0001)     ;
(PID.TID 0000.0001) nIter0   =   /* Run starting timestep number */
(PID.TID 0000.0001)                   72000
(PID.TID 0000.0001)     ;
(PID.TID 0000.0001) nTimeSteps = /* Number of timesteps */
(PID.TID 0000.0001)                      10
(PID.TID 0000.0001)     ;
(PID.TID 0000.0001) nEndIter =   /* Run ending timestep number */
(PID.TID 0000.0001)                   72010
(PID.TID 0000.0001)     ;
(PID.TID 0000.0001) baseTime =   /* Model base time ( s ) */
(PID.TID 0000.0001)                 0.000000000000000E+00
(PID.TID 0000.0001)     ;
(PID.TID 0000.0001) startTime =  /* Run start time ( s ) */
(PID.TID 0000.0001)                 6.220800000000000E+09
(PID.TID 0000.0001)     ;
(PID.TID 0000.0001) endTime  =   /* Integration ending time ( s ) */
(PID.TID 0000.0001)                 6.221664000000000E+09
(PID.TID 0000.0001)     ;
(PID.TID 0000.0001) pChkPtFreq = /* Permanent restart/pickup file interval ( s ) */
(PID.TID 0000.0001)                 3.110400000000000E+09
(PID.TID 0000.0001)     ;
(PID.TID 0000.0001) chkPtFreq  = /* Rolling restart/pickup file interval ( s ) */
(PID.TID 0000.0001)                 1.555200000000000E+08
(PID.TID 0000.0001)     ;
(PID.TID 0000.0001) pickup_write_mdsio =   /* Model IO flag. */
(PID.TID 0000.0001)                   T
(PID.TID 0000.0001)     ;
(PID.TID 0000.0001) pickup_read_mdsio =   /* Model IO flag. */
(PID.TID 0000.0001)                   T
(PID.TID 0000.0001)     ;
(PID.TID 0000.0001) pickup_write_mnc =   /* Model IO flag. */
(PID.TID 0000.0001)                   F
(PID.TID 0000.0001)     ;
(PID.TID 0000.0001) pickup_read_mnc =   /* Model IO flag. */
(PID.TID 0000.0001)                   F
(PID.TID 0000.0001)     ;
(PID.TID 0000.0001) writePickupAtEnd =   /* Model IO flag. */
(PID.TID 0000.0001)                   T
(PID.TID 0000.0001)     ;
(PID.TID 0000.0001) dumpFreq =   /* Model state write out interval ( s ). */
(PID.TID 0000.0001)                 0.000000000000000E+00
(PID.TID 0000.0001)     ;
(PID.TID 0000.0001) dumpInitAndLast= /* write out Initial & Last iter. model state */
(PID.TID 0000.0001)                   T
(PID.TID 0000.0001)     ;
(PID.TID 0000.0001) snapshot_mdsio =   /* Model IO flag. */
(PID.TID 0000.0001)                   T
(PID.TID 0000.0001)     ;
(PID.TID 0000.0001) snapshot_mnc =   /* Model IO flag. */
(PID.TID 0000.0001)                   F
(PID.TID 0000.0001)     ;
(PID.TID 0000.0001) monitorFreq =   /* Monitor output interval ( s ). */
(PID.TID 0000.0001)                 1.000000000000000E+00
(PID.TID 0000.0001)     ;
(PID.TID 0000.0001) monitorSelect = /* select group of variables to monitor */
(PID.TID 0000.0001)                       3
(PID.TID 0000.0001)     ;
(PID.TID 0000.0001) monitor_stdio =   /* Model IO flag. */
(PID.TID 0000.0001)                   T
(PID.TID 0000.0001)     ;
(PID.TID 0000.0001) monitor_mnc =   /* Model IO flag. */
(PID.TID 0000.0001)                   F
(PID.TID 0000.0001)     ;
(PID.TID 0000.0001) externForcingPeriod =   /* forcing period (s) */
(PID.TID 0000.0001)                 2.592000000000000E+06
(PID.TID 0000.0001)     ;
(PID.TID 0000.0001) externForcingCycle =   /* period of the cyle (s). */
(PID.TID 0000.0001)                 3.110400000000000E+07
(PID.TID 0000.0001)     ;
(PID.TID 0000.0001) tauThetaClimRelax =   /* relaxation time scale (s) */
(PID.TID 0000.0001)                 0.000000000000000E+00
(PID.TID 0000.0001)     ;
(PID.TID 0000.0001) tauSaltClimRelax =   /* relaxation time scale (s) */
(PID.TID 0000.0001)                 0.000000000000000E+00
(PID.TID 0000.0001)     ;
(PID.TID 0000.0001) latBandClimRelax =   /* max. Lat. where relaxation */
(PID.TID 0000.0001)                 1.800000000000000E+02
(PID.TID 0000.0001)     ;
(PID.TID 0000.0001) //
(PID.TID 0000.0001) // Gridding paramters ( PARM04 in namelist )
(PID.TID 0000.0001) //
(PID.TID 0000.0001) usingCartesianGrid = /* Cartesian coordinates flag ( True/False ) */
(PID.TID 0000.0001)                   F
(PID.TID 0000.0001)     ;
(PID.TID 0000.0001) usingCylindricalGrid = /* Cylindrical coordinates flag ( True/False ) */
(PID.TID 0000.0001)                   F
(PID.TID 0000.0001)     ;
(PID.TID 0000.0001) usingSphericalPolarGrid = /* Spherical coordinates flag ( True/False ) */
(PID.TID 0000.0001)                   F
(PID.TID 0000.0001)     ;
(PID.TID 0000.0001) usingCurvilinearGrid = /* Curvilinear coordinates flag ( True/False ) */
(PID.TID 0000.0001)                   T
(PID.TID 0000.0001)     ;
(PID.TID 0000.0001) selectSigmaCoord = /* Hybrid-Sigma Vert. Coordinate option */
(PID.TID 0000.0001)                       0
(PID.TID 0000.0001)     ;
(PID.TID 0000.0001) rSigmaBnd = /* r/sigma transition ( units of r ==  m ) */
(PID.TID 0000.0001)                 1.234567000000000E+05
(PID.TID 0000.0001)     ;
(PID.TID 0000.0001) rkSign =   /* index orientation relative to vertical coordinate */
(PID.TID 0000.0001)                -1.000000000000000E+00
(PID.TID 0000.0001)     ;
(PID.TID 0000.0001) gravitySign = /* gravity orientation relative to vertical coordinate */
(PID.TID 0000.0001)                -1.000000000000000E+00
(PID.TID 0000.0001)     ;
(PID.TID 0000.0001) seaLev_Z =  /* reference height of sea-level [m] */
(PID.TID 0000.0001)                 0.000000000000000E+00
(PID.TID 0000.0001)     ;
(PID.TID 0000.0001) top_Pres =  /* reference pressure at the top [Pa] */
(PID.TID 0000.0001)                 0.000000000000000E+00
(PID.TID 0000.0001)     ;
(PID.TID 0000.0001) mass2rUnit = /* convert mass per unit area [kg/m2] to r-units [m] */
(PID.TID 0000.0001)                 9.661835748792270E-04
(PID.TID 0000.0001)     ;
(PID.TID 0000.0001) rUnit2mass = /* convert r-units [m] to mass per unit area [kg/m2] */
(PID.TID 0000.0001)                 1.035000000000000E+03
(PID.TID 0000.0001)     ;
(PID.TID 0000.0001) drC =   /* C spacing ( units of r ) */
(PID.TID 0000.0001)                 2.500000000000000E+01,      /* K =  1 */
(PID.TID 0000.0001)                 6.000000000000000E+01,      /* K =  2 */
(PID.TID 0000.0001)                 8.500000000000000E+01,      /* K =  3 */
(PID.TID 0000.0001)                 1.200000000000000E+02,      /* K =  4 */
(PID.TID 0000.0001)                 1.650000000000000E+02,      /* K =  5 */
(PID.TID 0000.0001)                 2.150000000000000E+02,      /* K =  6 */
(PID.TID 0000.0001)                 2.650000000000000E+02,      /* K =  7 */
(PID.TID 0000.0001)                 3.150000000000000E+02,      /* K =  8 */
(PID.TID 0000.0001)                 3.650000000000000E+02,      /* K =  9 */
(PID.TID 0000.0001)                 4.150000000000000E+02,      /* K = 10 */
(PID.TID 0000.0001)                 4.650000000000000E+02,      /* K = 11 */
(PID.TID 0000.0001)                 5.150000000000000E+02,      /* K = 12 */
(PID.TID 0000.0001)                 5.650000000000000E+02,      /* K = 13 */
(PID.TID 0000.0001)                 6.150000000000000E+02,      /* K = 14 */
(PID.TID 0000.0001)                 6.650000000000000E+02,      /* K = 15 */
(PID.TID 0000.0001)                 3.450000000000000E+02       /* K = 16 */
(PID.TID 0000.0001)     ;
(PID.TID 0000.0001) drF =   /* W spacing ( units of r ) */
(PID.TID 0000.0001)                 5.000000000000000E+01,      /* K =  1 */
(PID.TID 0000.0001)                 7.000000000000000E+01,      /* K =  2 */
(PID.TID 0000.0001)                 1.000000000000000E+02,      /* K =  3 */
(PID.TID 0000.0001)                 1.400000000000000E+02,      /* K =  4 */
(PID.TID 0000.0001)                 1.900000000000000E+02,      /* K =  5 */
(PID.TID 0000.0001)                 2.400000000000000E+02,      /* K =  6 */
(PID.TID 0000.0001)                 2.900000000000000E+02,      /* K =  7 */
(PID.TID 0000.0001)                 3.400000000000000E+02,      /* K =  8 */
(PID.TID 0000.0001)                 3.900000000000000E+02,      /* K =  9 */
(PID.TID 0000.0001)                 4.400000000000000E+02,      /* K = 10 */
(PID.TID 0000.0001)                 4.900000000000000E+02,      /* K = 11 */
(PID.TID 0000.0001)                 5.400000000000000E+02,      /* K = 12 */
(PID.TID 0000.0001)                 5.900000000000000E+02,      /* K = 13 */
(PID.TID 0000.0001)                 6.400000000000000E+02,      /* K = 14 */
(PID.TID 0000.0001)                 6.900000000000000E+02       /* K = 15 */
(PID.TID 0000.0001)     ;
(PID.TID 0000.0001) radius_fromHorizGrid = /* sphere Radius of input horiz. grid */
(PID.TID 0000.0001)                 6.370000000000000E+06
(PID.TID 0000.0001)     ;
(PID.TID 0000.0001) rSphere =  /* Radius ( ignored - cartesian, m - spherical ) */
(PID.TID 0000.0001)                 6.370000000000000E+06
(PID.TID 0000.0001)     ;
(PID.TID 0000.0001) deepAtmosphere = /* Deep/Shallow Atmosphere flag (True/False) */
(PID.TID 0000.0001)                   F
(PID.TID 0000.0001)     ;
(PID.TID 0000.0001) xC =  /* xC(:,1,:,1) : P-point X coord ( deg. or m if cartesian) */
(PID.TID 0000.0001)                -4.439521994760536E+01,      /* I =  1 */
(PID.TID 0000.0001)                -4.295641272275883E+01,      /* I =  2 */
(PID.TID 0000.0001)                -4.122055553388957E+01,      /* I =  3 */
(PID.TID 0000.0001)      . . .
(PID.TID 0000.0001)                 1.312205555338896E+02,      /* I = 94 */
(PID.TID 0000.0001)                 1.329564127227588E+02,      /* I = 95 */
(PID.TID 0000.0001)                 1.343952199476053E+02,      /* I = 96 */
(PID.TID 0000.0001)                 4.635509675007168E+01,      /* I = 97 */
(PID.TID 0000.0001)                 4.906731228843647E+01,      /* I = 98 */
(PID.TID 0000.0001)                 5.178550688214704E+01,      /* I = 99 */
(PID.TID 0000.0001)      . . .
(PID.TID 0000.0001)                -1.778001716525716E+02,      /* I =190 */
(PID.TID 0000.0001)                -1.779288225675308E+02,      /* I =191 */
(PID.TID 0000.0001)                -1.780367200854751E+02,      /* I =192 */
(PID.TID 0000.0001)                 1.356047800523947E+02,      /* I =193 */
(PID.TID 0000.0001)                 1.358367907661329E+02,      /* I =194 */
(PID.TID 0000.0001)                 1.359720382181193E+02,      /* I =195 */
(PID.TID 0000.0001)      . . .
(PID.TID 0000.0001)                -1.340279617818807E+02,      /* I =286 */
(PID.TID 0000.0001)                -1.341632092338671E+02,      /* I =287 */
(PID.TID 0000.0001)                -1.343952199476053E+02,      /* I =288 */
(PID.TID 0000.0001)                -8.812739148696656E+01,      /* I =289 */
(PID.TID 0000.0001)                -8.820362659721324E+01,      /* I =290 */
(PID.TID 0000.0001)                -8.826768106944316E+01,      /* I =291 */
(PID.TID 0000.0001)      . . .
(PID.TID 0000.0001)                 8.780017165257156E+01,      /* I =382 */
(PID.TID 0000.0001)                 8.792882256753080E+01,      /* I =383 */
(PID.TID 0000.0001)                 8.803672008547504E+01       /* I =384 */
(PID.TID 0000.0001)     ;
(PID.TID 0000.0001) yC =  /* yC(1,:,1,:) : P-point Y coord ( deg. or m if cartesian) */
(PID.TID 0000.0001)                -3.497677942598243E+01,      /* J =  1 */
(PID.TID 0000.0001)                -3.374005967394886E+01,      /* J =  2 */
(PID.TID 0000.0001)                -3.220655175667454E+01,      /* J =  3 */
(PID.TID 0000.0001)                -3.045756348838641E+01,      /* J =  4 */
(PID.TID 0000.0001)                -2.853728129852918E+01,      /* J =  5 */
(PID.TID 0000.0001)                -2.647426640173173E+01,      /* J =  6 */
(PID.TID 0000.0001)                -2.428936657094636E+01,      /* J =  7 */
(PID.TID 0000.0001)                -2.199915808312262E+01,      /* J =  8 */
(PID.TID 0000.0001)                -1.961768597440146E+01,      /* J =  9 */
(PID.TID 0000.0001)                -1.715743888281371E+01,      /* J = 10 */
(PID.TID 0000.0001)                -1.462993396899330E+01,      /* J = 11 */
(PID.TID 0000.0001)                -1.204608340464756E+01,      /* J = 12 */
(PID.TID 0000.0001)                -9.416429130284818E+00,      /* J = 13 */
(PID.TID 0000.0001)                -6.751293662992216E+00,      /* J = 14 */
(PID.TID 0000.0001)                -4.060875511835959E+00,      /* J = 15 */
(PID.TID 0000.0001)                -1.355307764409121E+00       /* J = 16 */
(PID.TID 0000.0001)     ;
(PID.TID 0000.0001) rcoord = /* P-point R coordinate (  units of r ) */
(PID.TID 0000.0001)                -2.500000000000000E+01,      /* K =  1 */
(PID.TID 0000.0001)                -8.500000000000000E+01,      /* K =  2 */
(PID.TID 0000.0001)                -1.700000000000000E+02,      /* K =  3 */
(PID.TID 0000.0001)                -2.900000000000000E+02,      /* K =  4 */
(PID.TID 0000.0001)                -4.550000000000000E+02,      /* K =  5 */
(PID.TID 0000.0001)                -6.700000000000000E+02,      /* K =  6 */
(PID.TID 0000.0001)                -9.350000000000000E+02,      /* K =  7 */
(PID.TID 0000.0001)                -1.250000000000000E+03,      /* K =  8 */
(PID.TID 0000.0001)                -1.615000000000000E+03,      /* K =  9 */
(PID.TID 0000.0001)                -2.030000000000000E+03,      /* K = 10 */
(PID.TID 0000.0001)                -2.495000000000000E+03,      /* K = 11 */
(PID.TID 0000.0001)                -3.010000000000000E+03,      /* K = 12 */
(PID.TID 0000.0001)                -3.575000000000000E+03,      /* K = 13 */
(PID.TID 0000.0001)                -4.190000000000000E+03,      /* K = 14 */
(PID.TID 0000.0001)                -4.855000000000000E+03       /* K = 15 */
(PID.TID 0000.0001)     ;
(PID.TID 0000.0001) rF =   /* W-Interf. R coordinate (  units of r ) */
(PID.TID 0000.0001)                 0.000000000000000E+00,      /* K =  1 */
(PID.TID 0000.0001)                -5.000000000000000E+01,      /* K =  2 */
(PID.TID 0000.0001)                -1.200000000000000E+02,      /* K =  3 */
(PID.TID 0000.0001)                -2.200000000000000E+02,      /* K =  4 */
(PID.TID 0000.0001)                -3.600000000000000E+02,      /* K =  5 */
(PID.TID 0000.0001)                -5.500000000000000E+02,      /* K =  6 */
(PID.TID 0000.0001)                -7.900000000000000E+02,      /* K =  7 */
(PID.TID 0000.0001)                -1.080000000000000E+03,      /* K =  8 */
(PID.TID 0000.0001)                -1.420000000000000E+03,      /* K =  9 */
(PID.TID 0000.0001)                -1.810000000000000E+03,      /* K = 10 */
(PID.TID 0000.0001)                -2.250000000000000E+03,      /* K = 11 */
(PID.TID 0000.0001)                -2.740000000000000E+03,      /* K = 12 */
(PID.TID 0000.0001)                -3.280000000000000E+03,      /* K = 13 */
(PID.TID 0000.0001)                -3.870000000000000E+03,      /* K = 14 */
(PID.TID 0000.0001)                -4.510000000000000E+03,      /* K = 15 */
(PID.TID 0000.0001)                -5.200000000000000E+03       /* K = 16 */
(PID.TID 0000.0001)     ;
(PID.TID 0000.0001) deepFacC = /* deep-model grid factor @ cell-Center (-) */
(PID.TID 0000.0001)    15 @  1.000000000000000E+00              /* K =  1: 15 */
(PID.TID 0000.0001)     ;
(PID.TID 0000.0001) deepFacF = /* deep-model grid factor @ W-Interface (-) */
(PID.TID 0000.0001)    16 @  1.000000000000000E+00              /* K =  1: 16 */
(PID.TID 0000.0001)     ;
(PID.TID 0000.0001) rVel2wUnit = /* convert units: rVel -> wSpeed (=1 if z-coord)*/
(PID.TID 0000.0001)    16 @  1.000000000000000E+00              /* K =  1: 16 */
(PID.TID 0000.0001)     ;
(PID.TID 0000.0001) wUnit2rVel = /* convert units: wSpeed -> rVel (=1 if z-coord)*/
(PID.TID 0000.0001)    16 @  1.000000000000000E+00              /* K =  1: 16 */
(PID.TID 0000.0001)     ;
(PID.TID 0000.0001) dBdrRef = /* Vertical grad. of reference buoyancy [(m/s/r)^2] */
(PID.TID 0000.0001)    15 @  0.000000000000000E+00              /* K =  1: 15 */
(PID.TID 0000.0001)     ;
(PID.TID 0000.0001) rotateGrid = /* use rotated grid ( True/False ) */
(PID.TID 0000.0001)                   F
(PID.TID 0000.0001)     ;
(PID.TID 0000.0001) phiEuler = /* Euler angle, rotation about original z-coordinate [rad] */
(PID.TID 0000.0001)                 0.000000000000000E+00
(PID.TID 0000.0001)     ;
(PID.TID 0000.0001) thetaEuler = /* Euler angle, rotation about new x-coordinate [rad] */
(PID.TID 0000.0001)                 0.000000000000000E+00
(PID.TID 0000.0001)     ;
(PID.TID 0000.0001) psiEuler = /* Euler angle, rotation about new z-coordinate [rad] */
(PID.TID 0000.0001)                 0.000000000000000E+00
(PID.TID 0000.0001)     ;
(PID.TID 0000.0001) dxF =  /* dxF(:,1,:,1) ( units: m ) */
(PID.TID 0000.0001)                 1.202082051331828E+05,      /* I =  1 */
(PID.TID 0000.0001)                 1.563594089971120E+05,      /* I =  2 */
(PID.TID 0000.0001)                 1.835530058121492E+05,      /* I =  3 */
(PID.TID 0000.0001)      . . .
(PID.TID 0000.0001)                 1.835530058121492E+05,      /* I = 94 */
(PID.TID 0000.0001)                 1.563594089971120E+05,      /* I = 95 */
(PID.TID 0000.0001)                 1.202082051331828E+05,      /* I = 96 */
(PID.TID 0000.0001)                 3.012844832048790E+05,      /* I = 97 */
(PID.TID 0000.0001)                 3.017314519159184E+05,      /* I = 98 */
(PID.TID 0000.0001)                 3.026061571839506E+05,      /* I = 99 */
(PID.TID 0000.0001)      . . .
(PID.TID 0000.0001)                 3.026061571839506E+05,      /* I =190 */
(PID.TID 0000.0001)                 3.017314519159184E+05,      /* I =191 */
(PID.TID 0000.0001)                 3.012844832048790E+05,      /* I =192 */
(PID.TID 0000.0001)                 1.202082051331828E+05,      /* I =193 */
(PID.TID 0000.0001)                 1.563594089971120E+05,      /* I =194 */
(PID.TID 0000.0001)                 1.835530058121492E+05,      /* I =195 */
(PID.TID 0000.0001)      . . .
(PID.TID 0000.0001)                 1.835530058121492E+05,      /* I =286 */
(PID.TID 0000.0001)                 1.563594089971120E+05,      /* I =287 */
(PID.TID 0000.0001)                 1.202082051331828E+05,      /* I =288 */
(PID.TID 0000.0001)                 3.012844832048790E+05,      /* I =289 */
(PID.TID 0000.0001)                 3.017314519159184E+05,      /* I =290 */
(PID.TID 0000.0001)                 3.026061571839506E+05,      /* I =291 */
(PID.TID 0000.0001)      . . .
(PID.TID 0000.0001)                 3.026061571839506E+05,      /* I =382 */
(PID.TID 0000.0001)                 3.017314519159184E+05,      /* I =383 */
(PID.TID 0000.0001)                 3.012844832048790E+05       /* I =384 */
(PID.TID 0000.0001)     ;
(PID.TID 0000.0001) dxF =  /* dxF(1,:,1,:) ( units: m ) */
(PID.TID 0000.0001)                 1.202082051331828E+05,      /* J =  1 */
(PID.TID 0000.0001)                 1.572908084538706E+05,      /* J =  2 */
(PID.TID 0000.0001)                 1.840412227747703E+05,      /* J =  3 */
(PID.TID 0000.0001)                 2.048868197919576E+05,      /* J =  4 */
(PID.TID 0000.0001)                 2.220405216043041E+05,      /* J =  5 */
(PID.TID 0000.0001)                 2.365892017348392E+05,      /* J =  6 */
(PID.TID 0000.0001)                 2.491250781852558E+05,      /* J =  7 */
(PID.TID 0000.0001)                 2.599949918261881E+05,      /* J =  8 */
(PID.TID 0000.0001)                 2.694110134598581E+05,      /* J =  9 */
(PID.TID 0000.0001)                 2.775055554645015E+05,      /* J = 10 */
(PID.TID 0000.0001)                 2.843615645344775E+05,      /* J = 11 */
(PID.TID 0000.0001)                 2.900303768613599E+05,      /* J = 12 */
(PID.TID 0000.0001)                 2.945429307892709E+05,      /* J = 13 */
(PID.TID 0000.0001)                 2.979171143158405E+05,      /* J = 14 */
(PID.TID 0000.0001)                 3.001626787528886E+05,      /* J = 15 */
(PID.TID 0000.0001)                 3.012844832048790E+05       /* J = 16 */
(PID.TID 0000.0001)     ;
(PID.TID 0000.0001) dyF =  /* dyF(:,1,:,1) ( units: m ) */
(PID.TID 0000.0001)                 1.202082051331828E+05,      /* I =  1 */
(PID.TID 0000.0001)                 1.572908084538706E+05,      /* I =  2 */
(PID.TID 0000.0001)                 1.840412227747703E+05,      /* I =  3 */
(PID.TID 0000.0001)      . . .
(PID.TID 0000.0001)                 1.840412227747703E+05,      /* I = 94 */
(PID.TID 0000.0001)                 1.572908084538706E+05,      /* I = 95 */
(PID.TID 0000.0001)                 1.202082051331828E+05,      /* I = 96 */
(PID.TID 0000.0001)                 3.012190981969055E+05,      /* I = 97 */
(PID.TID 0000.0001)                 3.016675528553907E+05,      /* I = 98 */
(PID.TID 0000.0001)                 3.025451404065074E+05,      /* I = 99 */
(PID.TID 0000.0001)      . . .
(PID.TID 0000.0001)                 3.025451404065074E+05,      /* I =190 */
(PID.TID 0000.0001)                 3.016675528553907E+05,      /* I =191 */
(PID.TID 0000.0001)                 3.012190981969055E+05,      /* I =192 */
(PID.TID 0000.0001)                 1.202082051331828E+05,      /* I =193 */
(PID.TID 0000.0001)                 1.572908084538706E+05,      /* I =194 */
(PID.TID 0000.0001)                 1.840412227747703E+05,      /* I =195 */
(PID.TID 0000.0001)      . . .
(PID.TID 0000.0001)                 1.840412227747703E+05,      /* I =286 */
(PID.TID 0000.0001)                 1.572908084538706E+05,      /* I =287 */
(PID.TID 0000.0001)                 1.202082051331828E+05,      /* I =288 */
(PID.TID 0000.0001)                 3.012190981969055E+05,      /* I =289 */
(PID.TID 0000.0001)                 3.016675528553907E+05,      /* I =290 */
(PID.TID 0000.0001)                 3.025451404065074E+05,      /* I =291 */
(PID.TID 0000.0001)      . . .
(PID.TID 0000.0001)                 3.025451404065074E+05,      /* I =382 */
(PID.TID 0000.0001)                 3.016675528553907E+05,      /* I =383 */
(PID.TID 0000.0001)                 3.012190981969055E+05       /* I =384 */
(PID.TID 0000.0001)     ;
(PID.TID 0000.0001) dyF =  /* dyF(1,:,1,:) ( units: m ) */
(PID.TID 0000.0001)                 1.202082051331828E+05,      /* J =  1 */
(PID.TID 0000.0001)                 1.563594089971120E+05,      /* J =  2 */
(PID.TID 0000.0001)                 1.835530058121492E+05,      /* J =  3 */
(PID.TID 0000.0001)                 2.045883481718707E+05,      /* J =  4 */
(PID.TID 0000.0001)                 2.218350349844185E+05,      /* J =  5 */
(PID.TID 0000.0001)                 2.364352994647058E+05,      /* J =  6 */
(PID.TID 0000.0001)                 2.490022710862746E+05,      /* J =  7 */
(PID.TID 0000.0001)                 2.598919724358304E+05,      /* J =  8 */
(PID.TID 0000.0001)                 2.693210245495156E+05,      /* J =  9 */
(PID.TID 0000.0001)                 2.774243179696503E+05,      /* J = 10 */
(PID.TID 0000.0001)                 2.842862532064524E+05,      /* J = 11 */
(PID.TID 0000.0001)                 2.899590699694043E+05,      /* J = 12 */
(PID.TID 0000.0001)                 2.944742915095688E+05,      /* J = 13 */
(PID.TID 0000.0001)                 2.978501920522794E+05,      /* J = 14 */
(PID.TID 0000.0001)                 3.000967749619962E+05,      /* J = 15 */
(PID.TID 0000.0001)                 3.012190981969055E+05       /* J = 16 */
(PID.TID 0000.0001)     ;
(PID.TID 0000.0001) dxG =  /* dxG(:,1,:,1) ( units: m ) */
(PID.TID 0000.0001)                 1.009837800879055E+05,      /* I =  1 */
(PID.TID 0000.0001)                 1.534505834330338E+05,      /* I =  2 */
(PID.TID 0000.0001)                 1.823321598773926E+05,      /* I =  3 */
(PID.TID 0000.0001)      . . .
(PID.TID 0000.0001)                 1.823321598773926E+05,      /* I = 94 */
(PID.TID 0000.0001)                 1.534505834330338E+05,      /* I = 95 */
(PID.TID 0000.0001)                 1.009837800879055E+05,      /* I = 96 */
(PID.TID 0000.0001)                 3.014246674484008E+05,      /* I = 97 */
(PID.TID 0000.0001)                 3.018694497480782E+05,      /* I = 98 */
(PID.TID 0000.0001)                 3.027399364062562E+05,      /* I = 99 */
(PID.TID 0000.0001)      . . .
(PID.TID 0000.0001)                 3.027399364062562E+05,      /* I =190 */
(PID.TID 0000.0001)                 3.018694497480782E+05,      /* I =191 */
(PID.TID 0000.0001)                 3.014246674484008E+05,      /* I =192 */
(PID.TID 0000.0001)                 1.009837800879055E+05,      /* I =193 */
(PID.TID 0000.0001)                 1.534505834330338E+05,      /* I =194 */
(PID.TID 0000.0001)                 1.823321598773926E+05,      /* I =195 */
(PID.TID 0000.0001)      . . .
(PID.TID 0000.0001)                 1.823321598773926E+05,      /* I =286 */
(PID.TID 0000.0001)                 1.534505834330338E+05,      /* I =287 */
(PID.TID 0000.0001)                 1.009837800879055E+05,      /* I =288 */
(PID.TID 0000.0001)                 3.014246674484008E+05,      /* I =289 */
(PID.TID 0000.0001)                 3.018694497480782E+05,      /* I =290 */
(PID.TID 0000.0001)                 3.027399364062562E+05,      /* I =291 */
(PID.TID 0000.0001)      . . .
(PID.TID 0000.0001)                 3.027399364062562E+05,      /* I =382 */
(PID.TID 0000.0001)                 3.018694497480782E+05,      /* I =383 */
(PID.TID 0000.0001)                 3.014246674484008E+05       /* I =384 */
(PID.TID 0000.0001)     ;
(PID.TID 0000.0001) dxG =  /* dxG(1,:,1,:) ( units: m ) */
(PID.TID 0000.0001)                 1.009837800879055E+05,      /* J =  1 */
(PID.TID 0000.0001)                 1.403701524205398E+05,      /* J =  2 */
(PID.TID 0000.0001)                 1.716197227386011E+05,      /* J =  3 */
(PID.TID 0000.0001)                 1.950254041626018E+05,      /* J =  4 */
(PID.TID 0000.0001)                 2.138410773065497E+05,      /* J =  5 */
(PID.TID 0000.0001)                 2.295958105911512E+05,      /* J =  6 */
(PID.TID 0000.0001)                 2.430829951739083E+05,      /* J =  7 */
(PID.TID 0000.0001)                 2.547526806712889E+05,      /* J =  8 */
(PID.TID 0000.0001)                 2.648750305193301E+05,      /* J =  9 */
(PID.TID 0000.0001)                 2.736173771018112E+05,      /* J = 10 */
(PID.TID 0000.0001)                 2.810845823202647E+05,      /* J = 11 */
(PID.TID 0000.0001)                 2.873420591008078E+05,      /* J = 12 */
(PID.TID 0000.0001)                 2.924298293668651E+05,      /* J = 13 */
(PID.TID 0000.0001)                 2.963715635865306E+05,      /* J = 14 */
(PID.TID 0000.0001)                 2.991805843171258E+05,      /* J = 15 */
(PID.TID 0000.0001)                 3.008638765647886E+05       /* J = 16 */
(PID.TID 0000.0001)     ;
(PID.TID 0000.0001) dyG =  /* dyG(:,1,:,1) ( units: m ) */
(PID.TID 0000.0001)                 1.009837800879055E+05,      /* I =  1 */
(PID.TID 0000.0001)                 1.403701524205398E+05,      /* I =  2 */
(PID.TID 0000.0001)                 1.716197227386011E+05,      /* I =  3 */
(PID.TID 0000.0001)      . . .
(PID.TID 0000.0001)                 1.950254041626018E+05,      /* I = 94 */
(PID.TID 0000.0001)                 1.716197227386011E+05,      /* I = 95 */
(PID.TID 0000.0001)                 1.403701524205398E+05,      /* I = 96 */
(PID.TID 0000.0001)                 3.011625828699101E+05,      /* I = 97 */
(PID.TID 0000.0001)                 3.013880313304323E+05,      /* I = 98 */
(PID.TID 0000.0001)                 3.020546438966793E+05,      /* I = 99 */
(PID.TID 0000.0001)      . . .
(PID.TID 0000.0001)                 3.031337933484788E+05,      /* I =190 */
(PID.TID 0000.0001)                 3.020546438966793E+05,      /* I =191 */
(PID.TID 0000.0001)                 3.013880313304323E+05,      /* I =192 */
(PID.TID 0000.0001)                 1.009837800879055E+05,      /* I =193 */
(PID.TID 0000.0001)                 1.403701524205398E+05,      /* I =194 */
(PID.TID 0000.0001)                 1.716197227386011E+05,      /* I =195 */
(PID.TID 0000.0001)      . . .
(PID.TID 0000.0001)                 1.950254041626018E+05,      /* I =286 */
(PID.TID 0000.0001)                 1.716197227386011E+05,      /* I =287 */
(PID.TID 0000.0001)                 1.403701524205398E+05,      /* I =288 */
(PID.TID 0000.0001)                 3.011625828699101E+05,      /* I =289 */
(PID.TID 0000.0001)                 3.013880313304323E+05,      /* I =290 */
(PID.TID 0000.0001)                 3.020546438966793E+05,      /* I =291 */
(PID.TID 0000.0001)      . . .
(PID.TID 0000.0001)                 3.031337933484788E+05,      /* I =382 */
(PID.TID 0000.0001)                 3.020546438966793E+05,      /* I =383 */
(PID.TID 0000.0001)                 3.013880313304323E+05       /* I =384 */
(PID.TID 0000.0001)     ;
(PID.TID 0000.0001) dyG =  /* dyG(1,:,1,:) ( units: m ) */
(PID.TID 0000.0001)                 1.009837800879055E+05,      /* J =  1 */
(PID.TID 0000.0001)                 1.534505834330338E+05,      /* J =  2 */
(PID.TID 0000.0001)                 1.823321598773926E+05,      /* J =  3 */
(PID.TID 0000.0001)                 2.038999045536999E+05,      /* J =  4 */
(PID.TID 0000.0001)                 2.213884732245467E+05,      /* J =  5 */
(PID.TID 0000.0001)                 2.361211699596122E+05,      /* J =  6 */
(PID.TID 0000.0001)                 2.487693460283865E+05,      /* J =  7 */
(PID.TID 0000.0001)                 2.597126963772147E+05,      /* J =  8 */
(PID.TID 0000.0001)                 2.691790288994575E+05,      /* J =  9 */
(PID.TID 0000.0001)                 2.773091043277394E+05,      /* J = 10 */
(PID.TID 0000.0001)                 2.841906470085516E+05,      /* J = 11 */
(PID.TID 0000.0001)                 2.898778860929753E+05,      /* J = 12 */
(PID.TID 0000.0001)                 2.944035815526416E+05,      /* J = 13 */
(PID.TID 0000.0001)                 2.977867909042096E+05,      /* J = 14 */
(PID.TID 0000.0001)                 3.000380090330854E+05,      /* J = 15 */
(PID.TID 0000.0001)                 3.011625828699101E+05       /* J = 16 */
(PID.TID 0000.0001)     ;
(PID.TID 0000.0001) dxC =  /* dxC(:,1,:,1) ( units: m ) */
(PID.TID 0000.0001)                 1.114203141013064E+05,      /* I =  1 */
(PID.TID 0000.0001)                 1.391343389937106E+05,      /* I =  2 */
(PID.TID 0000.0001)                 1.709574999026266E+05,      /* I =  3 */
(PID.TID 0000.0001)      . . .
(PID.TID 0000.0001)                 1.946503699269892E+05,      /* I = 94 */
(PID.TID 0000.0001)                 1.709574999026266E+05,      /* I = 95 */
(PID.TID 0000.0001)                 1.391343389937106E+05,      /* I = 96 */
(PID.TID 0000.0001)                 3.012281885409289E+05,      /* I = 97 */
(PID.TID 0000.0001)                 3.014528555318499E+05,      /* I = 98 */
(PID.TID 0000.0001)                 3.021172674809921E+05,      /* I = 99 */
(PID.TID 0000.0001)      . . .
(PID.TID 0000.0001)                 3.031928954490276E+05,      /* I =190 */
(PID.TID 0000.0001)                 3.021172674809921E+05,      /* I =191 */
(PID.TID 0000.0001)                 3.014528555318499E+05,      /* I =192 */
(PID.TID 0000.0001)                 1.114203141013064E+05,      /* I =193 */
(PID.TID 0000.0001)                 1.391343389937106E+05,      /* I =194 */
(PID.TID 0000.0001)                 1.709574999026266E+05,      /* I =195 */
(PID.TID 0000.0001)      . . .
(PID.TID 0000.0001)                 1.946503699269892E+05,      /* I =286 */
(PID.TID 0000.0001)                 1.709574999026266E+05,      /* I =287 */
(PID.TID 0000.0001)                 1.391343389937106E+05,      /* I =288 */
(PID.TID 0000.0001)                 3.012281885409289E+05,      /* I =289 */
(PID.TID 0000.0001)                 3.014528555318499E+05,      /* I =290 */
(PID.TID 0000.0001)                 3.021172674809921E+05,      /* I =291 */
(PID.TID 0000.0001)      . . .
(PID.TID 0000.0001)                 3.031928954490276E+05,      /* I =382 */
(PID.TID 0000.0001)                 3.021172674809921E+05,      /* I =383 */
(PID.TID 0000.0001)                 3.014528555318499E+05       /* I =384 */
(PID.TID 0000.0001)     ;
(PID.TID 0000.0001) dxC =  /* dxC(1,:,1,:) ( units: m ) */
(PID.TID 0000.0001)                 1.114203141013064E+05,      /* J =  1 */
(PID.TID 0000.0001)                 1.549545757850771E+05,      /* J =  2 */
(PID.TID 0000.0001)                 1.829777599966776E+05,      /* J =  3 */
(PID.TID 0000.0001)                 2.042717761866506E+05,      /* J =  4 */
(PID.TID 0000.0001)                 2.216367828252819E+05,      /* J =  5 */
(PID.TID 0000.0001)                 2.363029564123586E+05,      /* J =  6 */
(PID.TID 0000.0001)                 2.489113743322025E+05,      /* J =  7 */
(PID.TID 0000.0001)                 2.598293319150326E+05,      /* J =  8 */
(PID.TID 0000.0001)                 2.692787333338535E+05,      /* J =  9 */
(PID.TID 0000.0001)                 2.773972106720365E+05,      /* J = 10 */
(PID.TID 0000.0001)                 2.842706922224557E+05,      /* J = 11 */
(PID.TID 0000.0001)                 2.899523122489403E+05,      /* J = 12 */
(PID.TID 0000.0001)                 2.944741346384699E+05,      /* J = 13 */
(PID.TID 0000.0001)                 2.978547649292580E+05,      /* J = 14 */
(PID.TID 0000.0001)                 3.001044073506459E+05,      /* J = 15 */
(PID.TID 0000.0001)                 3.012281885409289E+05       /* J = 16 */
(PID.TID 0000.0001)     ;
(PID.TID 0000.0001) dyC =  /* dyC(:,1,:,1) ( units: m ) */
(PID.TID 0000.0001)                 1.114203141013064E+05,      /* I =  1 */
(PID.TID 0000.0001)                 1.549545757850771E+05,      /* I =  2 */
(PID.TID 0000.0001)                 1.829777599966776E+05,      /* I =  3 */
(PID.TID 0000.0001)      . . .
(PID.TID 0000.0001)                 1.829777599966776E+05,      /* I = 94 */
(PID.TID 0000.0001)                 1.549545757850771E+05,      /* I = 95 */
(PID.TID 0000.0001)                 1.114203141013064E+05,      /* I = 96 */
(PID.TID 0000.0001)                 3.013593857228136E+05,      /* I = 97 */
(PID.TID 0000.0001)                 3.018056440786431E+05,      /* I = 98 */
(PID.TID 0000.0001)                 3.026789946729719E+05,      /* I = 99 */
(PID.TID 0000.0001)      . . .
(PID.TID 0000.0001)                 3.026789946729719E+05,      /* I =190 */
(PID.TID 0000.0001)                 3.018056440786431E+05,      /* I =191 */
(PID.TID 0000.0001)                 3.013593857228136E+05,      /* I =192 */
(PID.TID 0000.0001)                 1.114203141013064E+05,      /* I =193 */
(PID.TID 0000.0001)                 1.549545757850771E+05,      /* I =194 */
(PID.TID 0000.0001)                 1.829777599966776E+05,      /* I =195 */
(PID.TID 0000.0001)      . . .
(PID.TID 0000.0001)                 1.829777599966776E+05,      /* I =286 */
(PID.TID 0000.0001)                 1.549545757850771E+05,      /* I =287 */
(PID.TID 0000.0001)                 1.114203141013064E+05,      /* I =288 */
(PID.TID 0000.0001)                 3.013593857228136E+05,      /* I =289 */
(PID.TID 0000.0001)                 3.018056440786431E+05,      /* I =290 */
(PID.TID 0000.0001)                 3.026789946729719E+05,      /* I =291 */
(PID.TID 0000.0001)      . . .
(PID.TID 0000.0001)                 3.026789946729719E+05,      /* I =382 */
(PID.TID 0000.0001)                 3.018056440786431E+05,      /* I =383 */
(PID.TID 0000.0001)                 3.013593857228136E+05       /* I =384 */
(PID.TID 0000.0001)     ;
(PID.TID 0000.0001) dyC =  /* dyC(1,:,1,:) ( units: m ) */
(PID.TID 0000.0001)                 1.114203141013064E+05,      /* J =  1 */
(PID.TID 0000.0001)                 1.391343389937106E+05,      /* J =  2 */
(PID.TID 0000.0001)                 1.709574999026266E+05,      /* J =  3 */
(PID.TID 0000.0001)                 1.946503699269892E+05,      /* J =  4 */
(PID.TID 0000.0001)                 2.135964483342134E+05,      /* J =  5 */
(PID.TID 0000.0001)                 2.294195678257306E+05,      /* J =  6 */
(PID.TID 0000.0001)                 2.429464709770498E+05,      /* J =  7 */
(PID.TID 0000.0001)                 2.546408290696998E+05,      /* J =  8 */
(PID.TID 0000.0001)                 2.647791839299727E+05,      /* J =  9 */
(PID.TID 0000.0001)                 2.735321911346108E+05,      /* J = 10 */
(PID.TID 0000.0001)                 2.810065951609633E+05,      /* J = 11 */
(PID.TID 0000.0001)                 2.872689479506990E+05,      /* J = 12 */
(PID.TID 0000.0001)                 2.923599955312932E+05,      /* J = 13 */
(PID.TID 0000.0001)                 2.963038832565530E+05,      /* J = 14 */
(PID.TID 0000.0001)                 2.991142470004740E+05,      /* J = 15 */
(PID.TID 0000.0001)                 3.007982711627968E+05       /* J = 16 */
(PID.TID 0000.0001)     ;
(PID.TID 0000.0001) dxV =  /* dxV(:,1,:,1) ( units: m ) */
(PID.TID 0000.0001)                 8.015229982413632E+04,      /* I =  1 */
(PID.TID 0000.0001)                 1.333130744933864E+05,      /* I =  2 */
(PID.TID 0000.0001)                 1.691744868129062E+05,      /* I =  3 */
(PID.TID 0000.0001)      . . .
(PID.TID 0000.0001)                 1.937548202849060E+05,      /* I = 94 */
(PID.TID 0000.0001)                 1.691744868129062E+05,      /* I = 95 */
(PID.TID 0000.0001)                 1.333130744933864E+05,      /* I = 96 */
(PID.TID 0000.0001)                 3.013686170436881E+05,      /* I = 97 */
(PID.TID 0000.0001)                 3.015922136961168E+05,      /* I = 98 */
(PID.TID 0000.0001)                 3.022533948177109E+05,      /* I = 99 */
(PID.TID 0000.0001)      . . .
(PID.TID 0000.0001)                 3.033238888442880E+05,      /* I =190 */
(PID.TID 0000.0001)                 3.022533948177109E+05,      /* I =191 */
(PID.TID 0000.0001)                 3.015922136961168E+05,      /* I =192 */
(PID.TID 0000.0001)                 8.015229982413632E+04,      /* I =193 */
(PID.TID 0000.0001)                 1.333130744933864E+05,      /* I =194 */
(PID.TID 0000.0001)                 1.691744868129062E+05,      /* I =195 */
(PID.TID 0000.0001)      . . .
(PID.TID 0000.0001)                 1.937548202849060E+05,      /* I =286 */
(PID.TID 0000.0001)                 1.691744868129062E+05,      /* I =287 */
(PID.TID 0000.0001)                 1.333130744933864E+05,      /* I =288 */
(PID.TID 0000.0001)                 3.013686170436881E+05,      /* I =289 */
(PID.TID 0000.0001)                 3.015922136961168E+05,      /* I =290 */
(PID.TID 0000.0001)                 3.022533948177109E+05,      /* I =291 */
(PID.TID 0000.0001)      . . .
(PID.TID 0000.0001)                 3.033238888442880E+05,      /* I =382 */
(PID.TID 0000.0001)                 3.022533948177109E+05,      /* I =383 */
(PID.TID 0000.0001)                 3.015922136961168E+05       /* I =384 */
(PID.TID 0000.0001)     ;
(PID.TID 0000.0001) dxV =  /* dxV(1,:,1,:) ( units: m ) */
(PID.TID 0000.0001)                 8.015229982413632E+04,      /* J =  1 */
(PID.TID 0000.0001)                 1.362652340208229E+05,      /* J =  2 */
(PID.TID 0000.0001)                 1.701080315742101E+05,      /* J =  3 */
(PID.TID 0000.0001)                 1.942331448101592E+05,      /* J =  4 */
(PID.TID 0000.0001)                 2.133486626971531E+05,      /* J =  5 */
(PID.TID 0000.0001)                 2.292584591272880E+05,      /* J =  6 */
(PID.TID 0000.0001)                 2.428369969078989E+05,      /* J =  7 */
(PID.TID 0000.0001)                 2.545652950875683E+05,      /* J =  8 */
(PID.TID 0000.0001)                 2.647274964828301E+05,      /* J =  9 */
(PID.TID 0000.0001)                 2.734980225206389E+05,      /* J = 10 */
(PID.TID 0000.0001)                 2.809856491525217E+05,      /* J = 11 */
(PID.TID 0000.0001)                 2.872580915202295E+05,      /* J = 12 */
(PID.TID 0000.0001)                 2.923567890694162E+05,      /* J = 13 */
(PID.TID 0000.0001)                 2.963063101754721E+05,      /* J = 14 */
(PID.TID 0000.0001)                 2.991205495886625E+05,      /* J = 15 */
(PID.TID 0000.0001)                 3.008068453676764E+05       /* J = 16 */
(PID.TID 0000.0001)     ;
(PID.TID 0000.0001) dyU =  /* dyU(:,1,:,1) ( units: m ) */
(PID.TID 0000.0001)                 8.015229982413632E+04,      /* I =  1 */
(PID.TID 0000.0001)                 1.362652340208229E+05,      /* I =  2 */
(PID.TID 0000.0001)                 1.701080315742101E+05,      /* I =  3 */
(PID.TID 0000.0001)      . . .
(PID.TID 0000.0001)                 1.942331448101592E+05,      /* I = 94 */
(PID.TID 0000.0001)                 1.701080315742101E+05,      /* I = 95 */
(PID.TID 0000.0001)                 1.362652340208229E+05,      /* I = 96 */
(PID.TID 0000.0001)                 3.013031486919771E+05,      /* I = 97 */
(PID.TID 0000.0001)                 3.015274890091515E+05,      /* I = 98 */
(PID.TID 0000.0001)                 3.021908563699420E+05,      /* I = 99 */
(PID.TID 0000.0001)      . . .
(PID.TID 0000.0001)                 3.032648502024415E+05,      /* I =190 */
(PID.TID 0000.0001)                 3.021908563699420E+05,      /* I =191 */
(PID.TID 0000.0001)                 3.015274890091515E+05,      /* I =192 */
(PID.TID 0000.0001)                 8.015229982413632E+04,      /* I =193 */
(PID.TID 0000.0001)                 1.362652340208229E+05,      /* I =194 */
(PID.TID 0000.0001)                 1.701080315742101E+05,      /* I =195 */
(PID.TID 0000.0001)      . . .
(PID.TID 0000.0001)                 1.942331448101592E+05,      /* I =286 */
(PID.TID 0000.0001)                 1.701080315742101E+05,      /* I =287 */
(PID.TID 0000.0001)                 1.362652340208229E+05,      /* I =288 */
(PID.TID 0000.0001)                 3.013031486919771E+05,      /* I =289 */
(PID.TID 0000.0001)                 3.015274890091515E+05,      /* I =290 */
(PID.TID 0000.0001)                 3.021908563699420E+05,      /* I =291 */
(PID.TID 0000.0001)      . . .
(PID.TID 0000.0001)                 3.032648502024415E+05,      /* I =382 */
(PID.TID 0000.0001)                 3.021908563699420E+05,      /* I =383 */
(PID.TID 0000.0001)                 3.015274890091515E+05       /* I =384 */
(PID.TID 0000.0001)     ;
(PID.TID 0000.0001) dyU =  /* dyU(1,:,1,:) ( units: m ) */
(PID.TID 0000.0001)                 8.015229982413632E+04,      /* J =  1 */
(PID.TID 0000.0001)                 1.333130744933864E+05,      /* J =  2 */
(PID.TID 0000.0001)                 1.691744868129062E+05,      /* J =  3 */
(PID.TID 0000.0001)                 1.937548202849060E+05,      /* J =  4 */
(PID.TID 0000.0001)                 2.130490056267208E+05,      /* J =  5 */
(PID.TID 0000.0001)                 2.290479919481738E+05,      /* J =  6 */
(PID.TID 0000.0001)                 2.426774358027003E+05,      /* J =  7 */
(PID.TID 0000.0001)                 2.544372984215561E+05,      /* J =  8 */
(PID.TID 0000.0001)                 2.646201463834826E+05,      /* J =  9 */
(PID.TID 0000.0001)                 2.734046499619031E+05,      /* J = 10 */
(PID.TID 0000.0001)                 2.809019351693761E+05,      /* J = 11 */
(PID.TID 0000.0001)                 2.871811105274442E+05,      /* J = 12 */
(PID.TID 0000.0001)                 2.922844849381675E+05,      /* J = 13 */
(PID.TID 0000.0001)                 2.962371870847826E+05,      /* J = 14 */
(PID.TID 0000.0001)                 2.990534755671296E+05,      /* J = 15 */
(PID.TID 0000.0001)                 3.007409169495504E+05       /* J = 16 */
(PID.TID 0000.0001)     ;
(PID.TID 0000.0001) rA  =  /* rA (:,1,:,1) ( units: m^2 ) */
(PID.TID 0000.0001)                 1.401900702255611E+10,      /* I =  1 */
(PID.TID 0000.0001)                 2.459906945574446E+10,      /* I =  2 */
(PID.TID 0000.0001)                 3.378518544307869E+10,      /* I =  3 */
(PID.TID 0000.0001)      . . .
(PID.TID 0000.0001)                 3.378518544304265E+10,      /* I = 94 */
(PID.TID 0000.0001)                 2.459906945574446E+10,      /* I = 95 */
(PID.TID 0000.0001)                 1.401900702259215E+10,      /* I = 96 */
(PID.TID 0000.0001)                 9.076111290422060E+10,      /* I = 97 */
(PID.TID 0000.0001)                 9.103111035233499E+10,      /* I = 98 */
(PID.TID 0000.0001)                 9.156064070993231E+10,      /* I = 99 */
(PID.TID 0000.0001)      . . .
(PID.TID 0000.0001)                 9.156064070993231E+10,      /* I =190 */
(PID.TID 0000.0001)                 9.103111035233499E+10,      /* I =191 */
(PID.TID 0000.0001)                 9.076111290418457E+10,      /* I =192 */
(PID.TID 0000.0001)                 1.401900702255611E+10,      /* I =193 */
(PID.TID 0000.0001)                 2.459906945574446E+10,      /* I =194 */
(PID.TID 0000.0001)                 3.378518544307869E+10,      /* I =195 */
(PID.TID 0000.0001)      . . .
(PID.TID 0000.0001)                 3.378518544304265E+10,      /* I =286 */
(PID.TID 0000.0001)                 2.459906945574446E+10,      /* I =287 */
(PID.TID 0000.0001)                 1.401900702259215E+10,      /* I =288 */
(PID.TID 0000.0001)                 9.076111290422060E+10,      /* I =289 */
(PID.TID 0000.0001)                 9.103111035233499E+10,      /* I =290 */
(PID.TID 0000.0001)                 9.156064070993231E+10,      /* I =291 */
(PID.TID 0000.0001)      . . .
(PID.TID 0000.0001)                 9.156064070993231E+10,      /* I =382 */
(PID.TID 0000.0001)                 9.103111035233499E+10,      /* I =383 */
(PID.TID 0000.0001)                 9.076111290418457E+10       /* I =384 */
(PID.TID 0000.0001)     ;
(PID.TID 0000.0001) rA  =  /* rA (1,:,1,:) ( units: m^2 ) */
(PID.TID 0000.0001)                 1.401900702255611E+10,      /* J =  1 */
(PID.TID 0000.0001)                 2.459906945574446E+10,      /* J =  2 */
(PID.TID 0000.0001)                 3.378518544307869E+10,      /* J =  3 */
(PID.TID 0000.0001)                 4.192037169898667E+10,      /* J =  4 */
(PID.TID 0000.0001)                 4.925938996118163E+10,      /* J =  5 */
(PID.TID 0000.0001)                 5.594154126607553E+10,      /* J =  6 */
(PID.TID 0000.0001)                 6.203683527776127E+10,      /* J =  7 */
(PID.TID 0000.0001)                 6.757541173817516E+10,      /* J =  8 */
(PID.TID 0000.0001)                 7.256353271748119E+10,      /* J =  9 */
(PID.TID 0000.0001)                 7.699293007098555E+10,      /* J = 10 */
(PID.TID 0000.0001)                 8.084683449728902E+10,      /* J = 11 */
(PID.TID 0000.0001)                 8.410423102799828E+10,      /* J = 12 */
(PID.TID 0000.0001)                 8.674306976737517E+10,      /* J = 13 */
(PID.TID 0000.0001)                 8.874277443041928E+10,      /* J = 14 */
(PID.TID 0000.0001)                 9.008620045350865E+10,      /* J = 15 */
(PID.TID 0000.0001)                 9.076111290418457E+10       /* J = 16 */
(PID.TID 0000.0001)     ;
(PID.TID 0000.0001) rAw =  /* rAw(:,1,:,1) ( units: m^2 ) */
(PID.TID 0000.0001)                 1.216690346714270E+10,      /* I =  1 */
(PID.TID 0000.0001)                 1.974052138506315E+10,      /* I =  2 */
(PID.TID 0000.0001)                 2.943712825252015E+10,      /* I =  3 */
(PID.TID 0000.0001)      . . .
(PID.TID 0000.0001)                 3.801790263325260E+10,      /* I = 94 */
(PID.TID 0000.0001)                 2.943712825251114E+10,      /* I = 95 */
(PID.TID 0000.0001)                 1.974052138509018E+10,      /* I = 96 */
(PID.TID 0000.0001)                 9.071447638299399E+10,      /* I = 97 */
(PID.TID 0000.0001)                 9.085012105610597E+10,      /* I = 98 */
(PID.TID 0000.0001)                 9.125179254955583E+10,      /* I = 99 */
(PID.TID 0000.0001)      . . .
(PID.TID 0000.0001)                 9.190392048045309E+10,      /* I =190 */
(PID.TID 0000.0001)                 9.125179254954683E+10,      /* I =191 */
(PID.TID 0000.0001)                 9.085012105606993E+10,      /* I =192 */
(PID.TID 0000.0001)                 1.216690346714270E+10,      /* I =193 */
(PID.TID 0000.0001)                 1.974052138506315E+10,      /* I =194 */
(PID.TID 0000.0001)                 2.943712825252015E+10,      /* I =195 */
(PID.TID 0000.0001)      . . .
(PID.TID 0000.0001)                 3.801790263325260E+10,      /* I =286 */
(PID.TID 0000.0001)                 2.943712825251114E+10,      /* I =287 */
(PID.TID 0000.0001)                 1.974052138509018E+10,      /* I =288 */
(PID.TID 0000.0001)                 9.071447638299399E+10,      /* I =289 */
(PID.TID 0000.0001)                 9.085012105610597E+10,      /* I =290 */
(PID.TID 0000.0001)                 9.125179254955583E+10,      /* I =291 */
(PID.TID 0000.0001)      . . .
(PID.TID 0000.0001)                 9.190392048045309E+10,      /* I =382 */
(PID.TID 0000.0001)                 9.125179254954683E+10,      /* I =383 */
(PID.TID 0000.0001)                 9.085012105606993E+10       /* I =384 */
(PID.TID 0000.0001)     ;
(PID.TID 0000.0001) rAw =  /* rAw(1,:,1,:) ( units: m^2 ) */
(PID.TID 0000.0001)                 1.216690346714270E+10,      /* J =  1 */
(PID.TID 0000.0001)                 2.390126200743558E+10,      /* J =  2 */
(PID.TID 0000.0001)                 3.341968103208270E+10,      /* J =  3 */
(PID.TID 0000.0001)                 4.168532893152940E+10,      /* J =  4 */
(PID.TID 0000.0001)                 4.909074590409593E+10,      /* J =  5 */
(PID.TID 0000.0001)                 5.581203765722643E+10,      /* J =  6 */
(PID.TID 0000.0001)                 6.193257577506788E+10,      /* J =  7 */
(PID.TID 0000.0001)                 6.748840226738273E+10,      /* J =  8 */
(PID.TID 0000.0001)                 7.248875782324815E+10,      /* J =  9 */
(PID.TID 0000.0001)                 7.692702995909871E+10,      /* J = 10 */
(PID.TID 0000.0001)                 8.078743937057304E+10,      /* J = 11 */
(PID.TID 0000.0001)                 8.404959656062837E+10,      /* J = 12 */
(PID.TID 0000.0001)                 8.669186205742538E+10,      /* J = 13 */
(PID.TID 0000.0001)                 8.869393350723613E+10,      /* J = 14 */
(PID.TID 0000.0001)                 9.003884657168852E+10,      /* J = 15 */
(PID.TID 0000.0001)                 9.071447638299399E+10       /* J = 16 */
(PID.TID 0000.0001)     ;
(PID.TID 0000.0001) rAs =  /* rAs(:,1,:,1) ( units: m^2 ) */
(PID.TID 0000.0001)                 1.216690346714270E+10,      /* I =  1 */
(PID.TID 0000.0001)                 2.390126200743558E+10,      /* I =  2 */
(PID.TID 0000.0001)                 3.341968103208270E+10,      /* I =  3 */
(PID.TID 0000.0001)      . . .
(PID.TID 0000.0001)                 3.341968103208270E+10,      /* I = 94 */
(PID.TID 0000.0001)                 2.390126200743558E+10,      /* I = 95 */
(PID.TID 0000.0001)                 1.216690346714270E+10,      /* I = 96 */
(PID.TID 0000.0001)                 9.083293515008307E+10,      /* I = 97 */
(PID.TID 0000.0001)                 9.110170898494536E+10,      /* I = 98 */
(PID.TID 0000.0001)                 9.162886297688426E+10,      /* I = 99 */
(PID.TID 0000.0001)      . . .
(PID.TID 0000.0001)                 9.162886297688426E+10,      /* I =190 */
(PID.TID 0000.0001)                 9.110170898494536E+10,      /* I =191 */
(PID.TID 0000.0001)                 9.083293515008307E+10,      /* I =192 */
(PID.TID 0000.0001)                 1.216690346714270E+10,      /* I =193 */
(PID.TID 0000.0001)                 2.390126200743558E+10,      /* I =194 */
(PID.TID 0000.0001)                 3.341968103208270E+10,      /* I =195 */
(PID.TID 0000.0001)      . . .
(PID.TID 0000.0001)                 3.341968103208270E+10,      /* I =286 */
(PID.TID 0000.0001)                 2.390126200743558E+10,      /* I =287 */
(PID.TID 0000.0001)                 1.216690346714270E+10,      /* I =288 */
(PID.TID 0000.0001)                 9.083293515008307E+10,      /* I =289 */
(PID.TID 0000.0001)                 9.110170898494536E+10,      /* I =290 */
(PID.TID 0000.0001)                 9.162886297688426E+10,      /* I =291 */
(PID.TID 0000.0001)      . . .
(PID.TID 0000.0001)                 9.162886297688426E+10,      /* I =382 */
(PID.TID 0000.0001)                 9.110170898494536E+10,      /* I =383 */
(PID.TID 0000.0001)                 9.083293515008307E+10       /* I =384 */
(PID.TID 0000.0001)     ;
(PID.TID 0000.0001) rAs =  /* rAs(1,:,1,:) ( units: m^2 ) */
(PID.TID 0000.0001)                 1.216690346714270E+10,      /* J =  1 */
(PID.TID 0000.0001)                 1.974052138506315E+10,      /* J =  2 */
(PID.TID 0000.0001)                 2.943712825252015E+10,      /* J =  3 */
(PID.TID 0000.0001)                 3.801790263324359E+10,      /* J =  4 */
(PID.TID 0000.0001)                 4.571243814189866E+10,      /* J =  5 */
(PID.TID 0000.0001)                 5.269930713599979E+10,      /* J =  6 */
(PID.TID 0000.0001)                 5.907428494299063E+10,      /* J =  7 */
(PID.TID 0000.0001)                 6.488320895111514E+10,      /* J =  8 */
(PID.TID 0000.0001)                 7.014205907741882E+10,      /* J =  9 */
(PID.TID 0000.0001)                 7.484854821847499E+10,      /* J = 10 */
(PID.TID 0000.0001)                 7.898934631431560E+10,      /* J = 11 */
(PID.TID 0000.0001)                 8.254500894894537E+10,      /* J = 12 */
(PID.TID 0000.0001)                 8.549360686473492E+10,      /* J = 13 */
(PID.TID 0000.0001)                 8.781353403175085E+10,      /* J = 14 */
(PID.TID 0000.0001)                 8.948571540392021E+10,      /* J = 15 */
(PID.TID 0000.0001)                 9.049530583086168E+10       /* J = 16 */
(PID.TID 0000.0001)     ;
(PID.TID 0000.0001) globalArea = /* Integrated horizontal Area (m^2) */
(PID.TID 0000.0001)                 3.638867375081599E+14
(PID.TID 0000.0001)     ;
(PID.TID 0000.0001) hasWetCSCorners = /* Domain contains CS corners (True/False) */
(PID.TID 0000.0001)                   T
(PID.TID 0000.0001)     ;
(PID.TID 0000.0001) // =======================================================
(PID.TID 0000.0001) // End of Model config. summary
(PID.TID 0000.0001) // =======================================================
(PID.TID 0000.0001) 
(PID.TID 0000.0001) == Packages configuration : Check & print summary ==
(PID.TID 0000.0001) 
(PID.TID 0000.0001) GMREDI_CHECK: #define GMREDI
(PID.TID 0000.0001) GM_AdvForm =     /* if FALSE => use SkewFlux Form */
(PID.TID 0000.0001)                   F
(PID.TID 0000.0001)     ;
(PID.TID 0000.0001) GM_InMomAsStress = /* if TRUE => apply as Eddy Stress */
(PID.TID 0000.0001)                   F
(PID.TID 0000.0001)     ;
(PID.TID 0000.0001) GM_AdvSeparate = /* Calc Bolus & Euler Adv. separately */
(PID.TID 0000.0001)                   F
(PID.TID 0000.0001)     ;
(PID.TID 0000.0001) GM_ExtraDiag =   /* Tensor Extra Diag (line 1&2) non 0 */
(PID.TID 0000.0001)                   F
(PID.TID 0000.0001)     ;
(PID.TID 0000.0001) GM_isopycK =    /* Background Isopyc. Diffusivity [m^2/s] */
(PID.TID 0000.0001)                 8.000000000000000E+02
(PID.TID 0000.0001)     ;
(PID.TID 0000.0001) GM_skewflx*K =  /* Background GM_SkewFlx Diffusivity [m^2/s] */
(PID.TID 0000.0001)                 8.000000000000000E+02
(PID.TID 0000.0001)     ;
(PID.TID 0000.0001) GM_advec*K =    /* Backg. GM-Advec(=Bolus) Diffusivity [m^2/s]*/
(PID.TID 0000.0001)                 0.000000000000000E+00
(PID.TID 0000.0001)     ;
(PID.TID 0000.0001) GM_Kmin_horiz = /* Minimum Horizontal Diffusivity [m^2/s] */
(PID.TID 0000.0001)                 5.000000000000000E+01
(PID.TID 0000.0001)     ;
(PID.TID 0000.0001) GM_Visbeck_alpha = /* Visbeck alpha coeff. [-] */
(PID.TID 0000.0001)                 0.000000000000000E+00
(PID.TID 0000.0001)     ;
(PID.TID 0000.0001) GM_Small_Number =  /* epsilon used in slope calc */
(PID.TID 0000.0001)                 9.999999999999999E-21
(PID.TID 0000.0001)     ;
(PID.TID 0000.0001) GM_slopeSqCutoff = /* Slope^2 cut-off value */
(PID.TID 0000.0001)                 1.000000000000000E+48
(PID.TID 0000.0001)     ;
(PID.TID 0000.0001) GM_taper_scheme =  /* Type of Tapering/Clipping scheme */
(PID.TID 0000.0001)               'gkw91                                   '
(PID.TID 0000.0001)     ;
(PID.TID 0000.0001) GM_maxSlope =  /* Maximum Slope (Tapering/Clipping) */
(PID.TID 0000.0001)                 1.000000000000000E-02
(PID.TID 0000.0001)     ;
(PID.TID 0000.0001) GM_facTrL2dz = /* Minimum Trans.Layer Thick. (factor of dz) */
(PID.TID 0000.0001)                 1.000000000000000E+00
(PID.TID 0000.0001)     ;
(PID.TID 0000.0001) GM_facTrL2ML = /* Max.Trans.Layer Thick. (factor of MxL Depth)*/
(PID.TID 0000.0001)                 5.000000000000000E+00
(PID.TID 0000.0001)     ;
(PID.TID 0000.0001) GM_maxTransLay = /* Maximum Transition Layer Thickness [m] */
(PID.TID 0000.0001)                 5.000000000000000E+02
(PID.TID 0000.0001)     ;
(PID.TID 0000.0001) GM_UseBVP = /* if TRUE => use bvp a la Ferrari et al. (2010) */
(PID.TID 0000.0001)                   F
(PID.TID 0000.0001)     ;
(PID.TID 0000.0001) GM_BVP_ModeNumber = /* Vertical mode number for BVP wave speed */
(PID.TID 0000.0001)                       1
(PID.TID 0000.0001)     ;
(PID.TID 0000.0001) GM_BVP_cMin = /* Minimum wave speed for BVP [m/s] */
(PID.TID 0000.0001)                 1.000000000000000E-01
(PID.TID 0000.0001)     ;
(PID.TID 0000.0001) GM_useSubMeso = /* if TRUE => use Sub-Meso param. (B.Fox-Kemper) */
(PID.TID 0000.0001)                   F
(PID.TID 0000.0001)     ;
(PID.TID 0000.0001) subMeso_Ceff = /* efficiency coeff. of Mixed-Layer Eddies [-] */
(PID.TID 0000.0001)                 7.000000000000001E-02
(PID.TID 0000.0001)     ;
(PID.TID 0000.0001) subMeso_invTau = /* inverse of Sub-Meso mixing time-scale [/s] */
(PID.TID 0000.0001)                 2.000000000000000E-06
(PID.TID 0000.0001)     ;
(PID.TID 0000.0001) subMeso_LfMin = /* minimum length-scale "Lf" [m] */
(PID.TID 0000.0001)                 1.000000000000000E+03
(PID.TID 0000.0001)     ;
(PID.TID 0000.0001) subMeso_Lmax = /* maximum grid-scale length [m] */
(PID.TID 0000.0001)                 1.100000000000000E+05
(PID.TID 0000.0001)     ;
(PID.TID 0000.0001) EXF_CHECK: #define ALLOW_EXF
(PID.TID 0000.0001) SEAICE_CHECK: #define ALLOW_SEAICE
(PID.TID 0000.0001) GAD_CHECK: #define ALLOW_GENERIC_ADVDIFF
(PID.TID 0000.0001) // =======================================================
(PID.TID 0000.0001) // Check Model config. (CONFIG_CHECK):
(PID.TID 0000.0001) // CONFIG_CHECK : Normal End
(PID.TID 0000.0001) // =======================================================
(PID.TID 0000.0001) 
(PID.TID 0000.0001)  MDS_READ_META: opening file: pickup.0000072000.meta
(PID.TID 0000.0001)  nRecords = 123 ; filePrec =  64 ; fileIter =     72000
(PID.TID 0000.0001)     nDims =   2 , dims:
(PID.TID 0000.0001)    1: 192   1 192
(PID.TID 0000.0001)    2:  32   1  32
(PID.TID 0000.0001)     nFlds =  11 , nFl3D =   8 , fields:
(PID.TID 0000.0001)  >Uvel    < >GuNm1   < >Vvel    < >GvNm1   < >Theta   < >GtNm1   < >Salt    < >GsNm1   < >EtaN    < >dEtaHdt < >EtaH    <
(PID.TID 0000.0001) missingVal=  1.00000000000000E+00 ; nTimRec =   0 , timeList:
(PID.TID 0000.0001) READ_MFLDS_3D_RL: read field: "Uvel    ", #   1 in fldList, rec=   1
(PID.TID 0000.0001)  MDS_READ_FIELD: opening global file: pickup.0000072000
(PID.TID 0000.0001) READ_MFLDS_3D_RL: read field: "Vvel    ", #   3 in fldList, rec=   3
(PID.TID 0000.0001)  MDS_READ_FIELD: opening global file: pickup.0000072000
(PID.TID 0000.0001) READ_MFLDS_3D_RL: read field: "Theta   ", #   5 in fldList, rec=   5
(PID.TID 0000.0001)  MDS_READ_FIELD: opening global file: pickup.0000072000
(PID.TID 0000.0001) READ_MFLDS_3D_RL: read field: "Salt    ", #   7 in fldList, rec=   7
(PID.TID 0000.0001)  MDS_READ_FIELD: opening global file: pickup.0000072000
(PID.TID 0000.0001) READ_MFLDS_3D_RL: read field: "GuNm1   ", #   2 in fldList, rec=   2
(PID.TID 0000.0001)  MDS_READ_FIELD: opening global file: pickup.0000072000
(PID.TID 0000.0001) READ_MFLDS_3D_RL: read field: "GvNm1   ", #   4 in fldList, rec=   4
(PID.TID 0000.0001)  MDS_READ_FIELD: opening global file: pickup.0000072000
(PID.TID 0000.0001) READ_MFLDS_3D_RL: read field: "GtNm1   ", #   6 in fldList, rec=   6
(PID.TID 0000.0001)  MDS_READ_FIELD: opening global file: pickup.0000072000
(PID.TID 0000.0001) READ_MFLDS_3D_RL: read field: "GsNm1   ", #   8 in fldList, rec=   8
(PID.TID 0000.0001)  MDS_READ_FIELD: opening global file: pickup.0000072000
(PID.TID 0000.0001) READ_MFLDS_3D_RL: read field: "EtaN    ", #   9 in fldList, rec= 121
(PID.TID 0000.0001)  MDS_READ_FIELD: opening global file: pickup.0000072000
(PID.TID 0000.0001) READ_MFLDS_3D_RL: read field: "dEtaHdt ", #  10 in fldList, rec= 122
(PID.TID 0000.0001)  MDS_READ_FIELD: opening global file: pickup.0000072000
(PID.TID 0000.0001) READ_MFLDS_3D_RL: read field: "EtaH    ", #  11 in fldList, rec= 123
(PID.TID 0000.0001)  MDS_READ_FIELD: opening global file: pickup.0000072000
(PID.TID 0000.0001) READ_MFLDS_CHECK: - normal end ; reset MFLDS file-name: pickup.0000072000
(PID.TID 0000.0001)  write diagnostics summary to file ioUnit:      6
Iter.Nb:     72000 ; Time(s):  6.2208000000000E+09
------------------------------------------------------------------------
2D/3D diagnostics: Number of lists:     2
------------------------------------------------------------------------
listId=    1 ; file name: surfDiag
 nFlds, nActive,       freq     &     phase        , nLev               
   12  |   12  |1555200000.000000         0.000000 |   1
 levels:   1
 diag# | name   |   ipt  |  iMate | kLev|   count |   mate.C|           
    23 |ETAN    |      1 |      0 |   1 |       0 |
    24 |ETANSQ  |      2 |      0 |   1 |       0 |
    25 |DETADT2 |      3 |      0 |   1 |       0 |
    73 |PHIBOT  |      4 |      0 |   1 |       0 |
    74 |PHIBOTSQ|      5 |      0 |   1 |       0 |
    81 |oceTAUX |      6 |      7 |   1 |       0 |       0 |
    82 |oceTAUY |      7 |      6 |   1 |       0 |       0 |
    87 |oceQnet |      8 |      0 |   1 |       0 |
    86 |oceSflux|      9 |      0 |   1 |       0 |
    85 |oceFWflx|     10 |      0 |   1 |       0 |
    90 |TRELAX  |     11 |      0 |   1 |       0 |
    91 |SRELAX  |     12 |      0 |   1 |       0 |
------------------------------------------------------------------------
listId=    2 ; file name: seaiceDiag
 nFlds, nActive,       freq     &     phase        , nLev               
    5  |    5  |1555200000.000000         0.000000 |   1
 levels:   1
 diag# | name   |   ipt  |  iMate | kLev|   count |   mate.C|           
   241 |SIheff  |     13 |      0 |   1 |      0(x 12) |
   238 |SIarea  |     25 |      0 |   1 |      0(x 12) |
   243 |SIhsnow |     37 |      0 |   1 |      0(x 12) |
   247 |SIuice  |     49 |     61 |   1 |      0(x 12) |
   248 |SIvice  |     61 |     49 |   1 |      0(x 12) |
------------------------------------------------------------------------
Global & Regional Statistics diagnostics: Number of lists:     2
------------------------------------------------------------------------
listId=   1 ; file name: dynStDiag
 nFlds, nActive,       freq     &     phase        |                    
    8  |    8  |    864000.000000         0.000000 |
 Regions:   0
 diag# | name   |   ipt  |  iMate |    Volume   |   mate-Vol. |         
    23 |ETAN    |      1 |      0 | 0.00000E+00 |
    30 |UVEL    |      2 |      0 | 0.00000E+00 |
    31 |VVEL    |     17 |      0 | 0.00000E+00 |
    32 |WVEL    |     32 |      0 | 0.00000E+00 |
    26 |THETA   |     47 |      0 | 0.00000E+00 |
    27 |SALT    |     62 |      0 | 0.00000E+00 |
    80 |CONVADJ |     77 |      0 | 0.00000E+00 |
    25 |DETADT2 |     92 |      0 | 0.00000E+00 |
------------------------------------------------------------------------
listId=   2 ; file name: seaiceStDiag
 nFlds, nActive,       freq     &     phase        |                    
    5  |    5  |    864000.000000         0.000000 |
 Regions:   0  1  3
 diag# | name   |   ipt  |  iMate |    Volume   |   mate-Vol. |         
   241 |SIheff  |     93 |      0 | 0.00000E+00 |
   238 |SIarea  |     94 |      0 | 0.00000E+00 |
   243 |SIhsnow |     95 |      0 | 0.00000E+00 |
   247 |SIuice  |     96 |      0 | 0.00000E+00 |
   248 |SIvice  |     97 |      0 | 0.00000E+00 |
------------------------------------------------------------------------
(PID.TID 0000.0001)  MDS_READ_META: opening file: pickup_seaice.0000072000.meta
(PID.TID 0000.0001)  nRecords =  15 ; filePrec =  64 ; fileIter =     72000
(PID.TID 0000.0001)     nDims =   2 , dims:
(PID.TID 0000.0001)    1: 192   1 192
(PID.TID 0000.0001)    2:  32   1  32
(PID.TID 0000.0001)     nFlds =  15 , nFl3D =   0 , fields:
(PID.TID 0000.0001)  >siTICE  < >siYNEG  < >siHSNOW < >siUICE  < >siUICE_2< >siUICE_3< >siVICE  < >siVICE_2< >siVICE_3< >siHEFF  < >siHEFF_2< >siHEFF_3< >siAREA  < >siAREA_2< >siAREA_3<
(PID.TID 0000.0001) missingVal=  1.00000000000000E+00 ; nTimRec =   0 , timeList:
(PID.TID 0000.0001) READ_MFLDS_3D_RL: field: "siTICES " missing in file: pickup_seaice.0000072000
(PID.TID 0000.0001) READ_MFLDS_LEV_RL: read field: "siTICE  ", #   1 in fldList, rec=   1
(PID.TID 0000.0001)  MDS_READ_FIELD: opening global file: pickup_seaice.0000072000
(PID.TID 0000.0001) READ_MFLDS_3D_RL: read field: "siAREA  ", #  13 in fldList, rec=  13
(PID.TID 0000.0001)  MDS_READ_FIELD: opening global file: pickup_seaice.0000072000
(PID.TID 0000.0001) READ_MFLDS_3D_RL: read field: "siHEFF  ", #  10 in fldList, rec=  10
(PID.TID 0000.0001)  MDS_READ_FIELD: opening global file: pickup_seaice.0000072000
(PID.TID 0000.0001) READ_MFLDS_3D_RL: read field: "siHSNOW ", #   3 in fldList, rec=   3
(PID.TID 0000.0001)  MDS_READ_FIELD: opening global file: pickup_seaice.0000072000
(PID.TID 0000.0001) READ_MFLDS_3D_RL: read field: "siUICE  ", #   4 in fldList, rec=   4
(PID.TID 0000.0001)  MDS_READ_FIELD: opening global file: pickup_seaice.0000072000
(PID.TID 0000.0001) READ_MFLDS_3D_RL: read field: "siVICE  ", #   7 in fldList, rec=   7
(PID.TID 0000.0001)  MDS_READ_FIELD: opening global file: pickup_seaice.0000072000
(PID.TID 0000.0001) // =======================================================
(PID.TID 0000.0001) // Model current state
(PID.TID 0000.0001) // =======================================================
(PID.TID 0000.0001) 
(PID.TID 0000.0001) // =======================================================
(PID.TID 0000.0001) // Begin MONITOR dynamic field statistics
(PID.TID 0000.0001) // =======================================================
(PID.TID 0000.0001) %MON time_tsnumber                =                 72000
(PID.TID 0000.0001) %MON time_secondsf                =   6.2208000000000E+09
(PID.TID 0000.0001) %MON dynstat_eta_max              =  -2.2041664480788E+00
(PID.TID 0000.0001) %MON dynstat_eta_min              =  -8.3368186317242E+00
(PID.TID 0000.0001) %MON dynstat_eta_mean             =  -3.2999269019401E+00
(PID.TID 0000.0001) %MON dynstat_eta_sd               =   8.8289254437965E-01
(PID.TID 0000.0001) %MON dynstat_eta_del2             =   2.4546251501318E-03
(PID.TID 0000.0001) %MON dynstat_uvel_max             =   2.1289733821794E-01
(PID.TID 0000.0001) %MON dynstat_uvel_min             =  -2.9128750750933E-01
(PID.TID 0000.0001) %MON dynstat_uvel_mean            =  -5.2860218230237E-04
(PID.TID 0000.0001) %MON dynstat_uvel_sd              =   1.4790330813737E-02
(PID.TID 0000.0001) %MON dynstat_uvel_del2            =   6.8248145743958E-05
(PID.TID 0000.0001) %MON dynstat_vvel_max             =   2.2199184704564E-01
(PID.TID 0000.0001) %MON dynstat_vvel_min             =  -2.0062292421344E-01
(PID.TID 0000.0001) %MON dynstat_vvel_mean            =  -4.0113294365963E-04
(PID.TID 0000.0001) %MON dynstat_vvel_sd              =   1.5242443278796E-02
(PID.TID 0000.0001) %MON dynstat_vvel_del2            =   6.3300374611828E-05
(PID.TID 0000.0001) %MON dynstat_wvel_max             =   1.0124735215525E-04
(PID.TID 0000.0001) %MON dynstat_wvel_min             =  -2.1390867107236E-04
(PID.TID 0000.0001) %MON dynstat_wvel_mean            =  -2.2881662065410E-09
(PID.TID 0000.0001) %MON dynstat_wvel_sd              =   5.3718089817332E-06
(PID.TID 0000.0001) %MON dynstat_wvel_del2            =   4.9515844278522E-08
(PID.TID 0000.0001) %MON dynstat_theta_max            =   3.1190145162975E+01
(PID.TID 0000.0001) %MON dynstat_theta_min            =  -6.6438195213420E+00
(PID.TID 0000.0001) %MON dynstat_theta_mean           =   3.0527437088103E+00
(PID.TID 0000.0001) %MON dynstat_theta_sd             =   4.9948592183898E+00
(PID.TID 0000.0001) %MON dynstat_theta_del2           =   2.9607189733177E-03
(PID.TID 0000.0001) %MON dynstat_salt_max             =   5.9479941764493E+01
(PID.TID 0000.0001) %MON dynstat_salt_min             =   1.7775579847672E+01
(PID.TID 0000.0001) %MON dynstat_salt_mean            =   3.4752520111249E+01
(PID.TID 0000.0001) %MON dynstat_salt_sd              =   4.8912632150922E-01
(PID.TID 0000.0001) %MON dynstat_salt_del2            =   1.3623675537366E-03
(PID.TID 0000.0001) %MON forcing_qnet_max             =   0.0000000000000E+00
(PID.TID 0000.0001) %MON forcing_qnet_min             =   0.0000000000000E+00
(PID.TID 0000.0001) %MON forcing_qnet_mean            =   0.0000000000000E+00
(PID.TID 0000.0001) %MON forcing_qnet_sd              =   0.0000000000000E+00
(PID.TID 0000.0001) %MON forcing_qnet_del2            =   0.0000000000000E+00
(PID.TID 0000.0001) %MON forcing_qsw_max              =   0.0000000000000E+00
(PID.TID 0000.0001) %MON forcing_qsw_min              =   0.0000000000000E+00
(PID.TID 0000.0001) %MON forcing_qsw_mean             =   0.0000000000000E+00
(PID.TID 0000.0001) %MON forcing_qsw_sd               =   0.0000000000000E+00
(PID.TID 0000.0001) %MON forcing_qsw_del2             =   0.0000000000000E+00
(PID.TID 0000.0001) %MON forcing_empmr_max            =   0.0000000000000E+00
(PID.TID 0000.0001) %MON forcing_empmr_min            =   0.0000000000000E+00
(PID.TID 0000.0001) %MON forcing_empmr_mean           =   0.0000000000000E+00
(PID.TID 0000.0001) %MON forcing_empmr_sd             =   0.0000000000000E+00
(PID.TID 0000.0001) %MON forcing_empmr_del2           =   0.0000000000000E+00
(PID.TID 0000.0001) %MON forcing_fu_max               =   0.0000000000000E+00
(PID.TID 0000.0001) %MON forcing_fu_min               =   0.0000000000000E+00
(PID.TID 0000.0001) %MON forcing_fu_mean              =   0.0000000000000E+00
(PID.TID 0000.0001) %MON forcing_fu_sd                =   0.0000000000000E+00
(PID.TID 0000.0001) %MON forcing_fu_del2              =   0.0000000000000E+00
(PID.TID 0000.0001) %MON forcing_fv_max               =   0.0000000000000E+00
(PID.TID 0000.0001) %MON forcing_fv_min               =   0.0000000000000E+00
(PID.TID 0000.0001) %MON forcing_fv_mean              =   0.0000000000000E+00
(PID.TID 0000.0001) %MON forcing_fv_sd                =   0.0000000000000E+00
(PID.TID 0000.0001) %MON forcing_fv_del2              =   0.0000000000000E+00
(PID.TID 0000.0001) %MON trAdv_CFL_u_max              =   0.0000000000000E+00
(PID.TID 0000.0001) %MON trAdv_CFL_v_max              =   0.0000000000000E+00
(PID.TID 0000.0001) %MON trAdv_CFL_w_max              =   0.0000000000000E+00
(PID.TID 0000.0001) %MON advcfl_uvel_max              =   8.3923803824552E-02
(PID.TID 0000.0001) %MON advcfl_vvel_max              =   8.3304632405312E-02
(PID.TID 0000.0001) %MON advcfl_wvel_max              =   6.9742298794914E-02
(PID.TID 0000.0001) %MON advcfl_W_hf_max              =   7.7160082019468E-02
(PID.TID 0000.0001) %MON pe_b_mean                    =   1.5559232407148E-02
(PID.TID 0000.0001) %MON ke_max                       =   4.1915507392132E-02
(PID.TID 0000.0001) %MON ke_mean                      =   2.0848176851410E-04
(PID.TID 0000.0001) %MON ke_vol                       =   1.3386015893205E+18
(PID.TID 0000.0001) %MON vort_r_min                   =  -1.2262915518822E-06
(PID.TID 0000.0001) %MON vort_r_max                   =   1.3011966935743E-06
(PID.TID 0000.0001) %MON vort_a_mean                  =  -2.0549865324846E-05
(PID.TID 0000.0001) %MON vort_a_sd                    =   7.5259723723248E-05
(PID.TID 0000.0001) %MON vort_p_mean                  =  -2.4806340990730E-05
(PID.TID 0000.0001) %MON vort_p_sd                    =   1.2827605093522E-04
(PID.TID 0000.0001) %MON surfExpan_theta_mean         =   4.0484606368574E-08
(PID.TID 0000.0001) %MON surfExpan_salt_mean          =   2.1717823146781E-08
(PID.TID 0000.0001) // =======================================================
(PID.TID 0000.0001) // End MONITOR dynamic field statistics
(PID.TID 0000.0001) // =======================================================
(PID.TID 0000.0001) // =======================================================
(PID.TID 0000.0001) // Begin MONITOR SEAICE statistics
(PID.TID 0000.0001) // =======================================================
(PID.TID 0000.0001) %MON seaice_tsnumber              =                 72000
(PID.TID 0000.0001) %MON seaice_time_sec              =   6.2208000000000E+09
(PID.TID 0000.0001) %MON seaice_uice_max              =   4.0000000000000E-01
(PID.TID 0000.0001) %MON seaice_uice_min              =  -4.0000000000000E-01
(PID.TID 0000.0001) %MON seaice_uice_mean             =  -1.4584960473672E-02
(PID.TID 0000.0001) %MON seaice_uice_sd               =   1.4252324186947E-01
(PID.TID 0000.0001) %MON seaice_uice_del2             =   7.2720843677207E-04
(PID.TID 0000.0001) %MON seaice_vice_max              =   3.7441285697502E-01
(PID.TID 0000.0001) %MON seaice_vice_min              =  -4.0000000000000E-01
(PID.TID 0000.0001) %MON seaice_vice_mean             =  -3.7542841261047E-02
(PID.TID 0000.0001) %MON seaice_vice_sd               =   1.5635165386930E-01
(PID.TID 0000.0001) %MON seaice_vice_del2             =   7.0861834440520E-04
(PID.TID 0000.0001) %MON seaice_area_max              =   1.0000000000000E+00
(PID.TID 0000.0001) %MON seaice_area_min              =   0.0000000000000E+00
(PID.TID 0000.0001) %MON seaice_area_mean             =   4.7593115319309E-02
(PID.TID 0000.0001) %MON seaice_area_sd               =   1.9132919249415E-01
(PID.TID 0000.0001) %MON seaice_area_del2             =   1.7116012833979E-03
(PID.TID 0000.0001) %MON seaice_heff_max              =   5.2000132254738E+00
(PID.TID 0000.0001) %MON seaice_heff_min              =   0.0000000000000E+00
(PID.TID 0000.0001) %MON seaice_heff_mean             =   8.4334854083991E-02
(PID.TID 0000.0001) %MON seaice_heff_sd               =   3.9995427486652E-01
(PID.TID 0000.0001) %MON seaice_heff_del2             =   2.4797179641400E-03
(PID.TID 0000.0001) %MON seaice_hsnow_max             =   0.0000000000000E+00
(PID.TID 0000.0001) %MON seaice_hsnow_min             =   0.0000000000000E+00
(PID.TID 0000.0001) %MON seaice_hsnow_mean            =   0.0000000000000E+00
(PID.TID 0000.0001) %MON seaice_hsnow_sd              =   0.0000000000000E+00
(PID.TID 0000.0001) %MON seaice_hsnow_del2            =   0.0000000000000E+00
(PID.TID 0000.0001) // =======================================================
(PID.TID 0000.0001) // End MONITOR SEAICE statistics
(PID.TID 0000.0001) // =======================================================
(PID.TID 0000.0001)  MDS_READ_FIELD: opening global file: lev_surfT_cs_12m.bin
(PID.TID 0000.0001)  MDS_READ_FIELD: opening global file: lev_surfT_cs_12m.bin
(PID.TID 0000.0001)  MDS_READ_FIELD: opening global file: lev_surfS_cs_12m.bin
(PID.TID 0000.0001)  MDS_READ_FIELD: opening global file: lev_surfS_cs_12m.bin
(PID.TID 0000.0001)  MDS_READ_FIELD: opening global file: trenberth_taux.bin
(PID.TID 0000.0001)  MDS_READ_FIELD: opening global file: trenberth_taux.bin
(PID.TID 0000.0001)  MDS_READ_FIELD: opening global file: trenberth_tauy.bin
(PID.TID 0000.0001)  MDS_READ_FIELD: opening global file: trenberth_tauy.bin
(PID.TID 0000.0001)  MDS_READ_FIELD: opening global file: core_wndSpd_cs32.bin
(PID.TID 0000.0001)  MDS_READ_FIELD: opening global file: core_wndSpd_cs32.bin
(PID.TID 0000.0001)  MDS_READ_FIELD: opening global file: core_t_Air_cs32.bin
(PID.TID 0000.0001)  MDS_READ_FIELD: opening global file: core_t_Air_cs32.bin
(PID.TID 0000.0001)  MDS_READ_FIELD: opening global file: core_q_air_cs32.bin
(PID.TID 0000.0001)  MDS_READ_FIELD: opening global file: core_q_air_cs32.bin
(PID.TID 0000.0001)  MDS_READ_FIELD: opening global file: core_prec_1_cs32.bin
(PID.TID 0000.0001)  MDS_READ_FIELD: opening global file: core_prec_1_cs32.bin
(PID.TID 0000.0001)  MDS_READ_FIELD: opening global file: core_dwnSw_cs32.bin
(PID.TID 0000.0001)  MDS_READ_FIELD: opening global file: core_dwnSw_cs32.bin
(PID.TID 0000.0001)  MDS_READ_FIELD: opening global file: core_dwnLw_cs32.bin
(PID.TID 0000.0001)  MDS_READ_FIELD: opening global file: core_dwnLw_cs32.bin
(PID.TID 0000.0001)  MDS_READ_FIELD: opening global file: core_rnof_1_cs32.bin
(PID.TID 0000.0001)  MDS_READ_FIELD: opening global file: core_rnof_1_cs32.bin
(PID.TID 0000.0001)  MDS_READ_FIELD: opening global file: runoff_temperature.bin
(PID.TID 0000.0001)  MDS_READ_FIELD: opening global file: runoff_temperature.bin
 EXTERNAL_FIELDS_LOAD,     72000 : iP,iLd,i0,i1=   12    0   12    1 ; Wght=  0.5000000000  0.5000000000
 EXTERNAL_FIELDS_LOAD, it=     72000 : Reading new data, i0,i1=   12    1 (prev=   12    0 )
 SEAICE_LSR: Residual Initial ipass,Uice,Vice=    1  5.66514417E-03  1.11277154E-02
 SEAICE_LSR (ipass=   1) iters,dU,Resid=   174  7.00387665E-13  8.36581645E-13
 SEAICE_LSR (ipass=   1) iters,dV,Resid=   174  9.20069576E-13  1.04933507E-12
 SEAICE_LSR: Residual Initial ipass,Uice,Vice=    2  1.28927481E-03  1.51148421E-03
 SEAICE_LSR (ipass=   2) iters,dU,Resid=   168  2.55941969E-13  3.15290334E-13
 SEAICE_LSR (ipass=   2) iters,dV,Resid=   168  8.99225139E-13  1.05474545E-12
(PID.TID 0000.0001) SOLVE_FOR_PRESSURE: putPmEinXvector =    F
(PID.TID 0000.0001) SOLVE_FOR_PRESSURE: zeroPsNH=    F , zeroMeanPnh=    F
(PID.TID 0000.0001) SOLVE_FOR_PRESSURE: oldFreeSurfTerm =    F
 cg2d: Sum(rhs),rhsMax =   2.21356015026852E+03  2.01051971452694E+01
(PID.TID 0000.0001)      cg2d_init_res =   4.41901043681766E+01
(PID.TID 0000.0001)      cg2d_iters(min,last) =      -1      85
(PID.TID 0000.0001)      cg2d_last_res =   4.82342576700109E-07
(PID.TID 0000.0001) // =======================================================
(PID.TID 0000.0001) // Begin MONITOR dynamic field statistics
(PID.TID 0000.0001) // =======================================================
(PID.TID 0000.0001) %MON time_tsnumber                =                 72001
(PID.TID 0000.0001) %MON time_secondsf                =   6.2208864000000E+09
(PID.TID 0000.0001) %MON dynstat_eta_max              =  -2.2055616571800E+00
(PID.TID 0000.0001) %MON dynstat_eta_min              =  -8.3440830100443E+00
(PID.TID 0000.0001) %MON dynstat_eta_mean             =  -3.2923232630977E+00
(PID.TID 0000.0001) %MON dynstat_eta_sd               =   8.6174113429818E-01
(PID.TID 0000.0001) %MON dynstat_eta_del2             =   2.2152912651436E-03
(PID.TID 0000.0001) %MON dynstat_uvel_max             =   2.1325718396241E-01
(PID.TID 0000.0001) %MON dynstat_uvel_min             =  -2.9097460946132E-01
(PID.TID 0000.0001) %MON dynstat_uvel_mean            =  -5.2709121634088E-04
(PID.TID 0000.0001) %MON dynstat_uvel_sd              =   1.4787383317493E-02
(PID.TID 0000.0001) %MON dynstat_uvel_del2            =   6.8212385188545E-05
(PID.TID 0000.0001) %MON dynstat_vvel_max             =   2.2155320186089E-01
(PID.TID 0000.0001) %MON dynstat_vvel_min             =  -2.0069995296407E-01
(PID.TID 0000.0001) %MON dynstat_vvel_mean            =  -4.0117634589276E-04
(PID.TID 0000.0001) %MON dynstat_vvel_sd              =   1.5244004554505E-02
(PID.TID 0000.0001) %MON dynstat_vvel_del2            =   6.3237966050419E-05
(PID.TID 0000.0001) %MON dynstat_wvel_max             =   1.0160960193105E-04
(PID.TID 0000.0001) %MON dynstat_wvel_min             =  -2.1374261323268E-04
(PID.TID 0000.0001) %MON dynstat_wvel_mean            =  -4.6843275824826E-08
(PID.TID 0000.0001) %MON dynstat_wvel_sd              =   5.3775724944210E-06
(PID.TID 0000.0001) %MON dynstat_wvel_del2            =   4.9712890167725E-08
(PID.TID 0000.0001) %MON dynstat_theta_max            =   3.1202721757710E+01
(PID.TID 0000.0001) %MON dynstat_theta_min            =  -6.6456143370710E+00
(PID.TID 0000.0001) %MON dynstat_theta_mean           =   3.0526471759112E+00
(PID.TID 0000.0001) %MON dynstat_theta_sd             =   4.9950629594023E+00
(PID.TID 0000.0001) %MON dynstat_theta_del2           =   2.9843255418152E-03
(PID.TID 0000.0001) %MON dynstat_salt_max             =   5.9451627571119E+01
(PID.TID 0000.0001) %MON dynstat_salt_min             =   1.7775652958476E+01
(PID.TID 0000.0001) %MON dynstat_salt_mean            =   3.4752455663403E+01
(PID.TID 0000.0001) %MON dynstat_salt_sd              =   4.8923958925126E-01
(PID.TID 0000.0001) %MON dynstat_salt_del2            =   1.3645844094682E-03
(PID.TID 0000.0001) %MON forcing_qnet_max             =   2.2259416599663E+03
(PID.TID 0000.0001) %MON forcing_qnet_min             =  -2.5238638687579E+02
(PID.TID 0000.0001) %MON forcing_qnet_mean            =   1.6840213309277E+01
(PID.TID 0000.0001) %MON forcing_qnet_sd              =   2.2483120833797E+02
(PID.TID 0000.0001) %MON forcing_qnet_del2            =   4.8736406328510E+00
(PID.TID 0000.0001) %MON forcing_qsw_max              =   0.0000000000000E+00
(PID.TID 0000.0001) %MON forcing_qsw_min              =  -3.0191527312954E+02
(PID.TID 0000.0001) %MON forcing_qsw_mean             =  -1.8246212032284E+02
(PID.TID 0000.0001) %MON forcing_qsw_sd               =   7.9825938131609E+01
(PID.TID 0000.0001) %MON forcing_qsw_del2             =   3.2422263961539E-01
(PID.TID 0000.0001) %MON forcing_empmr_max            =   1.3835768878391E-03
(PID.TID 0000.0001) %MON forcing_empmr_min            =  -7.1385715879947E-03
(PID.TID 0000.0001) %MON forcing_empmr_mean           =  -9.1085256966442E-05
(PID.TID 0000.0001) %MON forcing_empmr_sd             =   6.1026201313079E-04
(PID.TID 0000.0001) %MON forcing_empmr_del2           =   1.4492457185570E-05
(PID.TID 0000.0001) %MON forcing_fu_max               =   2.4760613571392E-01
(PID.TID 0000.0001) %MON forcing_fu_min               =  -2.9720560598537E-01
(PID.TID 0000.0001) %MON forcing_fu_mean              =  -4.8574978218271E-03
(PID.TID 0000.0001) %MON forcing_fu_sd                =   6.5601387821238E-02
(PID.TID 0000.0001) %MON forcing_fu_del2              =   2.5143779855385E-04
(PID.TID 0000.0001) %MON forcing_fv_max               =   2.5281098043587E-01
(PID.TID 0000.0001) %MON forcing_fv_min               =  -3.2691992401999E-01
(PID.TID 0000.0001) %MON forcing_fv_mean              =  -1.3320994604609E-02
(PID.TID 0000.0001) %MON forcing_fv_sd                =   7.6108970300600E-02
(PID.TID 0000.0001) %MON forcing_fv_del2              =   2.5880656818740E-04
(PID.TID 0000.0001) %MON trAdv_CFL_u_max              =   8.2063145641641E-02
(PID.TID 0000.0001) %MON trAdv_CFL_v_max              =   8.8689532485236E-02
(PID.TID 0000.0001) %MON trAdv_CFL_w_max              =   7.7100181944525E-02
(PID.TID 0000.0001) %MON advcfl_uvel_max              =   8.4053609495178E-02
(PID.TID 0000.0001) %MON advcfl_vvel_max              =   8.3468280381782E-02
(PID.TID 0000.0001) %MON advcfl_wvel_max              =   6.9688157672842E-02
(PID.TID 0000.0001) %MON advcfl_W_hf_max              =   7.7100181944525E-02
(PID.TID 0000.0001) %MON pe_b_mean                    =   1.4389148343110E-02
(PID.TID 0000.0001) %MON ke_max                       =   4.1802973811029E-02
(PID.TID 0000.0001) %MON ke_mean                      =   2.0846307564944E-04
(PID.TID 0000.0001) %MON ke_vol                       =   1.3386016457284E+18
(PID.TID 0000.0001) %MON vort_r_min                   =  -1.2305661956722E-06
(PID.TID 0000.0001) %MON vort_r_max                   =   1.2981589512570E-06
(PID.TID 0000.0001) %MON vort_a_mean                  =  -2.0549865324846E-05
(PID.TID 0000.0001) %MON vort_a_sd                    =   7.5259723537864E-05
(PID.TID 0000.0001) %MON vort_p_mean                  =  -2.4806339598239E-05
(PID.TID 0000.0001) %MON vort_p_sd                    =   1.2827603869593E-04
(PID.TID 0000.0001) %MON surfExpan_theta_mean         =   7.1510333226357E-08
(PID.TID 0000.0001) %MON surfExpan_salt_mean          =   1.1013244184574E-07
(PID.TID 0000.0001) // =======================================================
(PID.TID 0000.0001) // End MONITOR dynamic field statistics
(PID.TID 0000.0001) // =======================================================
(PID.TID 0000.0001) // =======================================================
(PID.TID 0000.0001) // Begin MONITOR SEAICE statistics
(PID.TID 0000.0001) // =======================================================
(PID.TID 0000.0001) %MON seaice_tsnumber              =                 72001
(PID.TID 0000.0001) %MON seaice_time_sec              =   6.2208864000000E+09
(PID.TID 0000.0001) %MON seaice_uice_max              =   4.0000000000000E-01
(PID.TID 0000.0001) %MON seaice_uice_min              =  -4.0000000000000E-01
(PID.TID 0000.0001) %MON seaice_uice_mean             =  -1.4633679414134E-02
(PID.TID 0000.0001) %MON seaice_uice_sd               =   1.4253640277059E-01
(PID.TID 0000.0001) %MON seaice_uice_del2             =   7.2749769283193E-04
(PID.TID 0000.0001) %MON seaice_vice_max              =   3.7307811529203E-01
(PID.TID 0000.0001) %MON seaice_vice_min              =  -4.0000000000000E-01
(PID.TID 0000.0001) %MON seaice_vice_mean             =  -3.7479163129283E-02
(PID.TID 0000.0001) %MON seaice_vice_sd               =   1.5647874459966E-01
(PID.TID 0000.0001) %MON seaice_vice_del2             =   7.0866608858753E-04
(PID.TID 0000.0001) %MON seaice_area_max              =   1.0000000000000E+00
(PID.TID 0000.0001) %MON seaice_area_min              =   0.0000000000000E+00
(PID.TID 0000.0001) %MON seaice_area_mean             =   4.0369886421575E-02
(PID.TID 0000.0001) %MON seaice_area_sd               =   1.8506609677097E-01
(PID.TID 0000.0001) %MON seaice_area_del2             =   1.6757095190933E-03
(PID.TID 0000.0001) %MON seaice_heff_max              =   5.1899653233692E+00
(PID.TID 0000.0001) %MON seaice_heff_min              =   0.0000000000000E+00
(PID.TID 0000.0001) %MON seaice_heff_mean             =   7.5626806461904E-02
(PID.TID 0000.0001) %MON seaice_heff_sd               =   3.9160462598238E-01
(PID.TID 0000.0001) %MON seaice_heff_del2             =   2.2756938972428E-03
(PID.TID 0000.0001) %MON seaice_hsnow_max             =   5.0420511330331E-03
(PID.TID 0000.0001) %MON seaice_hsnow_min             =   0.0000000000000E+00
(PID.TID 0000.0001) %MON seaice_hsnow_mean            =   8.3863140893969E-05
(PID.TID 0000.0001) %MON seaice_hsnow_sd              =   4.7130064056966E-04
(PID.TID 0000.0001) %MON seaice_hsnow_del2            =   5.4497688177845E-06
(PID.TID 0000.0001) // =======================================================
(PID.TID 0000.0001) // End MONITOR SEAICE statistics
(PID.TID 0000.0001) // =======================================================
 EXTERNAL_FIELDS_LOAD,     72001 : iP,iLd,i0,i1=   12    1   12    1 ; Wght=  0.4666666667  0.5333333333
 SEAICE_LSR: Residual Initial ipass,Uice,Vice=    1  6.21233286E-03  1.19036832E-02
 SEAICE_LSR (ipass=   1) iters,dU,Resid=   200  1.00508143E-13  1.23633205E-13
 SEAICE_LSR (ipass=   1) iters,dV,Resid=   200  9.29895050E-13  1.08707246E-12
 SEAICE_LSR: Residual Initial ipass,Uice,Vice=    2  1.98936320E-03  2.95627648E-03
 SEAICE_LSR (ipass=   2) iters,dU,Resid=   194  3.46208305E-13  4.33752523E-13
 SEAICE_LSR (ipass=   2) iters,dV,Resid=   194  8.89871510E-13  1.05982017E-12
 cg2d: Sum(rhs),rhsMax =   2.21377856684586E+03  2.01934337970092E+01
(PID.TID 0000.0001)      cg2d_init_res =   3.79882051764332E+00
(PID.TID 0000.0001)      cg2d_iters(min,last) =      -1      72
(PID.TID 0000.0001)      cg2d_last_res =   4.93758813114988E-07
(PID.TID 0000.0001) // =======================================================
(PID.TID 0000.0001) // Begin MONITOR dynamic field statistics
(PID.TID 0000.0001) // =======================================================
(PID.TID 0000.0001) %MON time_tsnumber                =                 72002
(PID.TID 0000.0001) %MON time_secondsf                =   6.2209728000000E+09
(PID.TID 0000.0001) %MON dynstat_eta_max              =  -2.2070280559235E+00
(PID.TID 0000.0001) %MON dynstat_eta_min              =  -8.3725259183559E+00
(PID.TID 0000.0001) %MON dynstat_eta_mean             =  -3.2926481234718E+00
(PID.TID 0000.0001) %MON dynstat_eta_sd               =   8.6114375048663E-01
(PID.TID 0000.0001) %MON dynstat_eta_del2             =   2.1973636940901E-03
(PID.TID 0000.0001) %MON dynstat_uvel_max             =   2.1355616867934E-01
(PID.TID 0000.0001) %MON dynstat_uvel_min             =  -2.9064439755903E-01
(PID.TID 0000.0001) %MON dynstat_uvel_mean            =  -5.2561965554512E-04
(PID.TID 0000.0001) %MON dynstat_uvel_sd              =   1.4784048200709E-02
(PID.TID 0000.0001) %MON dynstat_uvel_del2            =   6.8167246176809E-05
(PID.TID 0000.0001) %MON dynstat_vvel_max             =   2.2106168055069E-01
(PID.TID 0000.0001) %MON dynstat_vvel_min             =  -2.0077070449606E-01
(PID.TID 0000.0001) %MON dynstat_vvel_mean            =  -4.0133524241136E-04
(PID.TID 0000.0001) %MON dynstat_vvel_sd              =   1.5245699642269E-02
(PID.TID 0000.0001) %MON dynstat_vvel_del2            =   6.3177577947560E-05
(PID.TID 0000.0001) %MON dynstat_wvel_max             =   1.0200907139378E-04
(PID.TID 0000.0001) %MON dynstat_wvel_min             =  -2.1349759600471E-04
(PID.TID 0000.0001) %MON dynstat_wvel_mean            =  -1.9703429109507E-10
(PID.TID 0000.0001) %MON dynstat_wvel_sd              =   5.3649242964918E-06
(PID.TID 0000.0001) %MON dynstat_wvel_del2            =   4.9479586028869E-08
(PID.TID 0000.0001) %MON dynstat_theta_max            =   3.1214672908683E+01
(PID.TID 0000.0001) %MON dynstat_theta_min            =  -6.6475725483993E+00
(PID.TID 0000.0001) %MON dynstat_theta_mean           =   3.0527296272392E+00
(PID.TID 0000.0001) %MON dynstat_theta_sd             =   4.9951097909509E+00
(PID.TID 0000.0001) %MON dynstat_theta_del2           =   2.9849804198691E-03
(PID.TID 0000.0001) %MON dynstat_salt_max             =   5.9483856644472E+01
(PID.TID 0000.0001) %MON dynstat_salt_min             =   1.7775714386263E+01
(PID.TID 0000.0001) %MON dynstat_salt_mean            =   3.4752459478713E+01
(PID.TID 0000.0001) %MON dynstat_salt_sd              =   4.8922669203400E-01
(PID.TID 0000.0001) %MON dynstat_salt_del2            =   1.3648993223095E-03
(PID.TID 0000.0001) %MON forcing_qnet_max             =   6.4674194252373E+02
(PID.TID 0000.0001) %MON forcing_qnet_min             =  -2.5243975738438E+02
(PID.TID 0000.0001) %MON forcing_qnet_mean            =  -1.6145596992830E+01
(PID.TID 0000.0001) %MON forcing_qnet_sd              =   1.2590332569063E+02
(PID.TID 0000.0001) %MON forcing_qnet_del2            =   9.2538929504543E-01
(PID.TID 0000.0001) %MON forcing_qsw_max              =   0.0000000000000E+00
(PID.TID 0000.0001) %MON forcing_qsw_min              =  -3.0190327619373E+02
(PID.TID 0000.0001) %MON forcing_qsw_mean             =  -1.8425818089278E+02
(PID.TID 0000.0001) %MON forcing_qsw_sd               =   7.9727240686441E+01
(PID.TID 0000.0001) %MON forcing_qsw_del2             =   3.0823138970435E-01
(PID.TID 0000.0001) %MON forcing_empmr_max            =   1.0839406007940E-03
(PID.TID 0000.0001) %MON forcing_empmr_min            =  -9.1001196135010E-04
(PID.TID 0000.0001) %MON forcing_empmr_mean           =   3.8915565653386E-06
(PID.TID 0000.0001) %MON forcing_empmr_sd             =   6.8323235214301E-05
(PID.TID 0000.0001) %MON forcing_empmr_del2           =   1.6405452699621E-06
(PID.TID 0000.0001) %MON forcing_fu_max               =   2.4755808644372E-01
(PID.TID 0000.0001) %MON forcing_fu_min               =  -2.8004049834624E-01
(PID.TID 0000.0001) %MON forcing_fu_mean              =  -4.7986234952745E-03
(PID.TID 0000.0001) %MON forcing_fu_sd                =   6.5264192031163E-02
(PID.TID 0000.0001) %MON forcing_fu_del2              =   2.4238142792089E-04
(PID.TID 0000.0001) %MON forcing_fv_max               =   2.5549422200851E-01
(PID.TID 0000.0001) %MON forcing_fv_min               =  -3.2770782795392E-01
(PID.TID 0000.0001) %MON forcing_fv_mean              =  -1.3291929688127E-02
(PID.TID 0000.0001) %MON forcing_fv_sd                =   7.6008076346366E-02
(PID.TID 0000.0001) %MON forcing_fv_del2              =   2.5623698272488E-04
(PID.TID 0000.0001) %MON trAdv_CFL_u_max              =   8.1970017653752E-02
(PID.TID 0000.0001) %MON trAdv_CFL_v_max              =   8.8847296958291E-02
(PID.TID 0000.0001) %MON trAdv_CFL_w_max              =   7.7012074753455E-02
(PID.TID 0000.0001) %MON advcfl_uvel_max              =   8.4187913482573E-02
(PID.TID 0000.0001) %MON advcfl_vvel_max              =   8.3616836256306E-02
(PID.TID 0000.0001) %MON advcfl_wvel_max              =   6.9608272810592E-02
(PID.TID 0000.0001) %MON advcfl_W_hf_max              =   7.7012074753455E-02
(PID.TID 0000.0001) %MON pe_b_mean                    =   1.4386301682468E-02
(PID.TID 0000.0001) %MON ke_max                       =   4.1686532940723E-02
(PID.TID 0000.0001) %MON ke_mean                      =   2.0844109490865E-04
(PID.TID 0000.0001) %MON ke_vol                       =   1.3386044125917E+18
(PID.TID 0000.0001) %MON vort_r_min                   =  -1.2351674771131E-06
(PID.TID 0000.0001) %MON vort_r_max                   =   1.2951747148250E-06
(PID.TID 0000.0001) %MON vort_a_mean                  =  -2.0549865324846E-05
(PID.TID 0000.0001) %MON vort_a_sd                    =   7.5259723461007E-05
(PID.TID 0000.0001) %MON vort_p_mean                  =  -2.4806287137239E-05
(PID.TID 0000.0001) %MON vort_p_sd                    =   1.2827534299055E-04
(PID.TID 0000.0001) %MON surfExpan_theta_mean         =   2.1428073789537E-08
(PID.TID 0000.0001) %MON surfExpan_salt_mean          =   1.4522606280245E-08
(PID.TID 0000.0001) // =======================================================
(PID.TID 0000.0001) // End MONITOR dynamic field statistics
(PID.TID 0000.0001) // =======================================================
(PID.TID 0000.0001) // =======================================================
(PID.TID 0000.0001) // Begin MONITOR SEAICE statistics
(PID.TID 0000.0001) // =======================================================
(PID.TID 0000.0001) %MON seaice_tsnumber              =                 72002
(PID.TID 0000.0001) %MON seaice_time_sec              =   6.2209728000000E+09
(PID.TID 0000.0001) %MON seaice_uice_max              =   4.0000000000000E-01
(PID.TID 0000.0001) %MON seaice_uice_min              =  -4.0000000000000E-01
(PID.TID 0000.0001) %MON seaice_uice_mean             =  -1.4587542855301E-02
(PID.TID 0000.0001) %MON seaice_uice_sd               =   1.4245158421021E-01
(PID.TID 0000.0001) %MON seaice_uice_del2             =   7.2635824875103E-04
(PID.TID 0000.0001) %MON seaice_vice_max              =   3.6855683639274E-01
(PID.TID 0000.0001) %MON seaice_vice_min              =  -4.0000000000000E-01
(PID.TID 0000.0001) %MON seaice_vice_mean             =  -3.7499260418683E-02
(PID.TID 0000.0001) %MON seaice_vice_sd               =   1.5666395794793E-01
(PID.TID 0000.0001) %MON seaice_vice_del2             =   7.0825337614430E-04
(PID.TID 0000.0001) %MON seaice_area_max              =   1.0000000000000E+00
(PID.TID 0000.0001) %MON seaice_area_min              =   0.0000000000000E+00
(PID.TID 0000.0001) %MON seaice_area_mean             =   4.0674149011316E-02
(PID.TID 0000.0001) %MON seaice_area_sd               =   1.8707510290079E-01
(PID.TID 0000.0001) %MON seaice_area_del2             =   1.6554440675045E-03
(PID.TID 0000.0001) %MON seaice_heff_max              =   5.1976161279927E+00
(PID.TID 0000.0001) %MON seaice_heff_min              =   0.0000000000000E+00
(PID.TID 0000.0001) %MON seaice_heff_mean             =   7.5936840989453E-02
(PID.TID 0000.0001) %MON seaice_heff_sd               =   3.9344876093564E-01
(PID.TID 0000.0001) %MON seaice_heff_del2             =   2.2493789716197E-03
(PID.TID 0000.0001) %MON seaice_hsnow_max             =   9.7750765804492E-03
(PID.TID 0000.0001) %MON seaice_hsnow_min             =  -1.3552527156069E-20
(PID.TID 0000.0001) %MON seaice_hsnow_mean            =   1.6556000533813E-04
(PID.TID 0000.0001) %MON seaice_hsnow_sd              =   9.3259982040575E-04
(PID.TID 0000.0001) %MON seaice_hsnow_del2            =   1.0890485237507E-05
(PID.TID 0000.0001) // =======================================================
(PID.TID 0000.0001) // End MONITOR SEAICE statistics
(PID.TID 0000.0001) // =======================================================
 EXTERNAL_FIELDS_LOAD,     72002 : iP,iLd,i0,i1=   12    1   12    1 ; Wght=  0.4333333333  0.5666666667
 SEAICE_LSR: Residual Initial ipass,Uice,Vice=    1  5.81801716E-03  1.15514575E-02
 SEAICE_LSR (ipass=   1) iters,dU,Resid=   198  8.33935351E-13  1.11344253E-12
 SEAICE_LSR (ipass=   1) iters,dV,Resid=   198  2.72754042E-13  3.47604601E-13
 SEAICE_LSR: Residual Initial ipass,Uice,Vice=    2  1.68859256E-03  2.01238146E-03
 SEAICE_LSR (ipass=   2) iters,dU,Resid=   186  7.08821023E-13  9.96585136E-13
 SEAICE_LSR (ipass=   2) iters,dV,Resid=   186  9.31671407E-13  1.24698037E-12
 cg2d: Sum(rhs),rhsMax =   2.21391799724237E+03  2.01701160830429E+01
(PID.TID 0000.0001)      cg2d_init_res =   4.67934769098705E+00
(PID.TID 0000.0001)      cg2d_iters(min,last) =      -1      72
(PID.TID 0000.0001)      cg2d_last_res =   5.40574052257256E-07
(PID.TID 0000.0001) // =======================================================
(PID.TID 0000.0001) // Begin MONITOR dynamic field statistics
(PID.TID 0000.0001) // =======================================================
(PID.TID 0000.0001) %MON time_tsnumber                =                 72003
(PID.TID 0000.0001) %MON time_secondsf                =   6.2210592000000E+09
(PID.TID 0000.0001) %MON dynstat_eta_max              =  -2.2084929295619E+00
(PID.TID 0000.0001) %MON dynstat_eta_min              =  -8.3942540879867E+00
(PID.TID 0000.0001) %MON dynstat_eta_mean             =  -3.2928555043004E+00
(PID.TID 0000.0001) %MON dynstat_eta_sd               =   8.6040252615302E-01
(PID.TID 0000.0001) %MON dynstat_eta_del2             =   2.1700435392266E-03
(PID.TID 0000.0001) %MON dynstat_uvel_max             =   2.1379640062631E-01
(PID.TID 0000.0001) %MON dynstat_uvel_min             =  -2.9029887138276E-01
(PID.TID 0000.0001) %MON dynstat_uvel_mean            =  -5.2458662594303E-04
(PID.TID 0000.0001) %MON dynstat_uvel_sd              =   1.4780422822543E-02
(PID.TID 0000.0001) %MON dynstat_uvel_del2            =   6.8121286942618E-05
(PID.TID 0000.0001) %MON dynstat_vvel_max             =   2.2050130905474E-01
(PID.TID 0000.0001) %MON dynstat_vvel_min             =  -2.0083549396951E-01
(PID.TID 0000.0001) %MON dynstat_vvel_mean            =  -4.0048587618678E-04
(PID.TID 0000.0001) %MON dynstat_vvel_sd              =   1.5247408883359E-02
(PID.TID 0000.0001) %MON dynstat_vvel_del2            =   6.3119194214736E-05
(PID.TID 0000.0001) %MON dynstat_wvel_max             =   1.0246674681900E-04
(PID.TID 0000.0001) %MON dynstat_wvel_min             =  -2.1324764886508E-04
(PID.TID 0000.0001) %MON dynstat_wvel_mean            =  -4.2936459753769E-10
(PID.TID 0000.0001) %MON dynstat_wvel_sd              =   5.3632676835234E-06
(PID.TID 0000.0001) %MON dynstat_wvel_del2            =   4.9483317982359E-08
(PID.TID 0000.0001) %MON dynstat_theta_max            =   3.1226006766989E+01
(PID.TID 0000.0001) %MON dynstat_theta_min            =  -6.6492810150187E+00
(PID.TID 0000.0001) %MON dynstat_theta_mean           =   3.0528182670774E+00
(PID.TID 0000.0001) %MON dynstat_theta_sd             =   4.9951642556072E+00
(PID.TID 0000.0001) %MON dynstat_theta_del2           =   2.9890810057587E-03
(PID.TID 0000.0001) %MON dynstat_salt_max             =   5.9504315340356E+01
(PID.TID 0000.0001) %MON dynstat_salt_min             =   1.7775764420396E+01
(PID.TID 0000.0001) %MON dynstat_salt_mean            =   3.4752461240855E+01
(PID.TID 0000.0001) %MON dynstat_salt_sd              =   4.8921498768518E-01
(PID.TID 0000.0001) %MON dynstat_salt_del2            =   1.3660494831922E-03
(PID.TID 0000.0001) %MON forcing_qnet_max             =   6.4852182941293E+02
(PID.TID 0000.0001) %MON forcing_qnet_min             =  -2.5248810964749E+02
(PID.TID 0000.0001) %MON forcing_qnet_mean            =  -1.5791718183355E+01
(PID.TID 0000.0001) %MON forcing_qnet_sd              =   1.2565952503806E+02
(PID.TID 0000.0001) %MON forcing_qnet_del2            =   9.3191074064518E-01
(PID.TID 0000.0001) %MON forcing_qsw_max              =   0.0000000000000E+00
(PID.TID 0000.0001) %MON forcing_qsw_min              =  -3.0189127925792E+02
(PID.TID 0000.0001) %MON forcing_qsw_mean             =  -1.8434326635818E+02
(PID.TID 0000.0001) %MON forcing_qsw_sd               =   7.9627378608955E+01
(PID.TID 0000.0001) %MON forcing_qsw_del2             =   2.9366675865226E-01
(PID.TID 0000.0001) %MON forcing_empmr_max            =   9.3611176967428E-04
(PID.TID 0000.0001) %MON forcing_empmr_min            =  -9.4239480850365E-04
(PID.TID 0000.0001) %MON forcing_empmr_mean           =   2.4842495087064E-06
(PID.TID 0000.0001) %MON forcing_empmr_sd             =   6.9775069234027E-05
(PID.TID 0000.0001) %MON forcing_empmr_del2           =   1.6794479316060E-06
(PID.TID 0000.0001) %MON forcing_fu_max               =   2.4751003717351E-01
(PID.TID 0000.0001) %MON forcing_fu_min               =  -2.8504568682103E-01
(PID.TID 0000.0001) %MON forcing_fu_mean              =  -4.7337560986885E-03
(PID.TID 0000.0001) %MON forcing_fu_sd                =   6.5315165551557E-02
(PID.TID 0000.0001) %MON forcing_fu_del2              =   2.4470324228356E-04
(PID.TID 0000.0001) %MON forcing_fv_max               =   2.5817746358114E-01
(PID.TID 0000.0001) %MON forcing_fv_min               =  -3.2849573188785E-01
(PID.TID 0000.0001) %MON forcing_fv_mean              =  -1.3326364646949E-02
(PID.TID 0000.0001) %MON forcing_fv_sd                =   7.6034557549336E-02
(PID.TID 0000.0001) %MON forcing_fv_del2              =   2.5718443867048E-04
(PID.TID 0000.0001) %MON trAdv_CFL_u_max              =   8.1872570347401E-02
(PID.TID 0000.0001) %MON trAdv_CFL_v_max              =   8.8986434968780E-02
(PID.TID 0000.0001) %MON trAdv_CFL_w_max              =   7.6922077479397E-02
(PID.TID 0000.0001) %MON advcfl_uvel_max              =   8.4327475979162E-02
(PID.TID 0000.0001) %MON advcfl_vvel_max              =   8.3747863850725E-02
(PID.TID 0000.0001) %MON advcfl_wvel_max              =   6.9526780611104E-02
(PID.TID 0000.0001) %MON advcfl_W_hf_max              =   7.6922077479397E-02
(PID.TID 0000.0001) %MON pe_b_mean                    =   1.4383836560277E-02
(PID.TID 0000.0001) %MON ke_max                       =   4.1566851888623E-02
(PID.TID 0000.0001) %MON ke_mean                      =   2.0841522032475E-04
(PID.TID 0000.0001) %MON ke_vol                       =   1.3386042943793E+18
(PID.TID 0000.0001) %MON vort_r_min                   =  -1.2400335810338E-06
(PID.TID 0000.0001) %MON vort_r_max                   =   1.2922384015709E-06
(PID.TID 0000.0001) %MON vort_a_mean                  =  -2.0549865324846E-05
(PID.TID 0000.0001) %MON vort_a_sd                    =   7.5259723445498E-05
(PID.TID 0000.0001) %MON vort_p_mean                  =  -2.4806288821089E-05
(PID.TID 0000.0001) %MON vort_p_sd                    =   1.2827535834397E-04
(PID.TID 0000.0001) %MON surfExpan_theta_mean         =   2.4742558567371E-08
(PID.TID 0000.0001) %MON surfExpan_salt_mean          =   1.6160081848439E-08
(PID.TID 0000.0001) // =======================================================
(PID.TID 0000.0001) // End MONITOR dynamic field statistics
(PID.TID 0000.0001) // =======================================================
(PID.TID 0000.0001) // =======================================================
(PID.TID 0000.0001) // Begin MONITOR SEAICE statistics
(PID.TID 0000.0001) // =======================================================
(PID.TID 0000.0001) %MON seaice_tsnumber              =                 72003
(PID.TID 0000.0001) %MON seaice_time_sec              =   6.2210592000000E+09
(PID.TID 0000.0001) %MON seaice_uice_max              =   4.0000000000000E-01
(PID.TID 0000.0001) %MON seaice_uice_min              =  -4.0000000000000E-01
(PID.TID 0000.0001) %MON seaice_uice_mean             =  -1.4507369205952E-02
(PID.TID 0000.0001) %MON seaice_uice_sd               =   1.4237072572953E-01
(PID.TID 0000.0001) %MON seaice_uice_del2             =   7.2694574162274E-04
(PID.TID 0000.0001) %MON seaice_vice_max              =   3.6419487053493E-01
(PID.TID 0000.0001) %MON seaice_vice_min              =  -4.0000000000000E-01
(PID.TID 0000.0001) %MON seaice_vice_mean             =  -3.7538783588733E-02
(PID.TID 0000.0001) %MON seaice_vice_sd               =   1.5679147934209E-01
(PID.TID 0000.0001) %MON seaice_vice_del2             =   7.0809081557503E-04
(PID.TID 0000.0001) %MON seaice_area_max              =   1.0000000000000E+00
(PID.TID 0000.0001) %MON seaice_area_min              =   0.0000000000000E+00
(PID.TID 0000.0001) %MON seaice_area_mean             =   4.0763691361236E-02
(PID.TID 0000.0001) %MON seaice_area_sd               =   1.8842870974416E-01
(PID.TID 0000.0001) %MON seaice_area_del2             =   1.6209854094476E-03
(PID.TID 0000.0001) %MON seaice_heff_max              =   5.2039767726400E+00
(PID.TID 0000.0001) %MON seaice_heff_min              =   0.0000000000000E+00
(PID.TID 0000.0001) %MON seaice_heff_mean             =   7.6109447126896E-02
(PID.TID 0000.0001) %MON seaice_heff_sd               =   3.9513287792493E-01
(PID.TID 0000.0001) %MON seaice_heff_del2             =   2.2103019357245E-03
(PID.TID 0000.0001) %MON seaice_hsnow_max             =   1.4609529949651E-02
(PID.TID 0000.0001) %MON seaice_hsnow_min             =   0.0000000000000E+00
(PID.TID 0000.0001) %MON seaice_hsnow_mean            =   2.4865846022329E-04
(PID.TID 0000.0001) %MON seaice_hsnow_sd              =   1.4020213950351E-03
(PID.TID 0000.0001) %MON seaice_hsnow_del2            =   1.6517832584115E-05
(PID.TID 0000.0001) // =======================================================
(PID.TID 0000.0001) // End MONITOR SEAICE statistics
(PID.TID 0000.0001) // =======================================================
 EXTERNAL_FIELDS_LOAD,     72003 : iP,iLd,i0,i1=   12    1   12    1 ; Wght=  0.4000000000  0.6000000000
 SEAICE_LSR: Residual Initial ipass,Uice,Vice=    1  5.89605936E-03  1.17456694E-02
 SEAICE_LSR (ipass=   1) iters,dU,Resid=   220  4.42215708E-14  7.14947332E-14
 SEAICE_LSR (ipass=   1) iters,dV,Resid=   220  8.62254712E-13  1.32243165E-12
 SEAICE_LSR: Residual Initial ipass,Uice,Vice=    2  2.17394929E-03  2.37488480E-03
 SEAICE_LSR (ipass=   2) iters,dU,Resid=   220  6.79614351E-13  1.18831682E-12
 SEAICE_LSR (ipass=   2) iters,dV,Resid=   220  9.57622870E-13  1.58522508E-12
 cg2d: Sum(rhs),rhsMax =   2.21404716060756E+03  2.00975880630808E+01
(PID.TID 0000.0001)      cg2d_init_res =   4.53535902373122E+00
(PID.TID 0000.0001)      cg2d_iters(min,last) =      -1      71
(PID.TID 0000.0001)      cg2d_last_res =   5.74444263842904E-07
(PID.TID 0000.0001) // =======================================================
(PID.TID 0000.0001) // Begin MONITOR dynamic field statistics
(PID.TID 0000.0001) // =======================================================
(PID.TID 0000.0001) %MON time_tsnumber                =                 72004
(PID.TID 0000.0001) %MON time_secondsf                =   6.2211456000000E+09
(PID.TID 0000.0001) %MON dynstat_eta_max              =  -2.2099179989014E+00
(PID.TID 0000.0001) %MON dynstat_eta_min              =  -8.4036528890436E+00
(PID.TID 0000.0001) %MON dynstat_eta_mean             =  -3.2930476145314E+00
(PID.TID 0000.0001) %MON dynstat_eta_sd               =   8.5981616834172E-01
(PID.TID 0000.0001) %MON dynstat_eta_del2             =   2.1523721734747E-03
(PID.TID 0000.0001) %MON dynstat_uvel_max             =   2.1396916805277E-01
(PID.TID 0000.0001) %MON dynstat_uvel_min             =  -2.8994082165593E-01
(PID.TID 0000.0001) %MON dynstat_uvel_mean            =  -5.2385185734164E-04
(PID.TID 0000.0001) %MON dynstat_uvel_sd              =   1.4776433089400E-02
(PID.TID 0000.0001) %MON dynstat_uvel_del2            =   6.8075527605497E-05
(PID.TID 0000.0001) %MON dynstat_vvel_max             =   2.1987789921386E-01
(PID.TID 0000.0001) %MON dynstat_vvel_min             =  -2.0089459984546E-01
(PID.TID 0000.0001) %MON dynstat_vvel_mean            =  -3.9902719786510E-04
(PID.TID 0000.0001) %MON dynstat_vvel_sd              =   1.5248915688349E-02
(PID.TID 0000.0001) %MON dynstat_vvel_del2            =   6.3062652814048E-05
(PID.TID 0000.0001) %MON dynstat_wvel_max             =   1.0298842663612E-04
(PID.TID 0000.0001) %MON dynstat_wvel_min             =  -2.1299040962985E-04
(PID.TID 0000.0001) %MON dynstat_wvel_mean            =  -4.0342259969433E-11
(PID.TID 0000.0001) %MON dynstat_wvel_sd              =   5.3622912429838E-06
(PID.TID 0000.0001) %MON dynstat_wvel_del2            =   4.9488013975574E-08
(PID.TID 0000.0001) %MON dynstat_theta_max            =   3.1236732433284E+01
(PID.TID 0000.0001) %MON dynstat_theta_min            =  -6.6508686326286E+00
(PID.TID 0000.0001) %MON dynstat_theta_mean           =   3.0529067733954E+00
(PID.TID 0000.0001) %MON dynstat_theta_sd             =   4.9952213755905E+00
(PID.TID 0000.0001) %MON dynstat_theta_del2           =   2.9926519447607E-03
(PID.TID 0000.0001) %MON dynstat_salt_max             =   5.9519628901592E+01
(PID.TID 0000.0001) %MON dynstat_salt_min             =   1.7775803304876E+01
(PID.TID 0000.0001) %MON dynstat_salt_mean            =   3.4752462882033E+01
(PID.TID 0000.0001) %MON dynstat_salt_sd              =   4.8920313261679E-01
(PID.TID 0000.0001) %MON dynstat_salt_del2            =   1.3670605563829E-03
(PID.TID 0000.0001) %MON forcing_qnet_max             =   6.5026488344290E+02
(PID.TID 0000.0001) %MON forcing_qnet_min             =  -2.5253078503835E+02
(PID.TID 0000.0001) %MON forcing_qnet_mean            =  -1.5803482281652E+01
(PID.TID 0000.0001) %MON forcing_qnet_sd              =   1.2554735985707E+02
(PID.TID 0000.0001) %MON forcing_qnet_del2            =   9.2533507381714E-01
(PID.TID 0000.0001) %MON forcing_qsw_max              =   0.0000000000000E+00
(PID.TID 0000.0001) %MON forcing_qsw_min              =  -3.0187928232211E+02
(PID.TID 0000.0001) %MON forcing_qsw_mean             =  -1.8443845618180E+02
(PID.TID 0000.0001) %MON forcing_qsw_sd               =   7.9518257936449E+01
(PID.TID 0000.0001) %MON forcing_qsw_del2             =   2.7550821988248E-01
(PID.TID 0000.0001) %MON forcing_empmr_max            =   7.8004556136966E-04
(PID.TID 0000.0001) %MON forcing_empmr_min            =  -9.7596782107683E-04
(PID.TID 0000.0001) %MON forcing_empmr_mean           =   2.3013204763610E-06
(PID.TID 0000.0001) %MON forcing_empmr_sd             =   6.6089261035402E-05
(PID.TID 0000.0001) %MON forcing_empmr_del2           =   1.6438241835058E-06
(PID.TID 0000.0001) %MON forcing_fu_max               =   2.4746198790331E-01
(PID.TID 0000.0001) %MON forcing_fu_min               =  -2.8849700932649E-01
(PID.TID 0000.0001) %MON forcing_fu_mean              =  -4.6875546521436E-03
(PID.TID 0000.0001) %MON forcing_fu_sd                =   6.5362698488100E-02
(PID.TID 0000.0001) %MON forcing_fu_del2              =   2.4790714584726E-04
(PID.TID 0000.0001) %MON forcing_fv_max               =   2.6086070515377E-01
(PID.TID 0000.0001) %MON forcing_fv_min               =  -3.2928363582178E-01
(PID.TID 0000.0001) %MON forcing_fv_mean              =  -1.3343459208129E-02
(PID.TID 0000.0001) %MON forcing_fv_sd                =   7.6070745710633E-02
(PID.TID 0000.0001) %MON forcing_fv_del2              =   2.5710719234715E-04
(PID.TID 0000.0001) %MON trAdv_CFL_u_max              =   8.1771590316494E-02
(PID.TID 0000.0001) %MON trAdv_CFL_v_max              =   8.9104970931138E-02
(PID.TID 0000.0001) %MON trAdv_CFL_w_max              =   7.6829335782278E-02
(PID.TID 0000.0001) %MON advcfl_uvel_max              =   8.4468544556493E-02
(PID.TID 0000.0001) %MON advcfl_vvel_max              =   8.3859501029445E-02
(PID.TID 0000.0001) %MON advcfl_wvel_max              =   6.9442910913280E-02
(PID.TID 0000.0001) %MON advcfl_W_hf_max              =   7.6829335782278E-02
(PID.TID 0000.0001) %MON pe_b_mean                    =   1.4381787060060E-02
(PID.TID 0000.0001) %MON ke_max                       =   4.1444853721308E-02
(PID.TID 0000.0001) %MON ke_mean                      =   2.0838147125996E-04
(PID.TID 0000.0001) %MON ke_vol                       =   1.3386042189162E+18
(PID.TID 0000.0001) %MON vort_r_min                   =  -1.2451647440888E-06
(PID.TID 0000.0001) %MON vort_r_max                   =   1.2893477271802E-06
(PID.TID 0000.0001) %MON vort_a_mean                  =  -2.0549865324846E-05
(PID.TID 0000.0001) %MON vort_a_sd                    =   7.5259723401651E-05
(PID.TID 0000.0001) %MON vort_p_mean                  =  -2.4806289742448E-05
(PID.TID 0000.0001) %MON vort_p_sd                    =   1.2827535355473E-04
(PID.TID 0000.0001) %MON surfExpan_theta_mean         =   2.8607031024824E-08
(PID.TID 0000.0001) %MON surfExpan_salt_mean          =   1.7110499112815E-08
(PID.TID 0000.0001) // =======================================================
(PID.TID 0000.0001) // End MONITOR dynamic field statistics
(PID.TID 0000.0001) // =======================================================
(PID.TID 0000.0001) // =======================================================
(PID.TID 0000.0001) // Begin MONITOR SEAICE statistics
(PID.TID 0000.0001) // =======================================================
(PID.TID 0000.0001) %MON seaice_tsnumber              =                 72004
(PID.TID 0000.0001) %MON seaice_time_sec              =   6.2211456000000E+09
(PID.TID 0000.0001) %MON seaice_uice_max              =   4.0000000000000E-01
(PID.TID 0000.0001) %MON seaice_uice_min              =  -4.0000000000000E-01
(PID.TID 0000.0001) %MON seaice_uice_mean             =  -1.4447474139151E-02
(PID.TID 0000.0001) %MON seaice_uice_sd               =   1.4227938395618E-01
(PID.TID 0000.0001) %MON seaice_uice_del2             =   7.2764011109285E-04
(PID.TID 0000.0001) %MON seaice_vice_max              =   3.6538852321123E-01
(PID.TID 0000.0001) %MON seaice_vice_min              =  -4.0000000000000E-01
(PID.TID 0000.0001) %MON seaice_vice_mean             =  -3.7558298118730E-02
(PID.TID 0000.0001) %MON seaice_vice_sd               =   1.5693299747920E-01
(PID.TID 0000.0001) %MON seaice_vice_del2             =   7.0783076467058E-04
(PID.TID 0000.0001) %MON seaice_area_max              =   1.0000000000000E+00
(PID.TID 0000.0001) %MON seaice_area_min              =   0.0000000000000E+00
(PID.TID 0000.0001) %MON seaice_area_mean             =   4.0794104299226E-02
(PID.TID 0000.0001) %MON seaice_area_sd               =   1.8944730185539E-01
(PID.TID 0000.0001) %MON seaice_area_del2             =   1.6014895061284E-03
(PID.TID 0000.0001) %MON seaice_heff_max              =   5.2103908071179E+00
(PID.TID 0000.0001) %MON seaice_heff_min              =   0.0000000000000E+00
(PID.TID 0000.0001) %MON seaice_heff_mean             =   7.6260929405621E-02
(PID.TID 0000.0001) %MON seaice_heff_sd               =   3.9671186054790E-01
(PID.TID 0000.0001) %MON seaice_heff_del2             =   2.1837572102299E-03
(PID.TID 0000.0001) %MON seaice_hsnow_max             =   1.9490792595558E-02
(PID.TID 0000.0001) %MON seaice_hsnow_min             =  -8.4703294725430E-22
(PID.TID 0000.0001) %MON seaice_hsnow_mean            =   3.3269400820708E-04
(PID.TID 0000.0001) %MON seaice_hsnow_sd              =   1.8767220875258E-03
(PID.TID 0000.0001) %MON seaice_hsnow_del2            =   2.2225689832173E-05
(PID.TID 0000.0001) // =======================================================
(PID.TID 0000.0001) // End MONITOR SEAICE statistics
(PID.TID 0000.0001) // =======================================================
 EXTERNAL_FIELDS_LOAD,     72004 : iP,iLd,i0,i1=   12    1   12    1 ; Wght=  0.3666666667  0.6333333333
 SEAICE_LSR: Residual Initial ipass,Uice,Vice=    1  5.72798404E-03  1.19892834E-02
 SEAICE_LSR (ipass=   1) iters,dU,Resid=   256  1.42849274E-13  3.01768438E-13
 SEAICE_LSR (ipass=   1) iters,dV,Resid=   256  9.20236110E-13  1.84205534E-12
 SEAICE_LSR: Residual Initial ipass,Uice,Vice=    2  2.13556581E-03  2.71901003E-03
 SEAICE_LSR (ipass=   2) iters,dU,Resid=   258  6.21697138E-13  1.40086184E-12
 SEAICE_LSR (ipass=   2) iters,dV,Resid=   258  8.73606743E-13  1.86759373E-12
 cg2d: Sum(rhs),rhsMax =   2.21416159682961E+03  1.99677549033440E+01
(PID.TID 0000.0001)      cg2d_init_res =   4.14450028454742E+00
(PID.TID 0000.0001)      cg2d_iters(min,last) =      -1      70
(PID.TID 0000.0001)      cg2d_last_res =   5.72556569951711E-07
(PID.TID 0000.0001) // =======================================================
(PID.TID 0000.0001) // Begin MONITOR dynamic field statistics
(PID.TID 0000.0001) // =======================================================
(PID.TID 0000.0001) %MON time_tsnumber                =                 72005
(PID.TID 0000.0001) %MON time_secondsf                =   6.2212320000000E+09
(PID.TID 0000.0001) %MON dynstat_eta_max              =  -2.2113214897769E+00
(PID.TID 0000.0001) %MON dynstat_eta_min              =  -8.4009556273046E+00
(PID.TID 0000.0001) %MON dynstat_eta_mean             =  -3.2932178204488E+00
(PID.TID 0000.0001) %MON dynstat_eta_sd               =   8.5931843921096E-01
(PID.TID 0000.0001) %MON dynstat_eta_del2             =   2.1407023259259E-03
(PID.TID 0000.0001) %MON dynstat_uvel_max             =   2.1406878425686E-01
(PID.TID 0000.0001) %MON dynstat_uvel_min             =  -2.8957152638912E-01
(PID.TID 0000.0001) %MON dynstat_uvel_mean            =  -5.2329981568223E-04
(PID.TID 0000.0001) %MON dynstat_uvel_sd              =   1.4772247623376E-02
(PID.TID 0000.0001) %MON dynstat_uvel_del2            =   6.8030457642862E-05
(PID.TID 0000.0001) %MON dynstat_vvel_max             =   2.1920551297706E-01
(PID.TID 0000.0001) %MON dynstat_vvel_min             =  -2.0094831013424E-01
(PID.TID 0000.0001) %MON dynstat_vvel_mean            =  -3.9730613396569E-04
(PID.TID 0000.0001) %MON dynstat_vvel_sd              =   1.5250138394947E-02
(PID.TID 0000.0001) %MON dynstat_vvel_del2            =   6.3008620047388E-05
(PID.TID 0000.0001) %MON dynstat_wvel_max             =   1.0356450791002E-04
(PID.TID 0000.0001) %MON dynstat_wvel_min             =  -2.1275715244973E-04
(PID.TID 0000.0001) %MON dynstat_wvel_mean            =   2.4551408523008E-10
(PID.TID 0000.0001) %MON dynstat_wvel_sd              =   5.3616701201795E-06
(PID.TID 0000.0001) %MON dynstat_wvel_del2            =   4.9487476644494E-08
(PID.TID 0000.0001) %MON dynstat_theta_max            =   3.1246858940320E+01
(PID.TID 0000.0001) %MON dynstat_theta_min            =  -6.6523296217868E+00
(PID.TID 0000.0001) %MON dynstat_theta_mean           =   3.0529948153590E+00
(PID.TID 0000.0001) %MON dynstat_theta_sd             =   4.9952811608759E+00
(PID.TID 0000.0001) %MON dynstat_theta_del2           =   2.9964778941395E-03
(PID.TID 0000.0001) %MON dynstat_salt_max             =   5.9528034731901E+01
(PID.TID 0000.0001) %MON dynstat_salt_min             =   1.7775831309896E+01
(PID.TID 0000.0001) %MON dynstat_salt_mean            =   3.4752464316616E+01
(PID.TID 0000.0001) %MON dynstat_salt_sd              =   4.8919078447507E-01
(PID.TID 0000.0001) %MON dynstat_salt_del2            =   1.3680811708257E-03
(PID.TID 0000.0001) %MON forcing_qnet_max             =   6.5198757789740E+02
(PID.TID 0000.0001) %MON forcing_qnet_min             =  -2.5256693087696E+02
(PID.TID 0000.0001) %MON forcing_qnet_mean            =  -1.5724281288811E+01
(PID.TID 0000.0001) %MON forcing_qnet_sd              =   1.2546992389145E+02
(PID.TID 0000.0001) %MON forcing_qnet_del2            =   9.1857685591184E-01
(PID.TID 0000.0001) %MON forcing_qsw_max              =   0.0000000000000E+00
(PID.TID 0000.0001) %MON forcing_qsw_min              =  -3.0186728538630E+02
(PID.TID 0000.0001) %MON forcing_qsw_mean             =  -1.8451642326301E+02
(PID.TID 0000.0001) %MON forcing_qsw_sd               =   7.9407161030734E+01
(PID.TID 0000.0001) %MON forcing_qsw_del2             =   2.6119262487231E-01
(PID.TID 0000.0001) %MON forcing_empmr_max            =   6.5764603743713E-04
(PID.TID 0000.0001) %MON forcing_empmr_min            =  -1.0072465136096E-03
(PID.TID 0000.0001) %MON forcing_empmr_mean           =   2.0389250517075E-06
(PID.TID 0000.0001) %MON forcing_empmr_sd             =   6.3858114463094E-05
(PID.TID 0000.0001) %MON forcing_empmr_del2           =   1.6033751732923E-06
(PID.TID 0000.0001) %MON forcing_fu_max               =   2.4741393863310E-01
(PID.TID 0000.0001) %MON forcing_fu_min               =  -2.9019718555750E-01
(PID.TID 0000.0001) %MON forcing_fu_mean              =  -4.6437659048638E-03
(PID.TID 0000.0001) %MON forcing_fu_sd                =   6.5403271371956E-02
(PID.TID 0000.0001) %MON forcing_fu_del2              =   2.5047903819911E-04
(PID.TID 0000.0001) %MON forcing_fv_max               =   2.6354394672640E-01
(PID.TID 0000.0001) %MON forcing_fv_min               =  -3.3007153975572E-01
(PID.TID 0000.0001) %MON forcing_fv_mean              =  -1.3356381109974E-02
(PID.TID 0000.0001) %MON forcing_fv_sd                =   7.6114352201358E-02
(PID.TID 0000.0001) %MON forcing_fv_del2              =   2.5683270305915E-04
(PID.TID 0000.0001) %MON trAdv_CFL_u_max              =   8.1667437982121E-02
(PID.TID 0000.0001) %MON trAdv_CFL_v_max              =   8.9202002777803E-02
(PID.TID 0000.0001) %MON trAdv_CFL_w_max              =   7.6745212556475E-02
(PID.TID 0000.0001) %MON advcfl_uvel_max              =   8.4607480587704E-02
(PID.TID 0000.0001) %MON advcfl_vvel_max              =   8.3950897760083E-02
(PID.TID 0000.0001) %MON advcfl_wvel_max              =   6.9366860270403E-02
(PID.TID 0000.0001) %MON advcfl_W_hf_max              =   7.6745212556475E-02
(PID.TID 0000.0001) %MON pe_b_mean                    =   1.4380069303509E-02
(PID.TID 0000.0001) %MON ke_max                       =   4.1320973616105E-02
(PID.TID 0000.0001) %MON ke_mean                      =   2.0834105763894E-04
(PID.TID 0000.0001) %MON ke_vol                       =   1.3386041490098E+18
(PID.TID 0000.0001) %MON vort_r_min                   =  -1.2505579440387E-06
(PID.TID 0000.0001) %MON vort_r_max                   =   1.2865150389003E-06
(PID.TID 0000.0001) %MON vort_a_mean                  =  -2.0549865324846E-05
(PID.TID 0000.0001) %MON vort_a_sd                    =   7.5259723294794E-05
(PID.TID 0000.0001) %MON vort_p_mean                  =  -2.4806290637666E-05
(PID.TID 0000.0001) %MON vort_p_sd                    =   1.2827534589914E-04
(PID.TID 0000.0001) %MON surfExpan_theta_mean         =   3.1751690203118E-08
(PID.TID 0000.0001) %MON surfExpan_salt_mean          =   1.8885020392736E-08
(PID.TID 0000.0001) // =======================================================
(PID.TID 0000.0001) // End MONITOR dynamic field statistics
(PID.TID 0000.0001) // =======================================================
(PID.TID 0000.0001) // =======================================================
(PID.TID 0000.0001) // Begin MONITOR SEAICE statistics
(PID.TID 0000.0001) // =======================================================
(PID.TID 0000.0001) %MON seaice_tsnumber              =                 72005
(PID.TID 0000.0001) %MON seaice_time_sec              =   6.2212320000000E+09
(PID.TID 0000.0001) %MON seaice_uice_max              =   4.0000000000000E-01
(PID.TID 0000.0001) %MON seaice_uice_min              =  -4.0000000000000E-01
(PID.TID 0000.0001) %MON seaice_uice_mean             =  -1.4381167482747E-02
(PID.TID 0000.0001) %MON seaice_uice_sd               =   1.4218448503610E-01
(PID.TID 0000.0001) %MON seaice_uice_del2             =   7.2840432119046E-04
(PID.TID 0000.0001) %MON seaice_vice_max              =   3.6797341705341E-01
(PID.TID 0000.0001) %MON seaice_vice_min              =  -4.0000000000000E-01
(PID.TID 0000.0001) %MON seaice_vice_mean             =  -3.7577343319732E-02
(PID.TID 0000.0001) %MON seaice_vice_sd               =   1.5707893196656E-01
(PID.TID 0000.0001) %MON seaice_vice_del2             =   7.0817953160496E-04
(PID.TID 0000.0001) %MON seaice_area_max              =   1.0000000000000E+00
(PID.TID 0000.0001) %MON seaice_area_min              =   0.0000000000000E+00
(PID.TID 0000.0001) %MON seaice_area_mean             =   4.0740492748781E-02
(PID.TID 0000.0001) %MON seaice_area_sd               =   1.9017436231666E-01
(PID.TID 0000.0001) %MON seaice_area_del2             =   1.5832396657497E-03
(PID.TID 0000.0001) %MON seaice_heff_max              =   5.2167457407282E+00
(PID.TID 0000.0001) %MON seaice_heff_min              =   0.0000000000000E+00
(PID.TID 0000.0001) %MON seaice_heff_mean             =   7.6383369406623E-02
(PID.TID 0000.0001) %MON seaice_heff_sd               =   3.9818091626481E-01
(PID.TID 0000.0001) %MON seaice_heff_del2             =   2.1648870420504E-03
(PID.TID 0000.0001) %MON seaice_hsnow_max             =   2.4384009110910E-02
(PID.TID 0000.0001) %MON seaice_hsnow_min             =  -8.4703294725430E-22
(PID.TID 0000.0001) %MON seaice_hsnow_mean            =   4.1729383975129E-04
(PID.TID 0000.0001) %MON seaice_hsnow_sd              =   2.3546961973263E-03
(PID.TID 0000.0001) %MON seaice_hsnow_del2            =   2.7960074806558E-05
(PID.TID 0000.0001) // =======================================================
(PID.TID 0000.0001) // End MONITOR SEAICE statistics
(PID.TID 0000.0001) // =======================================================
 EXTERNAL_FIELDS_LOAD,     72005 : iP,iLd,i0,i1=   12    1   12    1 ; Wght=  0.3333333333  0.6666666667
 SEAICE_LSR: Residual Initial ipass,Uice,Vice=    1  5.45008059E-03  1.20499785E-02
 SEAICE_LSR (ipass=   1) iters,dU,Resid=   268  1.26346850E-13  2.86794571E-13
 SEAICE_LSR (ipass=   1) iters,dV,Resid=   268  8.87651064E-13  1.91263027E-12
 SEAICE_LSR: Residual Initial ipass,Uice,Vice=    2  1.92097633E-03  2.25736523E-03
 SEAICE_LSR (ipass=   2) iters,dU,Resid=   258  5.52771370E-13  1.25630981E-12
 SEAICE_LSR (ipass=   2) iters,dV,Resid=   258  9.37527833E-13  2.02247314E-12
 cg2d: Sum(rhs),rhsMax =   2.21427220449724E+03  1.97951862033379E+01
(PID.TID 0000.0001)      cg2d_init_res =   4.17670437497591E+00
(PID.TID 0000.0001)      cg2d_iters(min,last) =      -1      70
(PID.TID 0000.0001)      cg2d_last_res =   4.84885751695803E-07
(PID.TID 0000.0001) // =======================================================
(PID.TID 0000.0001) // Begin MONITOR dynamic field statistics
(PID.TID 0000.0001) // =======================================================
(PID.TID 0000.0001) %MON time_tsnumber                =                 72006
(PID.TID 0000.0001) %MON time_secondsf                =   6.2213184000000E+09
(PID.TID 0000.0001) %MON dynstat_eta_max              =  -2.2127537754640E+00
(PID.TID 0000.0001) %MON dynstat_eta_min              =  -8.3916684957420E+00
(PID.TID 0000.0001) %MON dynstat_eta_mean             =  -3.2933823319924E+00
(PID.TID 0000.0001) %MON dynstat_eta_sd               =   8.5885572500780E-01
(PID.TID 0000.0001) %MON dynstat_eta_del2             =   2.1312085315656E-03
(PID.TID 0000.0001) %MON dynstat_uvel_max             =   2.1409491145653E-01
(PID.TID 0000.0001) %MON dynstat_uvel_min             =  -2.8918995899852E-01
(PID.TID 0000.0001) %MON dynstat_uvel_mean            =  -5.2293866422317E-04
(PID.TID 0000.0001) %MON dynstat_uvel_sd              =   1.4767985757607E-02
(PID.TID 0000.0001) %MON dynstat_uvel_del2            =   6.7986191473496E-05
(PID.TID 0000.0001) %MON dynstat_vvel_max             =   2.1849574928574E-01
(PID.TID 0000.0001) %MON dynstat_vvel_min             =  -2.0099695598587E-01
(PID.TID 0000.0001) %MON dynstat_vvel_mean            =  -3.9553684983164E-04
(PID.TID 0000.0001) %MON dynstat_vvel_sd              =   1.5251040707662E-02
(PID.TID 0000.0001) %MON dynstat_vvel_del2            =   6.2957416028081E-05
(PID.TID 0000.0001) %MON dynstat_wvel_max             =   1.0418008895886E-04
(PID.TID 0000.0001) %MON dynstat_wvel_min             =  -2.1254901449863E-04
(PID.TID 0000.0001) %MON dynstat_wvel_mean            =   4.5639403342872E-10
(PID.TID 0000.0001) %MON dynstat_wvel_sd              =   5.3610482747141E-06
(PID.TID 0000.0001) %MON dynstat_wvel_del2            =   4.9477980154445E-08
(PID.TID 0000.0001) %MON dynstat_theta_max            =   3.1256394626934E+01
(PID.TID 0000.0001) %MON dynstat_theta_min            =  -6.6536575208221E+00
(PID.TID 0000.0001) %MON dynstat_theta_mean           =   3.0530825005127E+00
(PID.TID 0000.0001) %MON dynstat_theta_sd             =   4.9953436283308E+00
(PID.TID 0000.0001) %MON dynstat_theta_del2           =   2.9996458703829E-03
(PID.TID 0000.0001) %MON dynstat_salt_max             =   5.9530860927738E+01
(PID.TID 0000.0001) %MON dynstat_salt_min             =   1.7775848718717E+01
(PID.TID 0000.0001) %MON dynstat_salt_mean            =   3.4752465704199E+01
(PID.TID 0000.0001) %MON dynstat_salt_sd              =   4.8917842117848E-01
(PID.TID 0000.0001) %MON dynstat_salt_del2            =   1.3691089950840E-03
(PID.TID 0000.0001) %MON forcing_qnet_max             =   6.5368972952047E+02
(PID.TID 0000.0001) %MON forcing_qnet_min             =  -2.5259555355873E+02
(PID.TID 0000.0001) %MON forcing_qnet_mean            =  -1.5660889027730E+01
(PID.TID 0000.0001) %MON forcing_qnet_sd              =   1.2530886407140E+02
(PID.TID 0000.0001) %MON forcing_qnet_del2            =   9.2662008378152E-01
(PID.TID 0000.0001) %MON forcing_qsw_max              =   0.0000000000000E+00
(PID.TID 0000.0001) %MON forcing_qsw_min              =  -3.0185528845048E+02
(PID.TID 0000.0001) %MON forcing_qsw_mean             =  -1.8459409675773E+02
(PID.TID 0000.0001) %MON forcing_qsw_sd               =   7.9305928671636E+01
(PID.TID 0000.0001) %MON forcing_qsw_del2             =   2.4862366406108E-01
(PID.TID 0000.0001) %MON forcing_empmr_max            =   5.6014574962410E-04
(PID.TID 0000.0001) %MON forcing_empmr_min            =  -1.0331218642319E-03
(PID.TID 0000.0001) %MON forcing_empmr_mean           =   1.9707111996831E-06
(PID.TID 0000.0001) %MON forcing_empmr_sd             =   6.3209189122214E-05
(PID.TID 0000.0001) %MON forcing_empmr_del2           =   1.6215599836812E-06
(PID.TID 0000.0001) %MON forcing_fu_max               =   2.4736588936290E-01
(PID.TID 0000.0001) %MON forcing_fu_min               =  -2.8978992906108E-01
(PID.TID 0000.0001) %MON forcing_fu_mean              =  -4.5991780799003E-03
(PID.TID 0000.0001) %MON forcing_fu_sd                =   6.5445170581019E-02
(PID.TID 0000.0001) %MON forcing_fu_del2              =   2.5154954843207E-04
(PID.TID 0000.0001) %MON forcing_fv_max               =   2.6622718829904E-01
(PID.TID 0000.0001) %MON forcing_fv_min               =  -3.3085944368965E-01
(PID.TID 0000.0001) %MON forcing_fv_mean              =  -1.3366715607887E-02
(PID.TID 0000.0001) %MON forcing_fv_sd                =   7.6167124005453E-02
(PID.TID 0000.0001) %MON forcing_fv_del2              =   2.5680425053828E-04
(PID.TID 0000.0001) %MON trAdv_CFL_u_max              =   8.1559824364552E-02
(PID.TID 0000.0001) %MON trAdv_CFL_v_max              =   8.9277080896280E-02
(PID.TID 0000.0001) %MON trAdv_CFL_w_max              =   7.6670126107497E-02
(PID.TID 0000.0001) %MON advcfl_uvel_max              =   8.4742432605512E-02
(PID.TID 0000.0001) %MON advcfl_vvel_max              =   8.4021632357214E-02
(PID.TID 0000.0001) %MON advcfl_wvel_max              =   6.9298999444082E-02
(PID.TID 0000.0001) %MON advcfl_W_hf_max              =   7.6670126107497E-02
(PID.TID 0000.0001) %MON pe_b_mean                    =   1.4378547803467E-02
(PID.TID 0000.0001) %MON ke_max                       =   4.1194883422459E-02
(PID.TID 0000.0001) %MON ke_mean                      =   2.0829516934454E-04
(PID.TID 0000.0001) %MON ke_vol                       =   1.3386040870742E+18
(PID.TID 0000.0001) %MON vort_r_min                   =  -1.2561821993804E-06
(PID.TID 0000.0001) %MON vort_r_max                   =   1.2837565549562E-06
(PID.TID 0000.0001) %MON vort_a_mean                  =  -2.0549865324846E-05
(PID.TID 0000.0001) %MON vort_a_sd                    =   7.5259723108857E-05
(PID.TID 0000.0001) %MON vort_p_mean                  =  -2.4806291490124E-05
(PID.TID 0000.0001) %MON vort_p_sd                    =   1.2827533798028E-04
(PID.TID 0000.0001) %MON surfExpan_theta_mean         =   3.3474377332978E-08
(PID.TID 0000.0001) %MON surfExpan_salt_mean          =   2.0529318659360E-08
(PID.TID 0000.0001) // =======================================================
(PID.TID 0000.0001) // End MONITOR dynamic field statistics
(PID.TID 0000.0001) // =======================================================
(PID.TID 0000.0001) // =======================================================
(PID.TID 0000.0001) // Begin MONITOR SEAICE statistics
(PID.TID 0000.0001) // =======================================================
(PID.TID 0000.0001) %MON seaice_tsnumber              =                 72006
(PID.TID 0000.0001) %MON seaice_time_sec              =   6.2213184000000E+09
(PID.TID 0000.0001) %MON seaice_uice_max              =   4.0000000000000E-01
(PID.TID 0000.0001) %MON seaice_uice_min              =  -4.0000000000000E-01
(PID.TID 0000.0001) %MON seaice_uice_mean             =  -1.4303996975725E-02
(PID.TID 0000.0001) %MON seaice_uice_sd               =   1.4208678448378E-01
(PID.TID 0000.0001) %MON seaice_uice_del2             =   7.2904910908743E-04
(PID.TID 0000.0001) %MON seaice_vice_max              =   3.7065580920728E-01
(PID.TID 0000.0001) %MON seaice_vice_min              =  -4.0000000000000E-01
(PID.TID 0000.0001) %MON seaice_vice_mean             =  -3.7593728244090E-02
(PID.TID 0000.0001) %MON seaice_vice_sd               =   1.5722620455420E-01
(PID.TID 0000.0001) %MON seaice_vice_del2             =   7.0889396146900E-04
(PID.TID 0000.0001) %MON seaice_area_max              =   1.0000000000000E+00
(PID.TID 0000.0001) %MON seaice_area_min              =   0.0000000000000E+00
(PID.TID 0000.0001) %MON seaice_area_mean             =   4.0788794175044E-02
(PID.TID 0000.0001) %MON seaice_area_sd               =   1.9070176272293E-01
(PID.TID 0000.0001) %MON seaice_area_del2             =   1.5586824881498E-03
(PID.TID 0000.0001) %MON seaice_heff_max              =   5.2230664950165E+00
(PID.TID 0000.0001) %MON seaice_heff_min              =   0.0000000000000E+00
(PID.TID 0000.0001) %MON seaice_heff_mean             =   7.6494627866986E-02
(PID.TID 0000.0001) %MON seaice_heff_sd               =   3.9956748399385E-01
(PID.TID 0000.0001) %MON seaice_heff_del2             =   2.1499215368066E-03
(PID.TID 0000.0001) %MON seaice_hsnow_max             =   2.9267887522078E-02
(PID.TID 0000.0001) %MON seaice_hsnow_min             =   0.0000000000000E+00
(PID.TID 0000.0001) %MON seaice_hsnow_mean            =   5.0239415454811E-04
(PID.TID 0000.0001) %MON seaice_hsnow_sd              =   2.8344841077690E-03
(PID.TID 0000.0001) %MON seaice_hsnow_del2            =   3.3657048655281E-05
(PID.TID 0000.0001) // =======================================================
(PID.TID 0000.0001) // End MONITOR SEAICE statistics
(PID.TID 0000.0001) // =======================================================
 EXTERNAL_FIELDS_LOAD,     72006 : iP,iLd,i0,i1=   12    1   12    1 ; Wght=  0.3000000000  0.7000000000
 SEAICE_LSR: Residual Initial ipass,Uice,Vice=    1  5.27216674E-03  1.22153233E-02
 SEAICE_LSR (ipass=   1) iters,dU,Resid=   268  1.48388246E-13  3.40066784E-13
 SEAICE_LSR (ipass=   1) iters,dV,Resid=   268  9.65089120E-13  2.09976560E-12
 SEAICE_LSR: Residual Initial ipass,Uice,Vice=    2  1.93165664E-03  2.16252412E-03
 SEAICE_LSR (ipass=   2) iters,dU,Resid=   260  5.10909023E-13  1.17370339E-12
 SEAICE_LSR (ipass=   2) iters,dV,Resid=   260  8.88317198E-13  1.93732003E-12
 cg2d: Sum(rhs),rhsMax =   2.21438177679200E+03  1.95973470578305E+01
(PID.TID 0000.0001)      cg2d_init_res =   4.51172571028533E+00
(PID.TID 0000.0001)      cg2d_iters(min,last) =      -1      70
(PID.TID 0000.0001)      cg2d_last_res =   4.87330386158521E-07
(PID.TID 0000.0001) // =======================================================
(PID.TID 0000.0001) // Begin MONITOR dynamic field statistics
(PID.TID 0000.0001) // =======================================================
(PID.TID 0000.0001) %MON time_tsnumber                =                 72007
(PID.TID 0000.0001) %MON time_secondsf                =   6.2214048000000E+09
(PID.TID 0000.0001) %MON dynstat_eta_max              =  -2.2142240738345E+00
(PID.TID 0000.0001) %MON dynstat_eta_min              =  -8.3824286742376E+00
(PID.TID 0000.0001) %MON dynstat_eta_mean             =  -3.2935453035814E+00
(PID.TID 0000.0001) %MON dynstat_eta_sd               =   8.5839326131920E-01
(PID.TID 0000.0001) %MON dynstat_eta_del2             =   2.1100137637418E-03
(PID.TID 0000.0001) %MON dynstat_uvel_max             =   2.1404909854965E-01
(PID.TID 0000.0001) %MON dynstat_uvel_min             =  -2.8879368534677E-01
(PID.TID 0000.0001) %MON dynstat_uvel_mean            =  -5.2279566337547E-04
(PID.TID 0000.0001) %MON dynstat_uvel_sd              =   1.4763726694738E-02
(PID.TID 0000.0001) %MON dynstat_uvel_del2            =   6.7943661963693E-05
(PID.TID 0000.0001) %MON dynstat_vvel_max             =   2.1775715384168E-01
(PID.TID 0000.0001) %MON dynstat_vvel_min             =  -2.0104090090223E-01
(PID.TID 0000.0001) %MON dynstat_vvel_mean            =  -3.9384384521557E-04
(PID.TID 0000.0001) %MON dynstat_vvel_sd              =   1.5251605438298E-02
(PID.TID 0000.0001) %MON dynstat_vvel_del2            =   6.2908989536285E-05
(PID.TID 0000.0001) %MON dynstat_wvel_max             =   1.0481976871880E-04
(PID.TID 0000.0001) %MON dynstat_wvel_min             =  -2.1234371505752E-04
(PID.TID 0000.0001) %MON dynstat_wvel_mean            =   6.0595108307401E-10
(PID.TID 0000.0001) %MON dynstat_wvel_sd              =   5.3606584417665E-06
(PID.TID 0000.0001) %MON dynstat_wvel_del2            =   4.9459608029022E-08
(PID.TID 0000.0001) %MON dynstat_theta_max            =   3.1265347345013E+01
(PID.TID 0000.0001) %MON dynstat_theta_min            =  -6.6548537379119E+00
(PID.TID 0000.0001) %MON dynstat_theta_mean           =   3.0531696019944E+00
(PID.TID 0000.0001) %MON dynstat_theta_sd             =   4.9954088490336E+00
(PID.TID 0000.0001) %MON dynstat_theta_del2           =   3.0018706885142E-03
(PID.TID 0000.0001) %MON dynstat_salt_max             =   5.9530205252518E+01
(PID.TID 0000.0001) %MON dynstat_salt_min             =   1.7775855844566E+01
(PID.TID 0000.0001) %MON dynstat_salt_mean            =   3.4752467102408E+01
(PID.TID 0000.0001) %MON dynstat_salt_sd              =   4.8916712325639E-01
(PID.TID 0000.0001) %MON dynstat_salt_del2            =   1.3699961559115E-03
(PID.TID 0000.0001) %MON forcing_qnet_max             =   6.5537233654028E+02
(PID.TID 0000.0001) %MON forcing_qnet_min             =  -2.5261569828880E+02
(PID.TID 0000.0001) %MON forcing_qnet_mean            =  -1.5560281218109E+01
(PID.TID 0000.0001) %MON forcing_qnet_sd              =   1.2501827627558E+02
(PID.TID 0000.0001) %MON forcing_qnet_del2            =   9.0793732800491E-01
(PID.TID 0000.0001) %MON forcing_qsw_max              =   0.0000000000000E+00
(PID.TID 0000.0001) %MON forcing_qsw_min              =  -3.0184329151467E+02
(PID.TID 0000.0001) %MON forcing_qsw_mean             =  -1.8464605154839E+02
(PID.TID 0000.0001) %MON forcing_qsw_sd               =   7.9204532910718E+01
(PID.TID 0000.0001) %MON forcing_qsw_del2             =   2.3690692544119E-01
(PID.TID 0000.0001) %MON forcing_empmr_max            =   6.6605062472950E-04
(PID.TID 0000.0001) %MON forcing_empmr_min            =  -9.9009373319533E-04
(PID.TID 0000.0001) %MON forcing_empmr_mean           =   1.9522638264714E-06
(PID.TID 0000.0001) %MON forcing_empmr_sd             =   6.1229139011288E-05
(PID.TID 0000.0001) %MON forcing_empmr_del2           =   1.4804259971588E-06
(PID.TID 0000.0001) %MON forcing_fu_max               =   2.4731784009269E-01
(PID.TID 0000.0001) %MON forcing_fu_min               =  -2.8743750028508E-01
(PID.TID 0000.0001) %MON forcing_fu_mean              =  -4.5401015986096E-03
(PID.TID 0000.0001) %MON forcing_fu_sd                =   6.5525007094459E-02
(PID.TID 0000.0001) %MON forcing_fu_del2              =   2.5218614691324E-04
(PID.TID 0000.0001) %MON forcing_fv_max               =   2.6891042987167E-01
(PID.TID 0000.0001) %MON forcing_fv_min               =  -3.3164734762358E-01
(PID.TID 0000.0001) %MON forcing_fv_mean              =  -1.3378549391716E-02
(PID.TID 0000.0001) %MON forcing_fv_sd                =   7.6233066282212E-02
(PID.TID 0000.0001) %MON forcing_fv_del2              =   2.5720821498413E-04
(PID.TID 0000.0001) %MON trAdv_CFL_u_max              =   8.1448063581316E-02
(PID.TID 0000.0001) %MON trAdv_CFL_v_max              =   8.9329889896939E-02
(PID.TID 0000.0001) %MON trAdv_CFL_w_max              =   7.6596042351239E-02
(PID.TID 0000.0001) %MON advcfl_uvel_max              =   8.4872168556370E-02
(PID.TID 0000.0001) %MON advcfl_vvel_max              =   8.4071410487918E-02
(PID.TID 0000.0001) %MON advcfl_wvel_max              =   6.9232064079131E-02
(PID.TID 0000.0001) %MON advcfl_W_hf_max              =   7.6596042351239E-02
(PID.TID 0000.0001) %MON pe_b_mean                    =   1.4377129817887E-02
(PID.TID 0000.0001) %MON ke_max                       =   4.1065770824411E-02
(PID.TID 0000.0001) %MON ke_mean                      =   2.0824469625766E-04
(PID.TID 0000.0001) %MON ke_vol                       =   1.3386040272106E+18
(PID.TID 0000.0001) %MON vort_r_min                   =  -1.2619977358181E-06
(PID.TID 0000.0001) %MON vort_r_max                   =   1.2810830891568E-06
(PID.TID 0000.0001) %MON vort_a_mean                  =  -2.0549865324846E-05
(PID.TID 0000.0001) %MON vort_a_sd                    =   7.5259722847820E-05
(PID.TID 0000.0001) %MON vort_p_mean                  =  -2.4806292387682E-05
(PID.TID 0000.0001) %MON vort_p_sd                    =   1.2827533071861E-04
(PID.TID 0000.0001) %MON surfExpan_theta_mean         =   3.4685418116522E-08
(PID.TID 0000.0001) %MON surfExpan_salt_mean          =   2.1688409655727E-08
(PID.TID 0000.0001) // =======================================================
(PID.TID 0000.0001) // End MONITOR dynamic field statistics
(PID.TID 0000.0001) // =======================================================
(PID.TID 0000.0001) // =======================================================
(PID.TID 0000.0001) // Begin MONITOR SEAICE statistics
(PID.TID 0000.0001) // =======================================================
(PID.TID 0000.0001) %MON seaice_tsnumber              =                 72007
(PID.TID 0000.0001) %MON seaice_time_sec              =   6.2214048000000E+09
(PID.TID 0000.0001) %MON seaice_uice_max              =   4.0000000000000E-01
(PID.TID 0000.0001) %MON seaice_uice_min              =  -4.0000000000000E-01
(PID.TID 0000.0001) %MON seaice_uice_mean             =  -1.4215054834255E-02
(PID.TID 0000.0001) %MON seaice_uice_sd               =   1.4199165592123E-01
(PID.TID 0000.0001) %MON seaice_uice_del2             =   7.3025064884770E-04
(PID.TID 0000.0001) %MON seaice_vice_max              =   3.7342765213334E-01
(PID.TID 0000.0001) %MON seaice_vice_min              =  -4.0000000000000E-01
(PID.TID 0000.0001) %MON seaice_vice_mean             =  -3.7603565060133E-02
(PID.TID 0000.0001) %MON seaice_vice_sd               =   1.5737491336136E-01
(PID.TID 0000.0001) %MON seaice_vice_del2             =   7.1003457196331E-04
(PID.TID 0000.0001) %MON seaice_area_max              =   1.0000000000000E+00
(PID.TID 0000.0001) %MON seaice_area_min              =   0.0000000000000E+00
(PID.TID 0000.0001) %MON seaice_area_mean             =   4.0796918121753E-02
(PID.TID 0000.0001) %MON seaice_area_sd               =   1.9108963631262E-01
(PID.TID 0000.0001) %MON seaice_area_del2             =   1.5220594947187E-03
(PID.TID 0000.0001) %MON seaice_heff_max              =   5.2293656083774E+00
(PID.TID 0000.0001) %MON seaice_heff_min              =   0.0000000000000E+00
(PID.TID 0000.0001) %MON seaice_heff_mean             =   7.6599506294935E-02
(PID.TID 0000.0001) %MON seaice_heff_sd               =   4.0090137337751E-01
(PID.TID 0000.0001) %MON seaice_heff_del2             =   2.1217888794626E-03
(PID.TID 0000.0001) %MON seaice_hsnow_max             =   3.4130125969728E-02
(PID.TID 0000.0001) %MON seaice_hsnow_min             =   0.0000000000000E+00
(PID.TID 0000.0001) %MON seaice_hsnow_mean            =   5.8632816973879E-04
(PID.TID 0000.0001) %MON seaice_hsnow_sd              =   3.3121797285454E-03
(PID.TID 0000.0001) %MON seaice_hsnow_del2            =   3.8743506296148E-05
(PID.TID 0000.0001) // =======================================================
(PID.TID 0000.0001) // End MONITOR SEAICE statistics
(PID.TID 0000.0001) // =======================================================
 EXTERNAL_FIELDS_LOAD,     72007 : iP,iLd,i0,i1=   12    1   12    1 ; Wght=  0.2666666667  0.7333333333
 SEAICE_LSR: Residual Initial ipass,Uice,Vice=    1  5.15413565E-03  1.24329595E-02
 SEAICE_LSR (ipass=   1) iters,dU,Resid=   270  1.70575359E-13  3.96045786E-13
 SEAICE_LSR (ipass=   1) iters,dV,Resid=   270  9.30922006E-13  2.05216365E-12
 SEAICE_LSR: Residual Initial ipass,Uice,Vice=    2  1.93713428E-03  2.16979280E-03
 SEAICE_LSR (ipass=   2) iters,dU,Resid=   262  5.19240467E-13  1.20967889E-12
 SEAICE_LSR (ipass=   2) iters,dV,Resid=   262  8.73384698E-13  1.93221966E-12
 cg2d: Sum(rhs),rhsMax =   2.21451976618341E+03  1.93759905347168E+01
(PID.TID 0000.0001)      cg2d_init_res =   4.34376200188873E+00
(PID.TID 0000.0001)      cg2d_iters(min,last) =      -1      70
(PID.TID 0000.0001)      cg2d_last_res =   5.47503533596252E-07
(PID.TID 0000.0001) // =======================================================
(PID.TID 0000.0001) // Begin MONITOR dynamic field statistics
(PID.TID 0000.0001) // =======================================================
(PID.TID 0000.0001) %MON time_tsnumber                =                 72008
(PID.TID 0000.0001) %MON time_secondsf                =   6.2214912000000E+09
(PID.TID 0000.0001) %MON dynstat_eta_max              =  -2.2146157762176E+00
(PID.TID 0000.0001) %MON dynstat_eta_min              =  -8.3778983835789E+00
(PID.TID 0000.0001) %MON dynstat_eta_mean             =  -3.2937505411411E+00
(PID.TID 0000.0001) %MON dynstat_eta_sd               =   8.5799296678130E-01
(PID.TID 0000.0001) %MON dynstat_eta_del2             =   2.0832989998722E-03
(PID.TID 0000.0001) %MON dynstat_uvel_max             =   2.1418698216786E-01
(PID.TID 0000.0001) %MON dynstat_uvel_min             =  -2.8838016984095E-01
(PID.TID 0000.0001) %MON dynstat_uvel_mean            =  -5.2285898054634E-04
(PID.TID 0000.0001) %MON dynstat_uvel_sd              =   1.4759513081008E-02
(PID.TID 0000.0001) %MON dynstat_uvel_del2            =   6.7902968841817E-05
(PID.TID 0000.0001) %MON dynstat_vvel_max             =   2.1699700119569E-01
(PID.TID 0000.0001) %MON dynstat_vvel_min             =  -2.0108047997101E-01
(PID.TID 0000.0001) %MON dynstat_vvel_mean            =  -3.9227464933384E-04
(PID.TID 0000.0001) %MON dynstat_vvel_sd              =   1.5251817500823E-02
(PID.TID 0000.0001) %MON dynstat_vvel_del2            =   6.2863163228343E-05
(PID.TID 0000.0001) %MON dynstat_wvel_max             =   1.0546984342657E-04
(PID.TID 0000.0001) %MON dynstat_wvel_min             =  -2.1212264970972E-04
(PID.TID 0000.0001) %MON dynstat_wvel_mean            =   7.5767795959574E-10
(PID.TID 0000.0001) %MON dynstat_wvel_sd              =   5.3604648926627E-06
(PID.TID 0000.0001) %MON dynstat_wvel_del2            =   4.9432087540601E-08
(PID.TID 0000.0001) %MON dynstat_theta_max            =   3.1273725195672E+01
(PID.TID 0000.0001) %MON dynstat_theta_min            =  -6.6559210763779E+00
(PID.TID 0000.0001) %MON dynstat_theta_mean           =   3.0532569682266E+00
(PID.TID 0000.0001) %MON dynstat_theta_sd             =   4.9954751112619E+00
(PID.TID 0000.0001) %MON dynstat_theta_del2           =   3.0037276422833E-03
(PID.TID 0000.0001) %MON dynstat_salt_max             =   5.9528166060097E+01
(PID.TID 0000.0001) %MON dynstat_salt_min             =   1.7775853050289E+01
(PID.TID 0000.0001) %MON dynstat_salt_mean            =   3.4752468859608E+01
(PID.TID 0000.0001) %MON dynstat_salt_sd              =   4.8915523756410E-01
(PID.TID 0000.0001) %MON dynstat_salt_del2            =   1.3707329493624E-03
(PID.TID 0000.0001) %MON forcing_qnet_max             =   6.5703679480509E+02
(PID.TID 0000.0001) %MON forcing_qnet_min             =  -2.5262658832179E+02
(PID.TID 0000.0001) %MON forcing_qnet_mean            =  -1.5613565292586E+01
(PID.TID 0000.0001) %MON forcing_qnet_sd              =   1.2468684990571E+02
(PID.TID 0000.0001) %MON forcing_qnet_del2            =   8.7308308664601E-01
(PID.TID 0000.0001) %MON forcing_qsw_max              =   0.0000000000000E+00
(PID.TID 0000.0001) %MON forcing_qsw_min              =  -3.0183129457886E+02
(PID.TID 0000.0001) %MON forcing_qsw_mean             =  -1.8470179229842E+02
(PID.TID 0000.0001) %MON forcing_qsw_sd               =   7.9107718622932E+01
(PID.TID 0000.0001) %MON forcing_qsw_del2             =   2.2637279351559E-01
(PID.TID 0000.0001) %MON forcing_empmr_max            =   7.5956143929622E-04
(PID.TID 0000.0001) %MON forcing_empmr_min            =  -1.0037819862831E-03
(PID.TID 0000.0001) %MON forcing_empmr_mean           =   2.4585749333531E-06
(PID.TID 0000.0001) %MON forcing_empmr_sd             =   6.1017334047664E-05
(PID.TID 0000.0001) %MON forcing_empmr_del2           =   1.4809199073677E-06
(PID.TID 0000.0001) %MON forcing_fu_max               =   2.4726979082249E-01
(PID.TID 0000.0001) %MON forcing_fu_min               =  -2.8350313873683E-01
(PID.TID 0000.0001) %MON forcing_fu_mean              =  -4.4819166580318E-03
(PID.TID 0000.0001) %MON forcing_fu_sd                =   6.5619956111778E-02
(PID.TID 0000.0001) %MON forcing_fu_del2              =   2.5336018267092E-04
(PID.TID 0000.0001) %MON forcing_fv_max               =   2.7159367144430E-01
(PID.TID 0000.0001) %MON forcing_fv_min               =  -3.3243525155752E-01
(PID.TID 0000.0001) %MON forcing_fv_mean              =  -1.3389560968833E-02
(PID.TID 0000.0001) %MON forcing_fv_sd                =   7.6314937219596E-02
(PID.TID 0000.0001) %MON forcing_fv_del2              =   2.5806627315281E-04
(PID.TID 0000.0001) %MON trAdv_CFL_u_max              =   8.1331440824580E-02
(PID.TID 0000.0001) %MON trAdv_CFL_v_max              =   8.9360194571601E-02
(PID.TID 0000.0001) %MON trAdv_CFL_w_max              =   7.6516260893063E-02
(PID.TID 0000.0001) %MON advcfl_uvel_max              =   8.4995559806531E-02
(PID.TID 0000.0001) %MON advcfl_vvel_max              =   8.4100011530646E-02
(PID.TID 0000.0001) %MON advcfl_wvel_max              =   6.9159988433659E-02
(PID.TID 0000.0001) %MON advcfl_W_hf_max              =   7.6516260893063E-02
(PID.TID 0000.0001) %MON pe_b_mean                    =   1.4375768824786E-02
(PID.TID 0000.0001) %MON ke_max                       =   4.0932770375726E-02
(PID.TID 0000.0001) %MON ke_mean                      =   2.0819001375106E-04
(PID.TID 0000.0001) %MON ke_vol                       =   1.3386039679074E+18
(PID.TID 0000.0001) %MON vort_r_min                   =  -1.2679676309186E-06
(PID.TID 0000.0001) %MON vort_r_max                   =   1.2784985640710E-06
(PID.TID 0000.0001) %MON vort_a_mean                  =  -2.0549865324846E-05
(PID.TID 0000.0001) %MON vort_a_sd                    =   7.5259722531126E-05
(PID.TID 0000.0001) %MON vort_p_mean                  =  -2.4806293354039E-05
(PID.TID 0000.0001) %MON vort_p_sd                    =   1.2827532473208E-04
(PID.TID 0000.0001) %MON surfExpan_theta_mean         =   3.6236781331666E-08
(PID.TID 0000.0001) %MON surfExpan_salt_mean          =   2.2353614147639E-08
(PID.TID 0000.0001) // =======================================================
(PID.TID 0000.0001) // End MONITOR dynamic field statistics
(PID.TID 0000.0001) // =======================================================
(PID.TID 0000.0001) // =======================================================
(PID.TID 0000.0001) // Begin MONITOR SEAICE statistics
(PID.TID 0000.0001) // =======================================================
(PID.TID 0000.0001) %MON seaice_tsnumber              =                 72008
(PID.TID 0000.0001) %MON seaice_time_sec              =   6.2214912000000E+09
(PID.TID 0000.0001) %MON seaice_uice_max              =   4.0000000000000E-01
(PID.TID 0000.0001) %MON seaice_uice_min              =  -4.0000000000000E-01
(PID.TID 0000.0001) %MON seaice_uice_mean             =  -1.4118063209276E-02
(PID.TID 0000.0001) %MON seaice_uice_sd               =   1.4189835921318E-01
(PID.TID 0000.0001) %MON seaice_uice_del2             =   7.3192187727076E-04
(PID.TID 0000.0001) %MON seaice_vice_max              =   3.7628096728174E-01
(PID.TID 0000.0001) %MON seaice_vice_min              =  -4.0000000000000E-01
(PID.TID 0000.0001) %MON seaice_vice_mean             =  -3.7607964090412E-02
(PID.TID 0000.0001) %MON seaice_vice_sd               =   1.5752175219707E-01
(PID.TID 0000.0001) %MON seaice_vice_del2             =   7.1114714661363E-04
(PID.TID 0000.0001) %MON seaice_area_max              =   1.0000000000000E+00
(PID.TID 0000.0001) %MON seaice_area_min              =   0.0000000000000E+00
(PID.TID 0000.0001) %MON seaice_area_mean             =   4.0637612155379E-02
(PID.TID 0000.0001) %MON seaice_area_sd               =   1.9140594332313E-01
(PID.TID 0000.0001) %MON seaice_area_del2             =   1.4769777962715E-03
(PID.TID 0000.0001) %MON seaice_heff_max              =   5.2356460979007E+00
(PID.TID 0000.0001) %MON seaice_heff_min              =   0.0000000000000E+00
(PID.TID 0000.0001) %MON seaice_heff_mean             =   7.6746424132893E-02
(PID.TID 0000.0001) %MON seaice_heff_sd               =   4.0219571678435E-01
(PID.TID 0000.0001) %MON seaice_heff_del2             =   2.0886595383315E-03
(PID.TID 0000.0001) %MON seaice_hsnow_max             =   3.8964107989850E-02
(PID.TID 0000.0001) %MON seaice_hsnow_min             =   0.0000000000000E+00
(PID.TID 0000.0001) %MON seaice_hsnow_mean            =   6.7220091853594E-04
(PID.TID 0000.0001) %MON seaice_hsnow_sd              =   3.7938763512313E-03
(PID.TID 0000.0001) %MON seaice_hsnow_del2            =   4.3730123293245E-05
(PID.TID 0000.0001) // =======================================================
(PID.TID 0000.0001) // End MONITOR SEAICE statistics
(PID.TID 0000.0001) // =======================================================
 EXTERNAL_FIELDS_LOAD,     72008 : iP,iLd,i0,i1=   12    1   12    1 ; Wght=  0.2333333333  0.7666666667
 SEAICE_LSR: Residual Initial ipass,Uice,Vice=    1  5.06085581E-03  1.26752049E-02
 SEAICE_LSR (ipass=   1) iters,dU,Resid=   272  2.03440563E-13  4.80094484E-13
 SEAICE_LSR (ipass=   1) iters,dV,Resid=   272  9.57012247E-13  2.14602686E-12
 SEAICE_LSR: Residual Initial ipass,Uice,Vice=    2  1.94841220E-03  2.21137411E-03
 SEAICE_LSR (ipass=   2) iters,dU,Resid=   264  5.70882751E-13  1.35371638E-12
 SEAICE_LSR (ipass=   2) iters,dV,Resid=   264  9.10993503E-13  2.05329544E-12
 cg2d: Sum(rhs),rhsMax =   2.21466906135533E+03  1.91278595970123E+01
(PID.TID 0000.0001)      cg2d_init_res =   4.16311747913674E+00
(PID.TID 0000.0001)      cg2d_iters(min,last) =      -1      69
(PID.TID 0000.0001)      cg2d_last_res =   5.79226480214435E-07
(PID.TID 0000.0001) // =======================================================
(PID.TID 0000.0001) // Begin MONITOR dynamic field statistics
(PID.TID 0000.0001) // =======================================================
(PID.TID 0000.0001) %MON time_tsnumber                =                 72009
(PID.TID 0000.0001) %MON time_secondsf                =   6.2215776000000E+09
(PID.TID 0000.0001) %MON dynstat_eta_max              =  -2.2148607824915E+00
(PID.TID 0000.0001) %MON dynstat_eta_min              =  -8.3794337448395E+00
(PID.TID 0000.0001) %MON dynstat_eta_mean             =  -3.2939725942746E+00
(PID.TID 0000.0001) %MON dynstat_eta_sd               =   8.5766612992282E-01
(PID.TID 0000.0001) %MON dynstat_eta_del2             =   2.0621499627180E-03
(PID.TID 0000.0001) %MON dynstat_uvel_max             =   2.1447936075422E-01
(PID.TID 0000.0001) %MON dynstat_uvel_min             =  -2.8794758671405E-01
(PID.TID 0000.0001) %MON dynstat_uvel_mean            =  -5.2305897345241E-04
(PID.TID 0000.0001) %MON dynstat_uvel_sd              =   1.4755370733338E-02
(PID.TID 0000.0001) %MON dynstat_uvel_del2            =   6.7864390645118E-05
(PID.TID 0000.0001) %MON dynstat_vvel_max             =   2.1622237711015E-01
(PID.TID 0000.0001) %MON dynstat_vvel_min             =  -2.0111599072226E-01
(PID.TID 0000.0001) %MON dynstat_vvel_mean            =  -3.9082275503042E-04
(PID.TID 0000.0001) %MON dynstat_vvel_sd              =   1.5251654993423E-02
(PID.TID 0000.0001) %MON dynstat_vvel_del2            =   6.2819646086990E-05
(PID.TID 0000.0001) %MON dynstat_wvel_max             =   1.0611873604990E-04
(PID.TID 0000.0001) %MON dynstat_wvel_min             =  -2.1188026036457E-04
(PID.TID 0000.0001) %MON dynstat_wvel_mean            =   9.5670883576065E-10
(PID.TID 0000.0001) %MON dynstat_wvel_sd              =   5.3605549292213E-06
(PID.TID 0000.0001) %MON dynstat_wvel_del2            =   4.9397314620867E-08
(PID.TID 0000.0001) %MON dynstat_theta_max            =   3.1281537040087E+01
(PID.TID 0000.0001) %MON dynstat_theta_min            =  -6.6568614044030E+00
(PID.TID 0000.0001) %MON dynstat_theta_mean           =   3.0533441672419E+00
(PID.TID 0000.0001) %MON dynstat_theta_sd             =   4.9955423347852E+00
(PID.TID 0000.0001) %MON dynstat_theta_del2           =   3.0058390727833E-03
(PID.TID 0000.0001) %MON dynstat_salt_max             =   5.9526260919663E+01
(PID.TID 0000.0001) %MON dynstat_salt_min             =   1.7775840777440E+01
(PID.TID 0000.0001) %MON dynstat_salt_mean            =   3.4752470791365E+01
(PID.TID 0000.0001) %MON dynstat_salt_sd              =   4.8914329691142E-01
(PID.TID 0000.0001) %MON dynstat_salt_del2            =   1.3715622804273E-03
(PID.TID 0000.0001) %MON forcing_qnet_max             =   6.5868047962057E+02
(PID.TID 0000.0001) %MON forcing_qnet_min             =  -2.5262767992412E+02
(PID.TID 0000.0001) %MON forcing_qnet_mean            =  -1.5586177448590E+01
(PID.TID 0000.0001) %MON forcing_qnet_sd              =   1.2478748593834E+02
(PID.TID 0000.0001) %MON forcing_qnet_del2            =   8.8315038448822E-01
(PID.TID 0000.0001) %MON forcing_qsw_max              =   0.0000000000000E+00
(PID.TID 0000.0001) %MON forcing_qsw_min              =  -3.0181929764305E+02
(PID.TID 0000.0001) %MON forcing_qsw_mean             =  -1.8479354996227E+02
(PID.TID 0000.0001) %MON forcing_qsw_sd               =   7.9023548607347E+01
(PID.TID 0000.0001) %MON forcing_qsw_del2             =   2.1951641266297E-01
(PID.TID 0000.0001) %MON forcing_empmr_max            =   8.8429346682018E-04
(PID.TID 0000.0001) %MON forcing_empmr_min            =  -1.0157255556922E-03
(PID.TID 0000.0001) %MON forcing_empmr_mean           =   2.6600114952730E-06
(PID.TID 0000.0001) %MON forcing_empmr_sd             =   5.9886783366611E-05
(PID.TID 0000.0001) %MON forcing_empmr_del2           =   1.4924923133084E-06
(PID.TID 0000.0001) %MON forcing_fu_max               =   2.4722174155228E-01
(PID.TID 0000.0001) %MON forcing_fu_min               =  -2.8412545460445E-01
(PID.TID 0000.0001) %MON forcing_fu_mean              =  -4.4161899763973E-03
(PID.TID 0000.0001) %MON forcing_fu_sd                =   6.5724151996174E-02
(PID.TID 0000.0001) %MON forcing_fu_del2              =   2.5423411113513E-04
(PID.TID 0000.0001) %MON forcing_fv_max               =   2.7427691301694E-01
(PID.TID 0000.0001) %MON forcing_fv_min               =  -3.3322315549145E-01
(PID.TID 0000.0001) %MON forcing_fv_mean              =  -1.3406111130879E-02
(PID.TID 0000.0001) %MON forcing_fv_sd                =   7.6421294359771E-02
(PID.TID 0000.0001) %MON forcing_fv_del2              =   2.5930437641896E-04
(PID.TID 0000.0001) %MON trAdv_CFL_u_max              =   8.1209441136405E-02
(PID.TID 0000.0001) %MON trAdv_CFL_v_max              =   8.9368006560597E-02
(PID.TID 0000.0001) %MON trAdv_CFL_w_max              =   7.6428781745777E-02
(PID.TID 0000.0001) %MON advcfl_uvel_max              =   8.5111584045594E-02
(PID.TID 0000.0001) %MON advcfl_vvel_max              =   8.4107445356584E-02
(PID.TID 0000.0001) %MON advcfl_wvel_max              =   6.9080960360374E-02
(PID.TID 0000.0001) %MON advcfl_W_hf_max              =   7.6428781745777E-02
(PID.TID 0000.0001) %MON pe_b_mean                    =   1.4374456313674E-02
(PID.TID 0000.0001) %MON ke_max                       =   4.0795242647599E-02
(PID.TID 0000.0001) %MON ke_mean                      =   2.0813112516237E-04
(PID.TID 0000.0001) %MON ke_vol                       =   1.3386038932242E+18
(PID.TID 0000.0001) %MON vort_r_min                   =  -1.2740584272075E-06
(PID.TID 0000.0001) %MON vort_r_max                   =   1.2760036104463E-06
(PID.TID 0000.0001) %MON vort_a_mean                  =  -2.0549865324846E-05
(PID.TID 0000.0001) %MON vort_a_sd                    =   7.5259722186300E-05
(PID.TID 0000.0001) %MON vort_p_mean                  =  -2.4806294620990E-05
(PID.TID 0000.0001) %MON vort_p_sd                    =   1.2827532017435E-04
(PID.TID 0000.0001) %MON surfExpan_theta_mean         =   3.8976580835500E-08
(PID.TID 0000.0001) %MON surfExpan_salt_mean          =   2.2659277292687E-08
(PID.TID 0000.0001) // =======================================================
(PID.TID 0000.0001) // End MONITOR dynamic field statistics
(PID.TID 0000.0001) // =======================================================
(PID.TID 0000.0001) // =======================================================
(PID.TID 0000.0001) // Begin MONITOR SEAICE statistics
(PID.TID 0000.0001) // =======================================================
(PID.TID 0000.0001) %MON seaice_tsnumber              =                 72009
(PID.TID 0000.0001) %MON seaice_time_sec              =   6.2215776000000E+09
(PID.TID 0000.0001) %MON seaice_uice_max              =   4.0000000000000E-01
(PID.TID 0000.0001) %MON seaice_uice_min              =  -4.0000000000000E-01
(PID.TID 0000.0001) %MON seaice_uice_mean             =  -1.4004697887754E-02
(PID.TID 0000.0001) %MON seaice_uice_sd               =   1.4180390066968E-01
(PID.TID 0000.0001) %MON seaice_uice_del2             =   7.3387892680389E-04
(PID.TID 0000.0001) %MON seaice_vice_max              =   3.7920583317745E-01
(PID.TID 0000.0001) %MON seaice_vice_min              =  -4.0000000000000E-01
(PID.TID 0000.0001) %MON seaice_vice_mean             =  -3.7605287983343E-02
(PID.TID 0000.0001) %MON seaice_vice_sd               =   1.5766977570222E-01
(PID.TID 0000.0001) %MON seaice_vice_del2             =   7.1253608985489E-04
(PID.TID 0000.0001) %MON seaice_area_max              =   1.0000000000000E+00
(PID.TID 0000.0001) %MON seaice_area_min              =   0.0000000000000E+00
(PID.TID 0000.0001) %MON seaice_area_mean             =   4.0729733353266E-02
(PID.TID 0000.0001) %MON seaice_area_sd               =   1.9175547776436E-01
(PID.TID 0000.0001) %MON seaice_area_del2             =   1.4447748143030E-03
(PID.TID 0000.0001) %MON seaice_heff_max              =   5.2419109500373E+00
(PID.TID 0000.0001) %MON seaice_heff_min              =   0.0000000000000E+00
(PID.TID 0000.0001) %MON seaice_heff_mean             =   7.6906621740251E-02
(PID.TID 0000.0001) %MON seaice_heff_sd               =   4.0346220594005E-01
(PID.TID 0000.0001) %MON seaice_heff_del2             =   2.0633885407438E-03
(PID.TID 0000.0001) %MON seaice_hsnow_max             =   4.3766824779641E-02
(PID.TID 0000.0001) %MON seaice_hsnow_min             =   0.0000000000000E+00
(PID.TID 0000.0001) %MON seaice_hsnow_mean            =   7.5902111829886E-04
(PID.TID 0000.0001) %MON seaice_hsnow_sd              =   4.2763796268704E-03
(PID.TID 0000.0001) %MON seaice_hsnow_del2            =   4.8594069567111E-05
(PID.TID 0000.0001) // =======================================================
(PID.TID 0000.0001) // End MONITOR SEAICE statistics
(PID.TID 0000.0001) // =======================================================
 EXTERNAL_FIELDS_LOAD,     72009 : iP,iLd,i0,i1=   12    1   12    1 ; Wght=  0.2000000000  0.8000000000
 SEAICE_LSR: Residual Initial ipass,Uice,Vice=    1  5.01264205E-03  1.29365013E-02
 SEAICE_LSR (ipass=   1) iters,dU,Resid=   276  2.21600516E-13  5.34071329E-13
 SEAICE_LSR (ipass=   1) iters,dV,Resid=   276  9.24399446E-13  2.11892587E-12
 SEAICE_LSR: Residual Initial ipass,Uice,Vice=    2  1.98152156E-03  2.28624809E-03
 SEAICE_LSR (ipass=   2) iters,dU,Resid=   268  5.96454310E-13  1.44724884E-12
 SEAICE_LSR (ipass=   2) iters,dV,Resid=   268  8.96976937E-13  2.07086568E-12
 cg2d: Sum(rhs),rhsMax =   2.21482958317078E+03  1.88070898032138E+01
(PID.TID 0000.0001)      cg2d_init_res =   4.16105271071955E+00
(PID.TID 0000.0001)      cg2d_iters(min,last) =      -1      70
(PID.TID 0000.0001)      cg2d_last_res =   4.63622823385098E-07
(PID.TID 0000.0001) // =======================================================
(PID.TID 0000.0001) // Begin MONITOR dynamic field statistics
(PID.TID 0000.0001) // =======================================================
(PID.TID 0000.0001) %MON time_tsnumber                =                 72010
(PID.TID 0000.0001) %MON time_secondsf                =   6.2216640000000E+09
(PID.TID 0000.0001) %MON dynstat_eta_max              =  -2.2150201301726E+00
(PID.TID 0000.0001) %MON dynstat_eta_min              =  -8.3856919945990E+00
(PID.TID 0000.0001) %MON dynstat_eta_mean             =  -3.2942113452781E+00
(PID.TID 0000.0001) %MON dynstat_eta_sd               =   8.5739652135455E-01
(PID.TID 0000.0001) %MON dynstat_eta_del2             =   2.0436367200001E-03
(PID.TID 0000.0001) %MON dynstat_uvel_max             =   2.1475116296539E-01
(PID.TID 0000.0001) %MON dynstat_uvel_min             =  -2.8749503025625E-01
(PID.TID 0000.0001) %MON dynstat_uvel_mean            =  -5.2329818012187E-04
(PID.TID 0000.0001) %MON dynstat_uvel_sd              =   1.4751353960186E-02
(PID.TID 0000.0001) %MON dynstat_uvel_del2            =   6.7828328350982E-05
(PID.TID 0000.0001) %MON dynstat_vvel_max             =   2.1544055777571E-01
(PID.TID 0000.0001) %MON dynstat_vvel_min             =  -2.0114766091357E-01
(PID.TID 0000.0001) %MON dynstat_vvel_mean            =  -3.8946136011509E-04
(PID.TID 0000.0001) %MON dynstat_vvel_sd              =   1.5251094410337E-02
(PID.TID 0000.0001) %MON dynstat_vvel_del2            =   6.2778381936913E-05
(PID.TID 0000.0001) %MON dynstat_wvel_max             =   1.0675606095252E-04
(PID.TID 0000.0001) %MON dynstat_wvel_min             =  -2.1162036622917E-04
(PID.TID 0000.0001) %MON dynstat_wvel_mean            =   9.8300863230506E-10
(PID.TID 0000.0001) %MON dynstat_wvel_sd              =   5.3610060813612E-06
(PID.TID 0000.0001) %MON dynstat_wvel_del2            =   4.9356866161560E-08
(PID.TID 0000.0001) %MON dynstat_theta_max            =   3.1288792366050E+01
(PID.TID 0000.0001) %MON dynstat_theta_min            =  -6.6576760566089E+00
(PID.TID 0000.0001) %MON dynstat_theta_mean           =   3.0534308158142E+00
(PID.TID 0000.0001) %MON dynstat_theta_sd             =   4.9956111197422E+00
(PID.TID 0000.0001) %MON dynstat_theta_del2           =   3.0070752533494E-03
(PID.TID 0000.0001) %MON dynstat_salt_max             =   5.9525326184723E+01
(PID.TID 0000.0001) %MON dynstat_salt_min             =   1.7775819590342E+01
(PID.TID 0000.0001) %MON dynstat_salt_mean            =   3.4752472876773E+01
(PID.TID 0000.0001) %MON dynstat_salt_sd              =   4.8913135210142E-01
(PID.TID 0000.0001) %MON dynstat_salt_del2            =   1.3722081518362E-03
(PID.TID 0000.0001) %MON forcing_qnet_max             =   6.6030447524588E+02
(PID.TID 0000.0001) %MON forcing_qnet_min             =  -2.5261865187146E+02
(PID.TID 0000.0001) %MON forcing_qnet_mean            =  -1.5484619961518E+01
(PID.TID 0000.0001) %MON forcing_qnet_sd              =   1.2462688139915E+02
(PID.TID 0000.0001) %MON forcing_qnet_del2            =   8.8953224221044E-01
(PID.TID 0000.0001) %MON forcing_qsw_max              =   0.0000000000000E+00
(PID.TID 0000.0001) %MON forcing_qsw_min              =  -3.0180730070724E+02
(PID.TID 0000.0001) %MON forcing_qsw_mean             =  -1.8482949079851E+02
(PID.TID 0000.0001) %MON forcing_qsw_sd               =   7.8932658464450E+01
(PID.TID 0000.0001) %MON forcing_qsw_del2             =   2.1187150113130E-01
(PID.TID 0000.0001) %MON forcing_empmr_max            =   7.2958237026104E-04
(PID.TID 0000.0001) %MON forcing_empmr_min            =  -1.0264811412151E-03
(PID.TID 0000.0001) %MON forcing_empmr_mean           =   2.8600380630565E-06
(PID.TID 0000.0001) %MON forcing_empmr_sd             =   5.9009089058270E-05
(PID.TID 0000.0001) %MON forcing_empmr_del2           =   1.4308492622734E-06
(PID.TID 0000.0001) %MON forcing_fu_max               =   2.4734156444157E-01
(PID.TID 0000.0001) %MON forcing_fu_min               =  -2.8490004976214E-01
(PID.TID 0000.0001) %MON forcing_fu_mean              =  -4.3416823915238E-03
(PID.TID 0000.0001) %MON forcing_fu_sd                =   6.5846341105790E-02
(PID.TID 0000.0001) %MON forcing_fu_del2              =   2.5583597851732E-04
(PID.TID 0000.0001) %MON forcing_fv_max               =   2.7696015458957E-01
(PID.TID 0000.0001) %MON forcing_fv_min               =  -3.3401105942538E-01
(PID.TID 0000.0001) %MON forcing_fv_mean              =  -1.3425144678586E-02
(PID.TID 0000.0001) %MON forcing_fv_sd                =   7.6541857131125E-02
(PID.TID 0000.0001) %MON forcing_fv_del2              =   2.6092832743884E-04
(PID.TID 0000.0001) %MON trAdv_CFL_u_max              =   8.1081808877767E-02
(PID.TID 0000.0001) %MON trAdv_CFL_v_max              =   8.9353614677888E-02
(PID.TID 0000.0001) %MON trAdv_CFL_w_max              =   7.6334981521323E-02
(PID.TID 0000.0001) %MON advcfl_uvel_max              =   8.5219442986699E-02
(PID.TID 0000.0001) %MON advcfl_vvel_max              =   8.4093982554246E-02
(PID.TID 0000.0001) %MON advcfl_wvel_max              =   6.8996225064907E-02
(PID.TID 0000.0001) %MON advcfl_W_hf_max              =   7.6334981521323E-02
(PID.TID 0000.0001) %MON pe_b_mean                    =   1.4373168405977E-02
(PID.TID 0000.0001) %MON ke_max                       =   4.0652853305861E-02
(PID.TID 0000.0001) %MON ke_mean                      =   2.0806837585249E-04
(PID.TID 0000.0001) %MON ke_vol                       =   1.3386038124220E+18
(PID.TID 0000.0001) %MON vort_r_min                   =  -1.2802368319870E-06
(PID.TID 0000.0001) %MON vort_r_max                   =   1.2735973891430E-06
(PID.TID 0000.0001) %MON vort_a_mean                  =  -2.0549865324846E-05
(PID.TID 0000.0001) %MON vort_a_sd                    =   7.5259721840650E-05
(PID.TID 0000.0001) %MON vort_p_mean                  =  -2.4806296047796E-05
(PID.TID 0000.0001) %MON vort_p_sd                    =   1.2827531304912E-04
(PID.TID 0000.0001) %MON surfExpan_theta_mean         =   4.0906041015747E-08
(PID.TID 0000.0001) %MON surfExpan_salt_mean          =   2.2757649734893E-08
(PID.TID 0000.0001) // =======================================================
(PID.TID 0000.0001) // End MONITOR dynamic field statistics
(PID.TID 0000.0001) // =======================================================
(PID.TID 0000.0001) // =======================================================
(PID.TID 0000.0001) // Begin MONITOR SEAICE statistics
(PID.TID 0000.0001) // =======================================================
(PID.TID 0000.0001) %MON seaice_tsnumber              =                 72010
(PID.TID 0000.0001) %MON seaice_time_sec              =   6.2216640000000E+09
(PID.TID 0000.0001) %MON seaice_uice_max              =   4.0000000000000E-01
(PID.TID 0000.0001) %MON seaice_uice_min              =  -4.0000000000000E-01
(PID.TID 0000.0001) %MON seaice_uice_mean             =  -1.3877154394844E-02
(PID.TID 0000.0001) %MON seaice_uice_sd               =   1.4170787529355E-01
(PID.TID 0000.0001) %MON seaice_uice_del2             =   7.3630664568759E-04
(PID.TID 0000.0001) %MON seaice_vice_max              =   3.8219306311036E-01
(PID.TID 0000.0001) %MON seaice_vice_min              =  -4.0000000000000E-01
(PID.TID 0000.0001) %MON seaice_vice_mean             =  -3.7602904886227E-02
(PID.TID 0000.0001) %MON seaice_vice_sd               =   1.5781404053600E-01
(PID.TID 0000.0001) %MON seaice_vice_del2             =   7.1425150491957E-04
(PID.TID 0000.0001) %MON seaice_area_max              =   1.0000000000000E+00
(PID.TID 0000.0001) %MON seaice_area_min              =   0.0000000000000E+00
(PID.TID 0000.0001) %MON seaice_area_mean             =   4.0770523816405E-02
(PID.TID 0000.0001) %MON seaice_area_sd               =   1.9203387020577E-01
(PID.TID 0000.0001) %MON seaice_area_del2             =   1.4238725190780E-03
(PID.TID 0000.0001) %MON seaice_heff_max              =   5.2481629526041E+00
(PID.TID 0000.0001) %MON seaice_heff_min              =   0.0000000000000E+00
(PID.TID 0000.0001) %MON seaice_heff_mean             =   7.7079294785350E-02
(PID.TID 0000.0001) %MON seaice_heff_sd               =   4.0473971309528E-01
(PID.TID 0000.0001) %MON seaice_heff_del2             =   2.0416402437535E-03
(PID.TID 0000.0001) %MON seaice_hsnow_max             =   4.8556637328201E-02
(PID.TID 0000.0001) %MON seaice_hsnow_min             =   0.0000000000000E+00
(PID.TID 0000.0001) %MON seaice_hsnow_mean            =   8.4717676920523E-04
(PID.TID 0000.0001) %MON seaice_hsnow_sd              =   4.7597399851448E-03
(PID.TID 0000.0001) %MON seaice_hsnow_del2            =   5.3086070300572E-05
(PID.TID 0000.0001) // =======================================================
(PID.TID 0000.0001) // End MONITOR SEAICE statistics
(PID.TID 0000.0001) // =======================================================
 Compute Stats, Diag. #     23  ETAN      vol(   0 ): 3.639E+15  Parms: SM      M1      
 Compute Stats, Diag. #     30  UVEL      vol(   0 ): 1.230E+19  Parms: UUR     MR      
 Compute Stats, Diag. #     31  VVEL      vol(   0 ): 1.242E+19  Parms: VVR     MR      
 Compute Stats, Diag. #     32  WVEL      vol(   0 ): 1.315E+19  Parms: WM      LR      
 Compute Stats, Diag. #     26  THETA     vol(   0 ): 1.339E+19  Parms: SMR     MR      
 Compute Stats, Diag. #     27  SALT      vol(   0 ): 1.339E+19  Parms: SMR     MR      
 Compute Stats, Diag. #     80  CONVADJ   vol(   0 ): 1.315E+19  Parms: SMR     LR      
 Compute Stats, Diag. #     25  DETADT2   vol(   0 ): 3.639E+15  Parms: SM      M1      
 Compute Stats, Diag. #    241  SIheff    vol(   0 ): 3.639E+15  Parms: SM      M1      
 Compute Stats, Diag. #    241  SIheff    vol(   1 ): 1.289E+15  Parms: SM      M1      
 Compute Stats, Diag. #    241  SIheff    vol(   3 ): 7.935E+14  Parms: SM      M1      
 Compute Stats, Diag. #    238  SIarea    vol(   0 ): 3.639E+15  Parms: SM      M1      
 Compute Stats, Diag. #    238  SIarea    vol(   1 ): 1.289E+15  Parms: SM      M1      
 Compute Stats, Diag. #    238  SIarea    vol(   3 ): 7.935E+14  Parms: SM      M1      
 Compute Stats, Diag. #    243  SIhsnow   vol(   0 ): 3.639E+15  Parms: SM      M1      
 Compute Stats, Diag. #    243  SIhsnow   vol(   1 ): 1.289E+15  Parms: SM      M1      
 Compute Stats, Diag. #    243  SIhsnow   vol(   3 ): 7.935E+14  Parms: SM      M1      
 Compute Stats, Diag. #    247  SIuice    vol(   0 ): 3.457E+15  Parms: UU      M1      
 Compute Stats, Diag. #    247  SIuice    vol(   1 ): 1.262E+15  Parms: UU      M1      
 Compute Stats, Diag. #    247  SIuice    vol(   3 ): 7.592E+14  Parms: UU      M1      
 Compute Stats, Diag. #    248  SIvice    vol(   0 ): 3.478E+15  Parms: VV      M1      
 Compute Stats, Diag. #    248  SIvice    vol(   1 ): 1.293E+15  Parms: VV      M1      
 Compute Stats, Diag. #    248  SIvice    vol(   3 ): 7.207E+14  Parms: VV      M1      
(PID.TID 0000.0001) DIAGSTATS_CLOSE_IO: close file: dynStDiag.0000072000.txt , unit=     9
(PID.TID 0000.0001) DIAGSTATS_CLOSE_IO: close file: seaiceStDiag.0000072000.txt , unit=    10
(PID.TID 0000.0001) %CHECKPOINT     72010 ckptA
(PID.TID 0000.0001)   Seconds in section "ALL                    [THE_MODEL_MAIN]":
(PID.TID 0000.0001)           User time:   47.307809441350400
(PID.TID 0000.0001)         System time:  8.69869964662939310E-002
(PID.TID 0000.0001)     Wall clock time:   47.499665021896362
(PID.TID 0000.0001)          No. starts:           1
(PID.TID 0000.0001)           No. stops:           1
(PID.TID 0000.0001)   Seconds in section "INITIALISE_FIXED       [THE_MODEL_MAIN]":
(PID.TID 0000.0001)           User time:  0.26195999886840582
(PID.TID 0000.0001)         System time:  1.89970007631927729E-002
(PID.TID 0000.0001)     Wall clock time:  0.28247618675231934
(PID.TID 0000.0001)          No. starts:           1
(PID.TID 0000.0001)           No. stops:           1
(PID.TID 0000.0001)   Seconds in section "THE_MAIN_LOOP          [THE_MODEL_MAIN]":
(PID.TID 0000.0001)           User time:   47.045849442481995
(PID.TID 0000.0001)         System time:  6.79899957031011581E-002
(PID.TID 0000.0001)     Wall clock time:   47.217150926589966
(PID.TID 0000.0001)          No. starts:           1
(PID.TID 0000.0001)           No. stops:           1
(PID.TID 0000.0001)   Seconds in section "INITIALISE_VARIA    [THE_MAIN_LOOP]":
(PID.TID 0000.0001)           User time:  0.63790297508239746
(PID.TID 0000.0001)         System time:  4.09940015524625778E-002
(PID.TID 0000.0001)     Wall clock time:  0.67996597290039063
(PID.TID 0000.0001)          No. starts:           1
(PID.TID 0000.0001)           No. stops:           1
(PID.TID 0000.0001)   Seconds in section "MAIN LOOP           [THE_MAIN_LOOP]":
(PID.TID 0000.0001)           User time:   46.407946467399597
(PID.TID 0000.0001)         System time:  2.69959941506385803E-002
(PID.TID 0000.0001)     Wall clock time:   46.537155151367188
(PID.TID 0000.0001)          No. starts:           1
(PID.TID 0000.0001)           No. stops:           1
(PID.TID 0000.0001)   Seconds in section "MAIN_DO_LOOP        [THE_MAIN_LOOP]":
(PID.TID 0000.0001)           User time:   46.407946467399597
(PID.TID 0000.0001)         System time:  2.69959941506385803E-002
(PID.TID 0000.0001)     Wall clock time:   46.537055730819702
(PID.TID 0000.0001)          No. starts:          10
(PID.TID 0000.0001)           No. stops:          10
(PID.TID 0000.0001)   Seconds in section "FORWARD_STEP        [MAIN_DO_LOOP]":
(PID.TID 0000.0001)           User time:   46.407946467399597
(PID.TID 0000.0001)         System time:  2.69959941506385803E-002
(PID.TID 0000.0001)     Wall clock time:   46.536877155303955
(PID.TID 0000.0001)          No. starts:          10
(PID.TID 0000.0001)           No. stops:          10
(PID.TID 0000.0001)   Seconds in section "UPDATE_R_STAR       [FORWARD_STEP]":
(PID.TID 0000.0001)           User time:  0.61490058898925781
(PID.TID 0000.0001)         System time:   0.0000000000000000
(PID.TID 0000.0001)     Wall clock time:  0.61287426948547363
(PID.TID 0000.0001)          No. starts:          20
(PID.TID 0000.0001)           No. stops:          20
(PID.TID 0000.0001)   Seconds in section "DO_STATEVARS_DIAGS  [FORWARD_STEP]":
(PID.TID 0000.0001)           User time:  0.54792028665542603
(PID.TID 0000.0001)         System time:   0.0000000000000000
(PID.TID 0000.0001)     Wall clock time:  0.55009913444519043
(PID.TID 0000.0001)          No. starts:          30
(PID.TID 0000.0001)           No. stops:          30
(PID.TID 0000.0001)   Seconds in section "LOAD_FIELDS_DRIVER  [FORWARD_STEP]":
(PID.TID 0000.0001)           User time:  0.25396138429641724
(PID.TID 0000.0001)         System time:   0.0000000000000000
(PID.TID 0000.0001)     Wall clock time:  0.25553917884826660
(PID.TID 0000.0001)          No. starts:          10
(PID.TID 0000.0001)           No. stops:          10
(PID.TID 0000.0001)   Seconds in section "EXF_GETFORCING     [LOAD_FLDS_DRIVER]":
(PID.TID 0000.0001)           User time:  0.24396294355392456
(PID.TID 0000.0001)         System time:   0.0000000000000000
(PID.TID 0000.0001)     Wall clock time:  0.24536299705505371
(PID.TID 0000.0001)          No. starts:          10
(PID.TID 0000.0001)           No. stops:          10
(PID.TID 0000.0001)   Seconds in section "EXTERNAL_FLDS_LOAD [LOAD_FLDS_DRIVER]":
(PID.TID 0000.0001)           User time:  8.99899005889892578E-003
(PID.TID 0000.0001)         System time:   0.0000000000000000
(PID.TID 0000.0001)     Wall clock time:  9.89151000976562500E-003
(PID.TID 0000.0001)          No. starts:          10
(PID.TID 0000.0001)           No. stops:          10
(PID.TID 0000.0001)   Seconds in section "DO_ATMOSPHERIC_PHYS [FORWARD_STEP]":
(PID.TID 0000.0001)           User time:  9.99450683593750000E-004
(PID.TID 0000.0001)         System time:   0.0000000000000000
(PID.TID 0000.0001)     Wall clock time:  9.91821289062500000E-005
(PID.TID 0000.0001)          No. starts:          10
(PID.TID 0000.0001)           No. stops:          10
(PID.TID 0000.0001)   Seconds in section "DO_OCEANIC_PHYS     [FORWARD_STEP]":
(PID.TID 0000.0001)           User time:   29.128574013710022
(PID.TID 0000.0001)         System time:  1.00000202655792236E-003
(PID.TID 0000.0001)     Wall clock time:   29.195923328399658
(PID.TID 0000.0001)          No. starts:          10
(PID.TID 0000.0001)           No. stops:          10
(PID.TID 0000.0001)   Seconds in section "SEAICE_MODEL    [DO_OCEANIC_PHYS]":
(PID.TID 0000.0001)           User time:   26.733934164047241
(PID.TID 0000.0001)         System time:  1.00000202655792236E-003
(PID.TID 0000.0001)     Wall clock time:   26.793558835983276
(PID.TID 0000.0001)          No. starts:          10
(PID.TID 0000.0001)           No. stops:          10
(PID.TID 0000.0001)   Seconds in section "SEAICE_DYNSOLVER   [SEAICE_MODEL]":
(PID.TID 0000.0001)           User time:   26.116030335426331
(PID.TID 0000.0001)         System time:  1.00000202655792236E-003
(PID.TID 0000.0001)     Wall clock time:   26.175096035003662
(PID.TID 0000.0001)          No. starts:          10
(PID.TID 0000.0001)           No. stops:          10
(PID.TID 0000.0001)   Seconds in section "DYNAMICS            [FORWARD_STEP]":
(PID.TID 0000.0001)           User time:   5.6161465644836426
(PID.TID 0000.0001)         System time:  1.39980018138885498E-002
(PID.TID 0000.0001)     Wall clock time:   5.6411178112030029
(PID.TID 0000.0001)          No. starts:          10
(PID.TID 0000.0001)           No. stops:          10
(PID.TID 0000.0001)   Seconds in section "UPDATE_CG2D         [FORWARD_STEP]":
(PID.TID 0000.0001)           User time:  0.12198162078857422
(PID.TID 0000.0001)         System time:  9.99994575977325439E-004
(PID.TID 0000.0001)     Wall clock time:  0.12222933769226074
(PID.TID 0000.0001)          No. starts:          10
(PID.TID 0000.0001)           No. stops:          10
(PID.TID 0000.0001)   Seconds in section "SOLVE_FOR_PRESSURE  [FORWARD_STEP]":
(PID.TID 0000.0001)           User time:   2.0206868648529053
(PID.TID 0000.0001)         System time:   0.0000000000000000
(PID.TID 0000.0001)     Wall clock time:   2.0228049755096436
(PID.TID 0000.0001)          No. starts:          10
(PID.TID 0000.0001)           No. stops:          10
(PID.TID 0000.0001)   Seconds in section "MOM_CORRECTION_STEP [FORWARD_STEP]":
(PID.TID 0000.0001)           User time:  0.28796672821044922
(PID.TID 0000.0001)         System time:   0.0000000000000000
(PID.TID 0000.0001)     Wall clock time:  0.28733372688293457
(PID.TID 0000.0001)          No. starts:          10
(PID.TID 0000.0001)           No. stops:          10
(PID.TID 0000.0001)   Seconds in section "INTEGR_CONTINUITY   [FORWARD_STEP]":
(PID.TID 0000.0001)           User time:  0.35194158554077148
(PID.TID 0000.0001)         System time:  1.99900567531585693E-003
(PID.TID 0000.0001)     Wall clock time:  0.35942554473876953
(PID.TID 0000.0001)          No. starts:          10
(PID.TID 0000.0001)           No. stops:          10
(PID.TID 0000.0001)   Seconds in section "CALC_R_STAR         [FORWARD_STEP]":
(PID.TID 0000.0001)           User time:  6.49919509887695313E-002
(PID.TID 0000.0001)         System time:   0.0000000000000000
(PID.TID 0000.0001)     Wall clock time:  6.36699199676513672E-002
(PID.TID 0000.0001)          No. starts:          10
(PID.TID 0000.0001)           No. stops:          10
(PID.TID 0000.0001)   Seconds in section "BLOCKING_EXCHANGES  [FORWARD_STEP]":
(PID.TID 0000.0001)           User time:  0.33694887161254883
(PID.TID 0000.0001)         System time:   0.0000000000000000
(PID.TID 0000.0001)     Wall clock time:  0.34009122848510742
(PID.TID 0000.0001)          No. starts:          20
(PID.TID 0000.0001)           No. stops:          20
(PID.TID 0000.0001)   Seconds in section "THERMODYNAMICS      [FORWARD_STEP]":
(PID.TID 0000.0001)           User time:   5.2452025413513184
(PID.TID 0000.0001)         System time:  1.99999660253524780E-003
(PID.TID 0000.0001)     Wall clock time:   5.2584018707275391
(PID.TID 0000.0001)          No. starts:          10
(PID.TID 0000.0001)           No. stops:          10
(PID.TID 0000.0001)   Seconds in section "TRC_CORRECTION_STEP [FORWARD_STEP]":
(PID.TID 0000.0001)           User time:   0.0000000000000000
(PID.TID 0000.0001)         System time:   0.0000000000000000
(PID.TID 0000.0001)     Wall clock time:  1.20639801025390625E-004
(PID.TID 0000.0001)          No. starts:          10
(PID.TID 0000.0001)           No. stops:          10
(PID.TID 0000.0001)   Seconds in section "DO_STATEVARS_TAVE   [FORWARD_STEP]":
(PID.TID 0000.0001)           User time:   0.0000000000000000
(PID.TID 0000.0001)         System time:   0.0000000000000000
(PID.TID 0000.0001)     Wall clock time:  9.70363616943359375E-005
(PID.TID 0000.0001)          No. starts:          10
(PID.TID 0000.0001)           No. stops:          10
(PID.TID 0000.0001)   Seconds in section "MONITOR             [FORWARD_STEP]":
(PID.TID 0000.0001)           User time:   1.6377506256103516
(PID.TID 0000.0001)         System time:   0.0000000000000000
(PID.TID 0000.0001)     Wall clock time:   1.6381108760833740
(PID.TID 0000.0001)          No. starts:          10
(PID.TID 0000.0001)           No. stops:          10
(PID.TID 0000.0001)   Seconds in section "DO_THE_MODEL_IO     [FORWARD_STEP]":
(PID.TID 0000.0001)           User time:  0.10898399353027344
(PID.TID 0000.0001)         System time:  2.99900025129318237E-003
(PID.TID 0000.0001)     Wall clock time:  0.11460900306701660
(PID.TID 0000.0001)          No. starts:          10
(PID.TID 0000.0001)           No. stops:          10
(PID.TID 0000.0001)   Seconds in section "DO_WRITE_PICKUP     [FORWARD_STEP]":
(PID.TID 0000.0001)           User time:  6.59904479980468750E-002
(PID.TID 0000.0001)         System time:  3.99999320507049561E-003
(PID.TID 0000.0001)     Wall clock time:  7.06436634063720703E-002
(PID.TID 0000.0001)          No. starts:          10
(PID.TID 0000.0001)           No. stops:          10
(PID.TID 0000.0001) // ======================================================
(PID.TID 0000.0001) // Tile <-> Tile communication statistics
(PID.TID 0000.0001) // ======================================================
(PID.TID 0000.0001) // o Tile number: 000001
(PID.TID 0000.0001) //         No. X exchanges =              0
(PID.TID 0000.0001) //            Max. X spins =              0
(PID.TID 0000.0001) //            Min. X spins =     1000000000
(PID.TID 0000.0001) //          Total. X spins =              0
(PID.TID 0000.0001) //            Avg. X spins =       0.00E+00
(PID.TID 0000.0001) //         No. Y exchanges =              0
(PID.TID 0000.0001) //            Max. Y spins =              0
(PID.TID 0000.0001) //            Min. Y spins =     1000000000
(PID.TID 0000.0001) //          Total. Y spins =              0
(PID.TID 0000.0001) //            Avg. Y spins =       0.00E+00
(PID.TID 0000.0001) // o Tile number: 000002
(PID.TID 0000.0001) //         No. X exchanges =              0
(PID.TID 0000.0001) //            Max. X spins =              0
(PID.TID 0000.0001) //            Min. X spins =     1000000000
(PID.TID 0000.0001) //          Total. X spins =              0
(PID.TID 0000.0001) //            Avg. X spins =       0.00E+00
(PID.TID 0000.0001) //         No. Y exchanges =              0
(PID.TID 0000.0001) //            Max. Y spins =              0
(PID.TID 0000.0001) //            Min. Y spins =     1000000000
(PID.TID 0000.0001) //          Total. Y spins =              0
(PID.TID 0000.0001) //            Avg. Y spins =       0.00E+00
(PID.TID 0000.0001) // o Tile number: 000003
(PID.TID 0000.0001) //         No. X exchanges =              0
(PID.TID 0000.0001) //            Max. X spins =              0
(PID.TID 0000.0001) //            Min. X spins =     1000000000
(PID.TID 0000.0001) //          Total. X spins =              0
(PID.TID 0000.0001) //            Avg. X spins =       0.00E+00
(PID.TID 0000.0001) //         No. Y exchanges =              0
(PID.TID 0000.0001) //            Max. Y spins =              0
(PID.TID 0000.0001) //            Min. Y spins =     1000000000
(PID.TID 0000.0001) //          Total. Y spins =              0
(PID.TID 0000.0001) //            Avg. Y spins =       0.00E+00
(PID.TID 0000.0001) // o Tile number: 000004
(PID.TID 0000.0001) //         No. X exchanges =              0
(PID.TID 0000.0001) //            Max. X spins =              0
(PID.TID 0000.0001) //            Min. X spins =     1000000000
(PID.TID 0000.0001) //          Total. X spins =              0
(PID.TID 0000.0001) //            Avg. X spins =       0.00E+00
(PID.TID 0000.0001) //         No. Y exchanges =              0
(PID.TID 0000.0001) //            Max. Y spins =              0
(PID.TID 0000.0001) //            Min. Y spins =     1000000000
(PID.TID 0000.0001) //          Total. Y spins =              0
(PID.TID 0000.0001) //            Avg. Y spins =       0.00E+00
(PID.TID 0000.0001) // o Tile number: 000005
(PID.TID 0000.0001) //         No. X exchanges =              0
(PID.TID 0000.0001) //            Max. X spins =              0
(PID.TID 0000.0001) //            Min. X spins =     1000000000
(PID.TID 0000.0001) //          Total. X spins =              0
(PID.TID 0000.0001) //            Avg. X spins =       0.00E+00
(PID.TID 0000.0001) //         No. Y exchanges =              0
(PID.TID 0000.0001) //            Max. Y spins =              0
(PID.TID 0000.0001) //            Min. Y spins =     1000000000
(PID.TID 0000.0001) //          Total. Y spins =              0
(PID.TID 0000.0001) //            Avg. Y spins =       0.00E+00
(PID.TID 0000.0001) // o Tile number: 000006
(PID.TID 0000.0001) //         No. X exchanges =              0
(PID.TID 0000.0001) //            Max. X spins =              0
(PID.TID 0000.0001) //            Min. X spins =     1000000000
(PID.TID 0000.0001) //          Total. X spins =              0
(PID.TID 0000.0001) //            Avg. X spins =       0.00E+00
(PID.TID 0000.0001) //         No. Y exchanges =              0
(PID.TID 0000.0001) //            Max. Y spins =              0
(PID.TID 0000.0001) //            Min. Y spins =     1000000000
(PID.TID 0000.0001) //          Total. Y spins =              0
(PID.TID 0000.0001) //            Avg. Y spins =       0.00E+00
(PID.TID 0000.0001) // o Tile number: 000007
(PID.TID 0000.0001) //         No. X exchanges =              0
(PID.TID 0000.0001) //            Max. X spins =              0
(PID.TID 0000.0001) //            Min. X spins =     1000000000
(PID.TID 0000.0001) //          Total. X spins =              0
(PID.TID 0000.0001) //            Avg. X spins =       0.00E+00
(PID.TID 0000.0001) //         No. Y exchanges =              0
(PID.TID 0000.0001) //            Max. Y spins =              0
(PID.TID 0000.0001) //            Min. Y spins =     1000000000
(PID.TID 0000.0001) //          Total. Y spins =              0
(PID.TID 0000.0001) //            Avg. Y spins =       0.00E+00
(PID.TID 0000.0001) // o Tile number: 000008
(PID.TID 0000.0001) //         No. X exchanges =              0
(PID.TID 0000.0001) //            Max. X spins =              0
(PID.TID 0000.0001) //            Min. X spins =     1000000000
(PID.TID 0000.0001) //          Total. X spins =              0
(PID.TID 0000.0001) //            Avg. X spins =       0.00E+00
(PID.TID 0000.0001) //         No. Y exchanges =              0
(PID.TID 0000.0001) //            Max. Y spins =              0
(PID.TID 0000.0001) //            Min. Y spins =     1000000000
(PID.TID 0000.0001) //          Total. Y spins =              0
(PID.TID 0000.0001) //            Avg. Y spins =       0.00E+00
(PID.TID 0000.0001) // o Tile number: 000009
(PID.TID 0000.0001) //         No. X exchanges =              0
(PID.TID 0000.0001) //            Max. X spins =              0
(PID.TID 0000.0001) //            Min. X spins =     1000000000
(PID.TID 0000.0001) //          Total. X spins =              0
(PID.TID 0000.0001) //            Avg. X spins =       0.00E+00
(PID.TID 0000.0001) //         No. Y exchanges =              0
(PID.TID 0000.0001) //            Max. Y spins =              0
(PID.TID 0000.0001) //            Min. Y spins =     1000000000
(PID.TID 0000.0001) //          Total. Y spins =              0
(PID.TID 0000.0001) //            Avg. Y spins =       0.00E+00
(PID.TID 0000.0001) // o Tile number: 000010
(PID.TID 0000.0001) //         No. X exchanges =              0
(PID.TID 0000.0001) //            Max. X spins =              0
(PID.TID 0000.0001) //            Min. X spins =     1000000000
(PID.TID 0000.0001) //          Total. X spins =              0
(PID.TID 0000.0001) //            Avg. X spins =       0.00E+00
(PID.TID 0000.0001) //         No. Y exchanges =              0
(PID.TID 0000.0001) //            Max. Y spins =              0
(PID.TID 0000.0001) //            Min. Y spins =     1000000000
(PID.TID 0000.0001) //          Total. Y spins =              0
(PID.TID 0000.0001) //            Avg. Y spins =       0.00E+00
(PID.TID 0000.0001) // o Tile number: 000011
(PID.TID 0000.0001) //         No. X exchanges =              0
(PID.TID 0000.0001) //            Max. X spins =              0
(PID.TID 0000.0001) //            Min. X spins =     1000000000
(PID.TID 0000.0001) //          Total. X spins =              0
(PID.TID 0000.0001) //            Avg. X spins =       0.00E+00
(PID.TID 0000.0001) //         No. Y exchanges =              0
(PID.TID 0000.0001) //            Max. Y spins =              0
(PID.TID 0000.0001) //            Min. Y spins =     1000000000
(PID.TID 0000.0001) //          Total. Y spins =              0
(PID.TID 0000.0001) //            Avg. Y spins =       0.00E+00
(PID.TID 0000.0001) // o Tile number: 000012
(PID.TID 0000.0001) //         No. X exchanges =              0
(PID.TID 0000.0001) //            Max. X spins =              0
(PID.TID 0000.0001) //            Min. X spins =     1000000000
(PID.TID 0000.0001) //          Total. X spins =              0
(PID.TID 0000.0001) //            Avg. X spins =       0.00E+00
(PID.TID 0000.0001) //         No. Y exchanges =              0
(PID.TID 0000.0001) //            Max. Y spins =              0
(PID.TID 0000.0001) //            Min. Y spins =     1000000000
(PID.TID 0000.0001) //          Total. Y spins =              0
(PID.TID 0000.0001) //            Avg. Y spins =       0.00E+00
(PID.TID 0000.0001) // o Thread number: 000001
(PID.TID 0000.0001) //            No. barriers =          42976
(PID.TID 0000.0001) //      Max. barrier spins =              1
(PID.TID 0000.0001) //      Min. barrier spins =              1
(PID.TID 0000.0001) //     Total barrier spins =          42976
(PID.TID 0000.0001) //      Avg. barrier spins =       1.00E+00
PROGRAM MAIN: Execution ended Normally
