(PID.TID 0000.0001) 
(PID.TID 0000.0001) // ======================================================
(PID.TID 0000.0001) //                      MITgcm UV
(PID.TID 0000.0001) //                      =========
(PID.TID 0000.0001) // ======================================================
(PID.TID 0000.0001) // execution environment starting up...
(PID.TID 0000.0001) 
(PID.TID 0000.0001) // MITgcmUV version:  checkpoint59e
(PID.TID 0000.0001) // Build user:        jmc
(PID.TID 0000.0001) // Build host:        faulks
(PID.TID 0000.0001) // Build date:        Mon Aug  6 17:31:58 EDT 2007
(PID.TID 0000.0001) 
(PID.TID 0000.0001) // =======================================================
(PID.TID 0000.0001) // Execution Environment parameter file "eedata"
(PID.TID 0000.0001) // =======================================================
(PID.TID 0000.0001) ># Example "eedata" file
(PID.TID 0000.0001) ># Lines beginning "#" are comments
(PID.TID 0000.0001) ># nTx - No. threads per process in X
(PID.TID 0000.0001) ># nTy - No. threads per process in Y
(PID.TID 0000.0001) > &EEPARMS
(PID.TID 0000.0001) > useCubedSphereExchange=.TRUE.,
(PID.TID 0000.0001) > nTx=1,
(PID.TID 0000.0001) > nTy=1,
(PID.TID 0000.0001) > &
(PID.TID 0000.0001) ># Note: Some systems use & as the
(PID.TID 0000.0001) ># namelist terminator. Other systems
(PID.TID 0000.0001) ># use a / character (as shown here).
(PID.TID 0000.0001) 
(PID.TID 0000.0001) // =======================================================
(PID.TID 0000.0001) // Computational Grid Specification ( see files "SIZE.h" )
(PID.TID 0000.0001) //                                  ( and "eedata"       )
(PID.TID 0000.0001) // =======================================================
(PID.TID 0000.0001)      nPx =    1 ; /* No. processes in X */
(PID.TID 0000.0001)      nPy =    1 ; /* No. processes in Y */
(PID.TID 0000.0001)      nSx =    6 ; /* No. tiles in X per process */
(PID.TID 0000.0001)      nSy =    1 ; /* No. tiles in Y per process */
(PID.TID 0000.0001)      sNx =   32 ; /* Tile size in X */
(PID.TID 0000.0001)      sNy =   32 ; /* Tile size in Y */
(PID.TID 0000.0001)      OLx =    4 ; /* Tile overlap distance in X */
(PID.TID 0000.0001)      OLy =    4 ; /* Tile overlap distance in Y */
(PID.TID 0000.0001)      nTx =    1 ; /* No. threads in X per process */
(PID.TID 0000.0001)      nTy =    1 ; /* No. threads in Y per process */
(PID.TID 0000.0001)       Nr =   15 ; /* No. levels in the vertical   */
(PID.TID 0000.0001)       nX =  192 ; /* Total domain size in X ( = nPx*nSx*sNx ) */
(PID.TID 0000.0001)       nY =   32 ; /* Total domain size in Y ( = nPy*nSy*sNy ) */
(PID.TID 0000.0001)   nTiles =    6 ; /* Total no. tiles per process ( = nSx*nSy ) */
(PID.TID 0000.0001)   nProcs =    1 ; /* Total no. processes ( = nPx*nPy ) */
(PID.TID 0000.0001) nThreads =    1 ; /* Total no. threads per process ( = nTx*nTy ) */
(PID.TID 0000.0001) usingMPI =    F ; /* Flag used to control whether MPI is in use */
(PID.TID 0000.0001)                   /*  note: To execute a program with MPI calls */
(PID.TID 0000.0001)                   /*  it must be launched appropriately e.g     */
(PID.TID 0000.0001)                   /*  "mpirun -np 64 ......"                    */
(PID.TID 0000.0001) useCoupler=   F ; /* Flag used to control communications with */
(PID.TID 0000.0001)                   /*  other model components, through a coupler */
(PID.TID 0000.0001) 
(PID.TID 0000.0001) // ======================================================
(PID.TID 0000.0001) // Mapping of tiles to threads
(PID.TID 0000.0001) // ======================================================
(PID.TID 0000.0001) // -o- Thread   1, tiles (   1:   6,   1:   1)
(PID.TID 0000.0001) 
(PID.TID 0000.0001) // ======================================================
(PID.TID 0000.0001) // Tile <-> Tile connectvity table
(PID.TID 0000.0001) // ======================================================
(PID.TID 0000.0001) // Tile number: 000001 (process no. = 000001)
(PID.TID 0000.0001) //        WEST: Tile = 000006, Process = 000001, Comm = put
(PID.TID 0000.0001) //                bi = 000006, bj = 000001
(PID.TID 0000.0001) //        EAST: Tile = 000002, Process = 000001, Comm = put
(PID.TID 0000.0001) //                bi = 000002, bj = 000001
(PID.TID 0000.0001) //       SOUTH: Tile = 000001, Process = 000001, Comm = put
(PID.TID 0000.0001) //                bi = 000001, bj = 000001
(PID.TID 0000.0001) //       NORTH: Tile = 000001, Process = 000001, Comm = put
(PID.TID 0000.0001) //                bi = 000001, bj = 000001
(PID.TID 0000.0001) // Tile number: 000002 (process no. = 000001)
(PID.TID 0000.0001) //        WEST: Tile = 000001, Process = 000001, Comm = put
(PID.TID 0000.0001) //                bi = 000001, bj = 000001
(PID.TID 0000.0001) //        EAST: Tile = 000003, Process = 000001, Comm = put
(PID.TID 0000.0001) //                bi = 000003, bj = 000001
(PID.TID 0000.0001) //       SOUTH: Tile = 000002, Process = 000001, Comm = put
(PID.TID 0000.0001) //                bi = 000002, bj = 000001
(PID.TID 0000.0001) //       NORTH: Tile = 000002, Process = 000001, Comm = put
(PID.TID 0000.0001) //                bi = 000002, bj = 000001
(PID.TID 0000.0001) // Tile number: 000003 (process no. = 000001)
(PID.TID 0000.0001) //        WEST: Tile = 000002, Process = 000001, Comm = put
(PID.TID 0000.0001) //                bi = 000002, bj = 000001
(PID.TID 0000.0001) //        EAST: Tile = 000004, Process = 000001, Comm = put
(PID.TID 0000.0001) //                bi = 000004, bj = 000001
(PID.TID 0000.0001) //       SOUTH: Tile = 000003, Process = 000001, Comm = put
(PID.TID 0000.0001) //                bi = 000003, bj = 000001
(PID.TID 0000.0001) //       NORTH: Tile = 000003, Process = 000001, Comm = put
(PID.TID 0000.0001) //                bi = 000003, bj = 000001
(PID.TID 0000.0001) // Tile number: 000004 (process no. = 000001)
(PID.TID 0000.0001) //        WEST: Tile = 000003, Process = 000001, Comm = put
(PID.TID 0000.0001) //                bi = 000003, bj = 000001
(PID.TID 0000.0001) //        EAST: Tile = 000005, Process = 000001, Comm = put
(PID.TID 0000.0001) //                bi = 000005, bj = 000001
(PID.TID 0000.0001) //       SOUTH: Tile = 000004, Process = 000001, Comm = put
(PID.TID 0000.0001) //                bi = 000004, bj = 000001
(PID.TID 0000.0001) //       NORTH: Tile = 000004, Process = 000001, Comm = put
(PID.TID 0000.0001) //                bi = 000004, bj = 000001
(PID.TID 0000.0001) // Tile number: 000005 (process no. = 000001)
(PID.TID 0000.0001) //        WEST: Tile = 000004, Process = 000001, Comm = put
(PID.TID 0000.0001) //                bi = 000004, bj = 000001
(PID.TID 0000.0001) //        EAST: Tile = 000006, Process = 000001, Comm = put
(PID.TID 0000.0001) //                bi = 000006, bj = 000001
(PID.TID 0000.0001) //       SOUTH: Tile = 000005, Process = 000001, Comm = put
(PID.TID 0000.0001) //                bi = 000005, bj = 000001
(PID.TID 0000.0001) //       NORTH: Tile = 000005, Process = 000001, Comm = put
(PID.TID 0000.0001) //                bi = 000005, bj = 000001
(PID.TID 0000.0001) // Tile number: 000006 (process no. = 000001)
(PID.TID 0000.0001) //        WEST: Tile = 000005, Process = 000001, Comm = put
(PID.TID 0000.0001) //                bi = 000005, bj = 000001
(PID.TID 0000.0001) //        EAST: Tile = 000001, Process = 000001, Comm = put
(PID.TID 0000.0001) //                bi = 000001, bj = 000001
(PID.TID 0000.0001) //       SOUTH: Tile = 000006, Process = 000001, Comm = put
(PID.TID 0000.0001) //                bi = 000006, bj = 000001
(PID.TID 0000.0001) //       NORTH: Tile = 000006, Process = 000001, Comm = put
(PID.TID 0000.0001) //                bi = 000006, bj = 000001
(PID.TID 0000.0001) 
(PID.TID 0000.0001) ===== W2 TILE TOPLOGY =====
(PID.TID 0000.0001)  TILE:    1
(PID.TID 0000.0001)       NEIGHBOUR    1 = TILE    3 Comm = PUT ( PROC =    1)
(PID.TID 0000.0001)       NEIGHBOUR    2 = TILE    6 Comm = PUT ( PROC =    1)
(PID.TID 0000.0001)       NEIGHBOUR    3 = TILE    2 Comm = PUT ( PROC =    1)
(PID.TID 0000.0001)       NEIGHBOUR    4 = TILE    5 Comm = PUT ( PROC =    1)
(PID.TID 0000.0001)  TILE:    2
(PID.TID 0000.0001)       NEIGHBOUR    1 = TILE    3 Comm = PUT ( PROC =    1)
(PID.TID 0000.0001)       NEIGHBOUR    2 = TILE    6 Comm = PUT ( PROC =    1)
(PID.TID 0000.0001)       NEIGHBOUR    3 = TILE    4 Comm = PUT ( PROC =    1)
(PID.TID 0000.0001)       NEIGHBOUR    4 = TILE    1 Comm = PUT ( PROC =    1)
(PID.TID 0000.0001)  TILE:    3
(PID.TID 0000.0001)       NEIGHBOUR    1 = TILE    5 Comm = PUT ( PROC =    1)
(PID.TID 0000.0001)       NEIGHBOUR    2 = TILE    2 Comm = PUT ( PROC =    1)
(PID.TID 0000.0001)       NEIGHBOUR    3 = TILE    4 Comm = PUT ( PROC =    1)
(PID.TID 0000.0001)       NEIGHBOUR    4 = TILE    1 Comm = PUT ( PROC =    1)
(PID.TID 0000.0001)  TILE:    4
(PID.TID 0000.0001)       NEIGHBOUR    1 = TILE    5 Comm = PUT ( PROC =    1)
(PID.TID 0000.0001)       NEIGHBOUR    2 = TILE    2 Comm = PUT ( PROC =    1)
(PID.TID 0000.0001)       NEIGHBOUR    3 = TILE    6 Comm = PUT ( PROC =    1)
(PID.TID 0000.0001)       NEIGHBOUR    4 = TILE    3 Comm = PUT ( PROC =    1)
(PID.TID 0000.0001)  TILE:    5
(PID.TID 0000.0001)       NEIGHBOUR    1 = TILE    1 Comm = PUT ( PROC =    1)
(PID.TID 0000.0001)       NEIGHBOUR    2 = TILE    4 Comm = PUT ( PROC =    1)
(PID.TID 0000.0001)       NEIGHBOUR    3 = TILE    6 Comm = PUT ( PROC =    1)
(PID.TID 0000.0001)       NEIGHBOUR    4 = TILE    3 Comm = PUT ( PROC =    1)
(PID.TID 0000.0001)  TILE:    6
(PID.TID 0000.0001)       NEIGHBOUR    1 = TILE    1 Comm = PUT ( PROC =    1)
(PID.TID 0000.0001)       NEIGHBOUR    2 = TILE    4 Comm = PUT ( PROC =    1)
(PID.TID 0000.0001)       NEIGHBOUR    3 = TILE    2 Comm = PUT ( PROC =    1)
(PID.TID 0000.0001)       NEIGHBOUR    4 = TILE    5 Comm = PUT ( PROC =    1)
(PID.TID 0000.0001) Tile    1(proc =   1) sends points i=  36:  -3, j=  29:  32
(PID.TID 0000.0001)                          to points i=  -3:   0, j=  -3:  36 in tile    3(proc =   1)
(PID.TID 0000.0001) Tile    1(proc =   1) sends points i=  -3:  36, j=   1:   4
(PID.TID 0000.0001)                          to points i=  -3:  36, j=  33:  36 in tile    6(proc =   1)
(PID.TID 0000.0001) Tile    1(proc =   1) sends points i=  29:  32, j=  -3:  36
(PID.TID 0000.0001)                          to points i=  -3:   0, j=  -3:  36 in tile    2(proc =   1)
(PID.TID 0000.0001) Tile    1(proc =   1) sends points i=   1:   4, j=  36:  -3
(PID.TID 0000.0001)                          to points i=  -3:  36, j=  33:  36 in tile    5(proc =   1)
(PID.TID 0000.0001) Tile    2(proc =   1) sends points i=  -3:  36, j=  29:  32
(PID.TID 0000.0001)                          to points i=  -3:  36, j=  -3:   0 in tile    3(proc =   1)
(PID.TID 0000.0001) Tile    2(proc =   1) sends points i=  36:  -3, j=   1:   4
(PID.TID 0000.0001)                          to points i=  33:  36, j=  -3:  36 in tile    6(proc =   1)
(PID.TID 0000.0001) Tile    2(proc =   1) sends points i=  29:  32, j=  36:  -3
(PID.TID 0000.0001)                          to points i=  -3:  36, j=  -3:   0 in tile    4(proc =   1)
(PID.TID 0000.0001) Tile    2(proc =   1) sends points i=   1:   4, j=  -3:  36
(PID.TID 0000.0001)                          to points i=  33:  36, j=  -3:  36 in tile    1(proc =   1)
(PID.TID 0000.0001) Tile    3(proc =   1) sends points i=  36:  -3, j=  29:  32
(PID.TID 0000.0001)                          to points i=  -3:   0, j=  -3:  36 in tile    5(proc =   1)
(PID.TID 0000.0001) Tile    3(proc =   1) sends points i=  -3:  36, j=   1:   4
(PID.TID 0000.0001)                          to points i=  -3:  36, j=  33:  36 in tile    2(proc =   1)
(PID.TID 0000.0001) Tile    3(proc =   1) sends points i=  29:  32, j=  -3:  36
(PID.TID 0000.0001)                          to points i=  -3:   0, j=  -3:  36 in tile    4(proc =   1)
(PID.TID 0000.0001) Tile    3(proc =   1) sends points i=   1:   4, j=  36:  -3
(PID.TID 0000.0001)                          to points i=  -3:  36, j=  33:  36 in tile    1(proc =   1)
(PID.TID 0000.0001) Tile    4(proc =   1) sends points i=  -3:  36, j=  29:  32
(PID.TID 0000.0001)                          to points i=  -3:  36, j=  -3:   0 in tile    5(proc =   1)
(PID.TID 0000.0001) Tile    4(proc =   1) sends points i=  36:  -3, j=   1:   4
(PID.TID 0000.0001)                          to points i=  33:  36, j=  -3:  36 in tile    2(proc =   1)
(PID.TID 0000.0001) Tile    4(proc =   1) sends points i=  29:  32, j=  36:  -3
(PID.TID 0000.0001)                          to points i=  -3:  36, j=  -3:   0 in tile    6(proc =   1)
(PID.TID 0000.0001) Tile    4(proc =   1) sends points i=   1:   4, j=  -3:  36
(PID.TID 0000.0001)                          to points i=  33:  36, j=  -3:  36 in tile    3(proc =   1)
(PID.TID 0000.0001) Tile    5(proc =   1) sends points i=  36:  -3, j=  29:  32
(PID.TID 0000.0001)                          to points i=  -3:   0, j=  -3:  36 in tile    1(proc =   1)
(PID.TID 0000.0001) Tile    5(proc =   1) sends points i=  -3:  36, j=   1:   4
(PID.TID 0000.0001)                          to points i=  -3:  36, j=  33:  36 in tile    4(proc =   1)
(PID.TID 0000.0001) Tile    5(proc =   1) sends points i=  29:  32, j=  -3:  36
(PID.TID 0000.0001)                          to points i=  -3:   0, j=  -3:  36 in tile    6(proc =   1)
(PID.TID 0000.0001) Tile    5(proc =   1) sends points i=   1:   4, j=  36:  -3
(PID.TID 0000.0001)                          to points i=  -3:  36, j=  33:  36 in tile    3(proc =   1)
(PID.TID 0000.0001) Tile    6(proc =   1) sends points i=  -3:  36, j=  29:  32
(PID.TID 0000.0001)                          to points i=  -3:  36, j=  -3:   0 in tile    1(proc =   1)
(PID.TID 0000.0001) Tile    6(proc =   1) sends points i=  36:  -3, j=   1:   4
(PID.TID 0000.0001)                          to points i=  33:  36, j=  -3:  36 in tile    4(proc =   1)
(PID.TID 0000.0001) Tile    6(proc =   1) sends points i=  29:  32, j=  36:  -3
(PID.TID 0000.0001)                          to points i=  -3:  36, j=  -3:   0 in tile    2(proc =   1)
(PID.TID 0000.0001) Tile    6(proc =   1) sends points i=   1:   4, j=  -3:  36
(PID.TID 0000.0001)                          to points i=  33:  36, j=  -3:  36 in tile    5(proc =   1)
(PID.TID 0000.0001) Tile    1(proc =   1)recv to points i=  -3:  36, j=  33:  36from tile   3(proc =   1)
(PID.TID 0000.0001) Tile    1(proc =   1)recv to points i=  -3:  36, j=  -3:   0from tile   6(proc =   1)
(PID.TID 0000.0001) Tile    1(proc =   1)recv to points i=  33:  36, j=  -3:  36from tile   2(proc =   1)
(PID.TID 0000.0001) Tile    1(proc =   1)recv to points i=  -3:   0, j=  -3:  36from tile   5(proc =   1)
(PID.TID 0000.0001) Tile    2(proc =   1)recv to points i=  -3:  36, j=  33:  36from tile   3(proc =   1)
(PID.TID 0000.0001) Tile    2(proc =   1)recv to points i=  -3:  36, j=  -3:   0from tile   6(proc =   1)
(PID.TID 0000.0001) Tile    2(proc =   1)recv to points i=  33:  36, j=  -3:  36from tile   4(proc =   1)
(PID.TID 0000.0001) Tile    2(proc =   1)recv to points i=  -3:   0, j=  -3:  36from tile   1(proc =   1)
(PID.TID 0000.0001) Tile    3(proc =   1)recv to points i=  -3:  36, j=  33:  36from tile   5(proc =   1)
(PID.TID 0000.0001) Tile    3(proc =   1)recv to points i=  -3:  36, j=  -3:   0from tile   2(proc =   1)
(PID.TID 0000.0001) Tile    3(proc =   1)recv to points i=  33:  36, j=  -3:  36from tile   4(proc =   1)
(PID.TID 0000.0001) Tile    3(proc =   1)recv to points i=  -3:   0, j=  -3:  36from tile   1(proc =   1)
(PID.TID 0000.0001) Tile    4(proc =   1)recv to points i=  -3:  36, j=  33:  36from tile   5(proc =   1)
(PID.TID 0000.0001) Tile    4(proc =   1)recv to points i=  -3:  36, j=  -3:   0from tile   2(proc =   1)
(PID.TID 0000.0001) Tile    4(proc =   1)recv to points i=  33:  36, j=  -3:  36from tile   6(proc =   1)
(PID.TID 0000.0001) Tile    4(proc =   1)recv to points i=  -3:   0, j=  -3:  36from tile   3(proc =   1)
(PID.TID 0000.0001) Tile    5(proc =   1)recv to points i=  -3:  36, j=  33:  36from tile   1(proc =   1)
(PID.TID 0000.0001) Tile    5(proc =   1)recv to points i=  -3:  36, j=  -3:   0from tile   4(proc =   1)
(PID.TID 0000.0001) Tile    5(proc =   1)recv to points i=  33:  36, j=  -3:  36from tile   6(proc =   1)
(PID.TID 0000.0001) Tile    5(proc =   1)recv to points i=  -3:   0, j=  -3:  36from tile   3(proc =   1)
(PID.TID 0000.0001) Tile    6(proc =   1)recv to points i=  -3:  36, j=  33:  36from tile   1(proc =   1)
(PID.TID 0000.0001) Tile    6(proc =   1)recv to points i=  -3:  36, j=  -3:   0from tile   4(proc =   1)
(PID.TID 0000.0001) Tile    6(proc =   1)recv to points i=  33:  36, j=  -3:  36from tile   2(proc =   1)
(PID.TID 0000.0001) Tile    6(proc =   1)recv to points i=  -3:   0, j=  -3:  36from tile   5(proc =   1)
(PID.TID 0000.0001) // =======================================================
(PID.TID 0000.0001) // Model parameter file "data"
(PID.TID 0000.0001) // =======================================================
(PID.TID 0000.0001) ># ====================
(PID.TID 0000.0001) ># | Model parameters |
(PID.TID 0000.0001) ># ====================
(PID.TID 0000.0001) >#
(PID.TID 0000.0001) ># Continuous equation parameters
(PID.TID 0000.0001) > &PARM01
(PID.TID 0000.0001) > tRef=15*20.,
(PID.TID 0000.0001) > sRef=15*35.,
(PID.TID 0000.0001) > viscAh =3.E5,
(PID.TID 0000.0001) > viscAr =1.E-3,
(PID.TID 0000.0001) > diffKhT=0.,
(PID.TID 0000.0001) > diffK4T=0.,
(PID.TID 0000.0001) > diffKrT=3.E-5,
(PID.TID 0000.0001) > diffKhS=0.,
(PID.TID 0000.0001) > diffK4S=0.,
(PID.TID 0000.0001) > diffKrS=3.E-5,
(PID.TID 0000.0001) > ivdc_kappa=10.,
(PID.TID 0000.0001) > implicitDiffusion=.TRUE.,
(PID.TID 0000.0001) > rotationPeriod=86400.,
(PID.TID 0000.0001) > gravity=9.81,
(PID.TID 0000.0001) > rhonil=1035.,
(PID.TID 0000.0001) > rhoConstFresh=1000.,
(PID.TID 0000.0001) > eosType='JMD95Z',
(PID.TID 0000.0001) > staggerTimeStep=.TRUE.,
(PID.TID 0000.0001) > vectorInvariantMomentum=.TRUE.,
(PID.TID 0000.0001) > implicitFreeSurface=.TRUE.,
(PID.TID 0000.0001) > exactConserv=.TRUE.,
(PID.TID 0000.0001) > select_rStar=2,
(PID.TID 0000.0001) > nonlinFreeSurf=4,
(PID.TID 0000.0001) > hFacInf=0.2,
(PID.TID 0000.0001) > hFacSup=2.0,
(PID.TID 0000.0001) > useRealFreshWaterFlux=.TRUE.,
(PID.TID 0000.0001) > hFacMin=.1,
(PID.TID 0000.0001) > hFacMinDr=20.,
(PID.TID 0000.0001) > readBinaryPrec=64,
(PID.TID 0000.0001) >#writeBinaryPrec=64,
(PID.TID 0000.0001) > &
(PID.TID 0000.0001) >
(PID.TID 0000.0001) ># Elliptic solver parameters
(PID.TID 0000.0001) > &PARM02
(PID.TID 0000.0001) > cg2dMaxIters=200,
(PID.TID 0000.0001) >#cg2dTargetResidual=1.E-9,
(PID.TID 0000.0001) > cg2dTargetResWunit=1.E-14,
(PID.TID 0000.0001) > &
(PID.TID 0000.0001) >
(PID.TID 0000.0001) ># Time stepping parameters
(PID.TID 0000.0001) > &PARM03
(PID.TID 0000.0001) > nIter0=36000,
(PID.TID 0000.0001) > nTimeSteps=20,
(PID.TID 0000.0001) > deltaTmom   =1200.,
(PID.TID 0000.0001) > deltaTtracer=86400.,
(PID.TID 0000.0001) > deltaTfreesurf=86400.,
(PID.TID 0000.0001) > deltaTClock =86400.,
(PID.TID 0000.0001) > abEps = 0.1,
(PID.TID 0000.0001) >#forcing_In_AB=.FALSE.,
(PID.TID 0000.0001) > tracForcingOutAB=1,
(PID.TID 0000.0001) > pChkptFreq  =31104000.,
(PID.TID 0000.0001) > taveFreq    =31104000.,
(PID.TID 0000.0001) > dumpFreq    =31104000.,
(PID.TID 0000.0001) > monitorFreq =2592000.,
(PID.TID 0000.0001) >#tave_lastIter=0.,
(PID.TID 0000.0001) > periodicExternalForcing=.TRUE.,
(PID.TID 0000.0001) > externForcingPeriod=2592000.,
(PID.TID 0000.0001) > externForcingCycle=31104000.,
(PID.TID 0000.0001) ># 2 months restoring timescale for temperature
(PID.TID 0000.0001) > tauThetaClimRelax = 5184000.,
(PID.TID 0000.0001) ># 6 months restoring timescale for salinity
(PID.TID 0000.0001) > tauSaltClimRelax = 15552000.,
(PID.TID 0000.0001) > latBandClimRelax=50.,
(PID.TID 0000.0001) > monitorFreq =1.,
(PID.TID 0000.0001) > &
(PID.TID 0000.0001) >
(PID.TID 0000.0001) ># Gridding parameters
(PID.TID 0000.0001) > &PARM04
(PID.TID 0000.0001) > usingCurvilinearGrid=.TRUE.,
(PID.TID 0000.0001) > horizGridFile='grid_cs32',
(PID.TID 0000.0001) > delR= 50., 70., 100., 140., 190.,
(PID.TID 0000.0001) >       240., 290., 340., 390., 440.,
(PID.TID 0000.0001) >       490., 540., 590., 640., 690.,
(PID.TID 0000.0001) > &
(PID.TID 0000.0001) >
(PID.TID 0000.0001) ># Input datasets
(PID.TID 0000.0001) > &PARM05
(PID.TID 0000.0001) > bathyFile      ='bathy_Hmin50.bin',
(PID.TID 0000.0001) > hydrogThetaFile='lev_T_cs_15k.bin',
(PID.TID 0000.0001) > hydrogSaltFile ='lev_S_cs_15k.bin',
(PID.TID 0000.0001) > zonalWindFile  ='trenberth_taux.bin',
(PID.TID 0000.0001) > meridWindFile  ='trenberth_tauy.bin',
(PID.TID 0000.0001) > thetaClimFile  ='lev_surfT_cs_12m.bin',
(PID.TID 0000.0001) > saltClimFile   ='lev_surfS_cs_12m.bin',
(PID.TID 0000.0001) > &
(PID.TID 0000.0001) 
(PID.TID 0000.0001) S/R INI_PARMS ; starts to read PARM01
(PID.TID 0000.0001) S/R INI_PARMS ; read PARM01 : OK
(PID.TID 0000.0001) S/R INI_PARMS ; starts to read PARM02
(PID.TID 0000.0001) S/R INI_PARMS ; read PARM02 : OK
(PID.TID 0000.0001) S/R INI_PARMS ; starts to read PARM03
(PID.TID 0000.0001) S/R INI_PARMS ; read PARM03 : OK
(PID.TID 0000.0001) S/R INI_PARMS ; starts to read PARM04
(PID.TID 0000.0001) S/R INI_PARMS ; read PARM04 : OK
(PID.TID 0000.0001) S/R INI_PARMS ; starts to read PARM05
(PID.TID 0000.0001) S/R INI_PARMS ; read PARM05 : OK
(PID.TID 0000.0001)  PACKAGES_BOOT: opening data.pkg
(PID.TID 0000.0001)  OPEN_COPY_DATA_FILE: opening file data.pkg
(PID.TID 0000.0001) // =======================================================
(PID.TID 0000.0001) // Parameter file "data.pkg"
(PID.TID 0000.0001) // =======================================================
(PID.TID 0000.0001) ># Packages
(PID.TID 0000.0001) > &PACKAGES
(PID.TID 0000.0001) > useGMRedi=.TRUE.,
(PID.TID 0000.0001) > useBulkforce=.TRUE.,
(PID.TID 0000.0001) > useThSIce=.TRUE.,
(PID.TID 0000.0001) > useDiagnostics=.TRUE.,
(PID.TID 0000.0001) > &
(PID.TID 0000.0001) 
(PID.TID 0000.0001)  PACKAGES_BOOT: finished reading data.pkg
(PID.TID 0000.0001)  GM_READPARMS: opening data.gmredi
(PID.TID 0000.0001)  OPEN_COPY_DATA_FILE: opening file data.gmredi
(PID.TID 0000.0001) // =======================================================
(PID.TID 0000.0001) // Parameter file "data.gmredi"
(PID.TID 0000.0001) // =======================================================
(PID.TID 0000.0001) ># GM+Redi package parameters:
(PID.TID 0000.0001) >
(PID.TID 0000.0001) >#-from MOM :
(PID.TID 0000.0001) ># GM_background_K: 	G & Mc.W  diffusion coefficient
(PID.TID 0000.0001) ># GM_maxSlope    :	max slope of isopycnals
(PID.TID 0000.0001) ># GM_Scrit       :	transition for scaling diffusion coefficient
(PID.TID 0000.0001) ># GM_Sd          :	half width scaling for diffusion coefficient
(PID.TID 0000.0001) ># GM_taper_scheme:	slope clipping or one of the tapering schemes
(PID.TID 0000.0001) ># GM_Kmin_horiz  :	horizontal diffusion minimum value
(PID.TID 0000.0001) >
(PID.TID 0000.0001) >#-Option parameters (needs to "define" options in GMREDI_OPTIONS.h")
(PID.TID 0000.0001) ># GM_isopycK     :	isopycnal diffusion coefficient (default=GM_background_K)
(PID.TID 0000.0001) ># GM_AdvForm     :	turn on GM Advective form       (default=Skew flux form)
(PID.TID 0000.0001) >
(PID.TID 0000.0001) > &GM_PARM01
(PID.TID 0000.0001) >  GM_background_K    = 800.,
(PID.TID 0000.0001) >  GM_taper_scheme    = 'gkw91',
(PID.TID 0000.0001) >  GM_maxSlope        = 1.e-2,
(PID.TID 0000.0001) >  GM_Kmin_horiz      = 50.,
(PID.TID 0000.0001) >  GM_Scrit           = 4.e-3,
(PID.TID 0000.0001) >  GM_Sd              = 1.e-3,
(PID.TID 0000.0001) ># GM_Visbeck_alpha   = 0.,
(PID.TID 0000.0001) ># GM_Visbeck_length  = 2.e+5,
(PID.TID 0000.0001) ># GM_Visbeck_depth   = 1.e+3,
(PID.TID 0000.0001) ># GM_Visbeck_maxval_K= 2.5e+3,
(PID.TID 0000.0001) > &
(PID.TID 0000.0001) >
(PID.TID 0000.0001) >
(PID.TID 0000.0001) 
(PID.TID 0000.0001)  GM_READPARMS: finished reading data.gmredi
(PID.TID 0000.0001)  OPEN_COPY_DATA_FILE: opening file data.blk
(PID.TID 0000.0001) // =======================================================
(PID.TID 0000.0001) // Parameter file "data.blk"
(PID.TID 0000.0001) // =======================================================
(PID.TID 0000.0001) > &BULKF_CONST
(PID.TID 0000.0001) > Tf0kel = 273.15,
(PID.TID 0000.0001) >#p0   = 1013.,  <- no longer in Namelist, but hard coded
(PID.TID 0000.0001) > Rgas   = 287.,
(PID.TID 0000.0001) > &
(PID.TID 0000.0001) >
(PID.TID 0000.0001) > &BULKF_PARM01
(PID.TID 0000.0001) ># set blk_nIter=0 to use the original FORMULA_LANL:
(PID.TID 0000.0001) > blk_nIter= 0,
(PID.TID 0000.0001) >#RainFile=       'ncep_precip_cs.bin',
(PID.TID 0000.0001) > RainFile=       'ncep_pr_scal_cs.bin',
(PID.TID 0000.0001) > SolarFile=      'ncep_downsolar_cs.bin',
(PID.TID 0000.0001) > AirTempFile=    'ncep_tair_cs.bin',
(PID.TID 0000.0001) > AirhumidityFile='ncep_qair_cs.bin',
(PID.TID 0000.0001) > LongwaveFile=   'ncep_downlw_cs.bin',
(PID.TID 0000.0001) > UWindFile=      ' ',
(PID.TID 0000.0001) > VWindFile=      ' ',
(PID.TID 0000.0001) > WspeedFile=     'ncep_windspeed_cs.bin',
(PID.TID 0000.0001) > RunoffFile=     ' ',
(PID.TID 0000.0001) > QnetFile=       ' ',
(PID.TID 0000.0001) > EmPFile=        ' ',
(PID.TID 0000.0001) > CloudFile=      ' ',
(PID.TID 0000.0001) >#blk_taveFreq=864000.,
(PID.TID 0000.0001) > &
(PID.TID 0000.0001) >
(PID.TID 0000.0001) > &BULKF_PARM02
(PID.TID 0000.0001) > qnet_off=0.0,
(PID.TID 0000.0001) > empmr_off=0.0,
(PID.TID 0000.0001) > conservcycle=311040000.,
(PID.TID 0000.0001) > &
(PID.TID 0000.0001) >
(PID.TID 0000.0001) 
(PID.TID 0000.0001)  BULKF_READPARMS: starts to read BULKF_CONST
(PID.TID 0000.0001)  BULKF_READPARMS: read BULKF_CONST : OK
(PID.TID 0000.0001)  BULKF_READPARMS: starts to read BULKF_PARM01
(PID.TID 0000.0001)  BULKF_READPARMS: read BULKF_PARM01 : OK
 BlkF: rhoA     =  1.3
 BlkF: rhoFW    =  1000.
 BlkF: cpAir    =  1004.
 BlkF: Lvap     =  2500000.
 BlkF: Lfresh   =  334000.
 BlkF: Tf0kel   =  273.15
 BlkF: Rgas     =  287.
 BlkF: xkar     =  0.4
 BlkF: stefan   =  5.67E-08
 BlkF: zref     =  10.
 BlkF: zwd      =  10.
 BlkF: zth      =  10.
 BlkF: cDrag_1  =  0.0027
 BlkF: cDrag_2  =  0.000142
 BlkF: cDrag_3  =  7.64E-05
 BlkF: cStantonS=  0.018
 BlkF: cStantonU=  0.0327
 BlkF: cDalton  =  0.0346
 BlkF: umin     =  1.
 BlkF: humid_fac=  0.606
 BlkF: saltQsFac=  0.98
 BlkF: gamma_blk=  0.01
 BlkF: atm_emissivity  =  0.9
 BlkF: ocean_emissivity=  0.985
 BlkF: snow_emissivity =  0.98
 BlkF: ice_emissivity  =  0.98
 BlkF: ocean_albedo    =  0.1
 BlkF: FWIND0   =  0.6
 BlkF: CHS      =  0.0008
 BlkF: VGUST    =  5.
 BlkF: DTHETA   =  3.
 BlkF: dTstab   =  1.
 BlkF: FSTAB    =  0.67
 BlkF: useFluxFormula_AIM= F
 BlkF: calcWindStress  = F
 BlkF: useQnetch       = F
 BlkF: useEmPch        = F
 BlkF: blk_nIter   = 0
 BlkF: blk_taveFreq=  31104000.
(PID.TID 0000.0001)  THSICE_READPARMS: opening data.ice
(PID.TID 0000.0001)  OPEN_COPY_DATA_FILE: opening file data.ice
(PID.TID 0000.0001) // =======================================================
(PID.TID 0000.0001) // Parameter file "data.ice"
(PID.TID 0000.0001) // =======================================================
(PID.TID 0000.0001) > &THSICE_CONST
(PID.TID 0000.0001) > Tf0kel  = 273.15,
(PID.TID 0000.0001) >#- with LANL albedo:
(PID.TID 0000.0001) >#albWarmSnow= 0.75,
(PID.TID 0000.0001) >#- for full ice-fraction :
(PID.TID 0000.0001) >#fracEnMelt = 0.,
(PID.TID 0000.0001) >#iceMaskMin = 1.,
(PID.TID 0000.0001) >#hThinIce   = 0.01,
(PID.TID 0000.0001) >#hThickIce  = 100.,
(PID.TID 0000.0001) >#- with fractional ice:
(PID.TID 0000.0001) > iceMaskMin = 0.05,
(PID.TID 0000.0001) > hiMax      = 10.,
(PID.TID 0000.0001) > hsMax      = 10.,
(PID.TID 0000.0001) >#albIceMax  = 0.7,
(PID.TID 0000.0001) >#albIceMin  = 0.7,
(PID.TID 0000.0001) > &
(PID.TID 0000.0001) >
(PID.TID 0000.0001) > &THSICE_PARM01
(PID.TID 0000.0001) >#StartIceModel=1,
(PID.TID 0000.0001) > stressReduction=0.,
(PID.TID 0000.0001) >#thSIce_taveFreq=2592000.,
(PID.TID 0000.0001) >#thSIce_diagFreq=2592000.,
(PID.TID 0000.0001) >#thSIce_monFreq=864000.,
(PID.TID 0000.0001) > &
(PID.TID 0000.0001) >
(PID.TID 0000.0001) 
(PID.TID 0000.0001)  THSICE_READPARMS: read THSICE_CONST
(PID.TID 0000.0001)  THSICE_READPARMS: read THSICE_PARM01
 ThSI: rhos      =  330.
 ThSI: rhoi      =  900.
 ThSI: rhosw     =  1035.
 ThSI: rhofw     =  1000.
 ThSI: rhoiw     =  135.
 ThSI: cpIce     =  2106.
 ThSI: cpWater   =  3994.
 ThSI: kIce      =  2.03
 ThSI: kSnow     =  0.3
 ThSI: bMeltCoef =  0.006
 ThSI: Lfresh    =  334000.
 ThSI: qsnow     =  334000.
 ThSI: albColdSnow=  0.85
 ThSI: albWarmSnow=  0.7
 ThSI: tempSnowAlb= -10.
 ThSI: albOldSnow =  0.55
 ThSI: hNewSnowAge=  0.002
 ThSI: snowAgTime =  4320000.
 ThSI: albIceMax =  0.65
 ThSI: albIceMin =  0.2
 ThSI: hAlbIce   =  0.5
 ThSI: hAlbSnow  =  0.3
 ThSI: i0swFrac  =  0.3
 ThSI: ksolar    =  1.5
 ThSI: dhSnowLin =  0.
 ThSI: saltIce   =  4.
 ThSI: S_winton  =  1.
 ThSI: mu_Tf     =  0.054
 ThSI: Tf0kel    =  273.15
 ThSI: Tmlt1     = -0.054
 ThSI: Terrmax   =  0.5
 ThSI: nitMaxTsf = 20
 ThSI: hIceMin   =  0.01
 ThSI: hiMax     =  10.
 ThSI: hsMax     =  10.
 ThSI: iceMaskMax =  1.
 ThSI: iceMaskMin =  0.05
 ThSI: fracEnMelt =  0.4
 ThSI: fracEnFreez=  0.
 ThSI: hThinIce   =  0.2
 ThSI: hThickIce  =  2.5
 ThSI: hNewIceMax =  10.
 ThSI: stressReduction =  0.
 ThSI: thSIceAdvScheme = 0
 ThSI: thSIce_diffK  =  0.
 ThSI: thSIce_deltaT =  86400.
 ThSI: ocean_deltaT  =  86400.
 ThSI: stepFwd_oceMxL= F
 ThSI: tauRelax_MxL  =  0.
 ThSI: hMxL_default  =  50.
 ThSI: sMxL_default  =  35.
 ThSI: vMxL_default  =  0.05
 ThSI: thSIce_taveFreq=  31104000.
 ThSI: thSIce_diagFreq=  31104000.
 ThSI: thSIce_monFreq =  1.
 ThSI: startIceModel = 0
(PID.TID 0000.0001)  DIAGNOSTICS_READPARMS: opening data.diagnostics
(PID.TID 0000.0001)  OPEN_COPY_DATA_FILE: opening file data.diagnostics
(PID.TID 0000.0001) // =======================================================
(PID.TID 0000.0001) // Parameter file "data.diagnostics"
(PID.TID 0000.0001) // =======================================================
(PID.TID 0000.0001) ># Diagnostic Package Choices
(PID.TID 0000.0001) >#-----------------
(PID.TID 0000.0001) ># for each output-stream:
(PID.TID 0000.0001) >#  filename(n) : prefix of the output file name (only 8.c long) for outp.stream n
(PID.TID 0000.0001) >#  frequency(n):< 0 : write snap-shot output every |frequency| seconds
(PID.TID 0000.0001) >#               > 0 : write time-average output every frequency seconds
(PID.TID 0000.0001) >#  timePhase(n)     : write at time = timePhase + multiple of |frequency|
(PID.TID 0000.0001) >#  averagingFreq(n) : frequency (in s) for periodic averaging interval
(PID.TID 0000.0001) >#  averagingPhase(n): phase     (in s) for periodic averaging interval
(PID.TID 0000.0001) >#  repeatCycle(n)   : number of averaging intervals in 1 cycle
(PID.TID 0000.0001) >#  levels(:,n) : list of levels to write to file (Notes: declared as REAL)
(PID.TID 0000.0001) >#                 when this entry is missing, select all common levels of this list
(PID.TID 0000.0001) >#  fields(:,n) : list of diagnostics fields (8.c) (see "available_diagnostics.log"
(PID.TID 0000.0001) >#                 file for the list of all available diag. in this particular config)
(PID.TID 0000.0001) >#-----------------
(PID.TID 0000.0001) > &DIAGNOSTICS_LIST
(PID.TID 0000.0001) ># diag_mnc     = .FALSE.,
(PID.TID 0000.0001) ># dumpAtLast   = .TRUE.,
(PID.TID 0000.0001) >   fields(1,1) = 'ETAN    ','ETANSQ  ','DETADT2 ','PHIBOT  ','PHIBOTSQ',
(PID.TID 0000.0001) >                 'oceTAUX ','oceTAUY ','TFLUX   ','SFLUX   ','oceFreez',
(PID.TID 0000.0001) >                 'TRELAX  ','SRELAX  ',
(PID.TID 0000.0001) >   levels(1,1) = 1.,
(PID.TID 0000.0001) >   filename(1) = 'surfDiag',
(PID.TID 0000.0001) >  frequency(1) = 1555200000.,
(PID.TID 0000.0001) >   fields(1,2) = 'UVEL    ','VVEL    ','WVEL    ','PHIHYD  ',
(PID.TID 0000.0001) >                 'VVELMASS','UVELMASS','WVELSQ  ',
(PID.TID 0000.0001) >                 'THETA   ','UTHMASS ','VTHMASS ','WTHMASS ',
(PID.TID 0000.0001) >                 'SALT    ','USLTMASS','VSLTMASS','WSLTMASS',
(PID.TID 0000.0001) ># do not specify levels => all levels are selected
(PID.TID 0000.0001) >   filename(2) = 'dynDiag',
(PID.TID 0000.0001) >  frequency(2) = 1555200000.,
(PID.TID 0000.0001) >   fields(1,3) = 'DRHODR  ','RHOAnoma','CONVADJ ',
(PID.TID 0000.0001) >                 'GM_PsiX ','GM_PsiY ',
(PID.TID 0000.0001) >                 'GM_Kwx  ','GM_Kwy  ','GM_Kwz  ',
(PID.TID 0000.0001) >                 'GM_Kux  ','GM_Kvy  ',
(PID.TID 0000.0001) >                 'GM_Kuz  ','GM_Kvz  ',
(PID.TID 0000.0001) >#- disable this output list by commenting out the file name
(PID.TID 0000.0001) >#  filename(3) = 'oceDiag',
(PID.TID 0000.0001) >  frequency(3) = 1555200000.,
(PID.TID 0000.0001) >   fields(1,4) = 'ADVx_TH ','ADVy_TH ','ADVr_TH ',
(PID.TID 0000.0001) >                 'DFxE_TH ','DFyE_TH ','DFrE_TH ',
(PID.TID 0000.0001) >                 'DFrI_TH ',
(PID.TID 0000.0001) >#                'ADVx_SLT',
(PID.TID 0000.0001) >#  filename(4) = 'flxDiag',
(PID.TID 0000.0001) >  frequency(4) = 1728000.,
(PID.TID 0000.0001) >   fields(1,5) = 'SI_Fract','SI_Thick','SI_SnowH',
(PID.TID 0000.0001) >                 'SI_Tsrf ','SI_Tice1','SI_Tice2',
(PID.TID 0000.0001) >                 'SI_Qice1','SI_Qice2','SIsnwAge',
(PID.TID 0000.0001) >                 'SIsnwPrc','SIalbedo',
(PID.TID 0000.0001) >                 'SIflx2oc','SIfrw2oc','SIsaltFx',
(PID.TID 0000.0001) >                 'SIflxAtm','SIfrwAtm',
(PID.TID 0000.0001) >#                'SItOcMxL','SIsOcMxL',
(PID.TID 0000.0001) >   filename(5) = 'thSIceDiag',
(PID.TID 0000.0001) >  frequency(5) = 1555200000.,
(PID.TID 0000.0001) > averagingFreq(5) = 2592000.,
(PID.TID 0000.0001) >   repeatCycle(5) = 12,
(PID.TID 0000.0001) >#--- to check conservation of Volume, Heat & Salt (with z*+realFW+AB_2):
(PID.TID 0000.0001) >   fields(1,6) = 'ETAN    ','oceFWflx',
(PID.TID 0000.0001) >   filename(6) = 'surfInst',
(PID.TID 0000.0001) >  frequency(6) = -777600.,
(PID.TID 0000.0001) >  timePhase(6) = 0.,
(PID.TID 0000.0001) >   fields(1,7) = 'ETAN    ',
(PID.TID 0000.0001) >   filename(7) = 'etaInst',
(PID.TID 0000.0001) >  frequency(7) = -777600.,
(PID.TID 0000.0001) >  timePhase(7) = 86400.,
(PID.TID 0000.0001) >   fields(1,8) = 'THETA   ','SALT    ',
(PID.TID 0000.0001) >   filename(8) = 'dynInst',
(PID.TID 0000.0001) >  frequency(8) = -777600.,
(PID.TID 0000.0001) >  timePhase(8) = 0.,
(PID.TID 0000.0001) > &
(PID.TID 0000.0001) >
(PID.TID 0000.0001) ># Parameter for Diagnostics of per level statistics:
(PID.TID 0000.0001) >#-----------------
(PID.TID 0000.0001) ># for each output-stream:
(PID.TID 0000.0001) >#  stat_fname(n) : prefix of the output file name (only 8.c long) for outp.stream n
(PID.TID 0000.0001) >#  stat_freq(n):< 0 : write snap-shot output every |stat_freq| seconds
(PID.TID 0000.0001) >#               > 0 : write time-average output every stat_freq seconds
(PID.TID 0000.0001) >#  stat_phase(n)    : write at time = stat_phase + multiple of |stat_freq|
(PID.TID 0000.0001) >#  stat_region(:,n) : list of "regions" (default: 1 region only=global)
(PID.TID 0000.0001) >#  stat_fields(:,n) : list of diagnostics fields (8.c) (see "available_diagnostics.log"
(PID.TID 0000.0001) >#                 file for the list of all available diag. in this particular config)
(PID.TID 0000.0001) >#-----------------
(PID.TID 0000.0001) > &DIAG_STATIS_PARMS
(PID.TID 0000.0001) >#- regional mask: 3 lat. band: 1 : y <= -24 ; 2 : -24<y<24 ; 3 : 24 <= y
(PID.TID 0000.0001) > diagSt_regMaskFile='regMask_lat24.bin',
(PID.TID 0000.0001) > nSetRegMskFile=1,
(PID.TID 0000.0001) > set_regMask(1)= 1,  1,  1,
(PID.TID 0000.0001) > val_regMask(1)= 1., 2., 3.,
(PID.TID 0000.0001) >#---
(PID.TID 0000.0001) > stat_fields(1,1)= 'ETAN    ','ETANSQ  ','DETADT2 ',
(PID.TID 0000.0001) >#                  'UVEL    ','VVEL    ','WVEL    ',
(PID.TID 0000.0001) >                   'THETA   ','SALT    ','CONVADJ ',
(PID.TID 0000.0001) >    stat_fname(1)= 'dynStDiag',
(PID.TID 0000.0001) >     stat_freq(1)= 864000.,
(PID.TID 0000.0001) >#--- to check conservation of Volume, Heat & Salt (with z*+realFW+AB_2):
(PID.TID 0000.0001) > stat_fields(1,2)= 'oceTAUX ','oceTAUY ','TRELAX  ','SRELAX  ',
(PID.TID 0000.0001) >                   'surForcT','surForcS','TFLUX   ','SFLUX   ',
(PID.TID 0000.0001) >                   'oceQnet ','oceSflux','oceFWflx',
(PID.TID 0000.0001) >    stat_fname(2)= 'surfStDiag',
(PID.TID 0000.0001) >     stat_freq(2)= 777600.,
(PID.TID 0000.0001) >    stat_phase(2)= 86400.,
(PID.TID 0000.0001) > stat_fields(1,3)= 'ETAN    ','THETA   ','SALT    ',
(PID.TID 0000.0001) >    stat_fname(3)= 'instStDiag',
(PID.TID 0000.0001) >     stat_freq(3)= -777600.,
(PID.TID 0000.0001) >    stat_phase(3)= 86400.,
(PID.TID 0000.0001) >#---
(PID.TID 0000.0001) > stat_fields(1,5)= 'SI_Fract','SI_Thick','SI_SnowH',
(PID.TID 0000.0001) >                   'SI_Tsrf ','SI_Tice1','SI_Tice2',
(PID.TID 0000.0001) >                   'SI_Qice1','SI_Qice2',
(PID.TID 0000.0001) >                   'SIsnwPrc','SIalbedo','SIsnwAge',
(PID.TID 0000.0001) >                   'SIflx2oc','SIfrw2oc','SIsaltFx',
(PID.TID 0000.0001) >                   'SIflxAtm','SIfrwAtm',
(PID.TID 0000.0001) >#                  'SItOcMxL','SIsOcMxL',
(PID.TID 0000.0001) > stat_region(1,5)= 1, 3, 0,
(PID.TID 0000.0001) >    stat_fname(5)= 'thSIceStDiag',
(PID.TID 0000.0001) >     stat_freq(5)= 864000.,
(PID.TID 0000.0001) > &
(PID.TID 0000.0001) >
(PID.TID 0000.0001) 
(PID.TID 0000.0001) S/R DIAGNOSTICS_READPARMS, read namelist "diagnostics_list": start
(PID.TID 0000.0001) S/R DIAGNOSTICS_READPARMS, read namelist "diagnostics_list": OK
(PID.TID 0000.0001) S/R DIAGNOSTICS_READPARMS, read namelist "DIAG_STATIS_PARMS": start
(PID.TID 0000.0001) S/R DIAGNOSTICS_READPARMS, read namelist "DIAG_STATIS_PARMS": OK
(PID.TID 0000.0001) -----------------------------------------------------
(PID.TID 0000.0001)  DIAGNOSTICS_READPARMS: active diagnostics summary:
(PID.TID 0000.0001) -----------------------------------------------------
(PID.TID 0000.0001) Creating Output Stream: surfDiag
(PID.TID 0000.0001) Output Frequency:1555200000.000000 ; Phase:          0.000000
(PID.TID 0000.0001)  Averaging Freq.:1555200000.000000 , Phase:          0.000000 , Cycle:  1
(PID.TID 0000.0001)  Levels:       1.
(PID.TID 0000.0001) Fields:    ETAN     ETANSQ   DETADT2  PHIBOT   PHIBOTSQ oceTAUX  oceTAUY  TFLUX    SFLUX    oceFreez
(PID.TID 0000.0001) Fields:    TRELAX   SRELAX
(PID.TID 0000.0001) Creating Output Stream: dynDiag
(PID.TID 0000.0001) Output Frequency:1555200000.000000 ; Phase:          0.000000
(PID.TID 0000.0001)  Averaging Freq.:1555200000.000000 , Phase:          0.000000 , Cycle:  1
(PID.TID 0000.0001)  Levels:    will be set later
(PID.TID 0000.0001) Fields:    UVEL     VVEL     WVEL     PHIHYD   VVELMASS UVELMASS WVELSQ   THETA    UTHMASS  VTHMASS
(PID.TID 0000.0001) Fields:    WTHMASS  SALT     USLTMASS VSLTMASS WSLTMASS
(PID.TID 0000.0001) Creating Output Stream: thSIceDiag
(PID.TID 0000.0001) Output Frequency:1555200000.000000 ; Phase:          0.000000
(PID.TID 0000.0001)  Averaging Freq.:   2592000.000000 , Phase:          0.000000 , Cycle: 12
(PID.TID 0000.0001)  Levels:    will be set later
(PID.TID 0000.0001) Fields:    SI_Fract SI_Thick SI_SnowH SI_Tsrf  SI_Tice1 SI_Tice2 SI_Qice1 SI_Qice2 SIsnwAge SIsnwPrc
(PID.TID 0000.0001) Fields:    SIalbedo SIflx2oc SIfrw2oc SIsaltFx SIflxAtm SIfrwAtm
(PID.TID 0000.0001) Creating Output Stream: surfInst
(PID.TID 0000.0001) Output Frequency:   -777600.000000 ; Phase:          0.000000
(PID.TID 0000.0001)  Averaging Freq.:         0.000000 , Phase:          0.000000 , Cycle:  1
(PID.TID 0000.0001)  Levels:    will be set later
(PID.TID 0000.0001) Fields:    ETAN     oceFWflx
(PID.TID 0000.0001) Creating Output Stream: etaInst
(PID.TID 0000.0001) Output Frequency:   -777600.000000 ; Phase:      86400.000000
(PID.TID 0000.0001)  Averaging Freq.:         0.000000 , Phase:          0.000000 , Cycle:  1
(PID.TID 0000.0001)  Levels:    will be set later
(PID.TID 0000.0001) Fields:    ETAN
(PID.TID 0000.0001) Creating Output Stream: dynInst
(PID.TID 0000.0001) Output Frequency:   -777600.000000 ; Phase:          0.000000
(PID.TID 0000.0001)  Averaging Freq.:         0.000000 , Phase:          0.000000 , Cycle:  1
(PID.TID 0000.0001)  Levels:    will be set later
(PID.TID 0000.0001) Fields:    THETA    SALT
(PID.TID 0000.0001) -----------------------------------------------------
(PID.TID 0000.0001)  DIAGNOSTICS_READPARMS: statistics diags. summary:
(PID.TID 0000.0001) Creating Stats. Output Stream: dynStDiag
(PID.TID 0000.0001) Output Frequency:    864000.000000 ; Phase:          0.000000
(PID.TID 0000.0001)  Regions :    0
(PID.TID 0000.0001)  Fields:    ETAN     ETANSQ   DETADT2  THETA    SALT     CONVADJ
(PID.TID 0000.0001) Creating Stats. Output Stream: surfStDiag
(PID.TID 0000.0001) Output Frequency:    777600.000000 ; Phase:      86400.000000
(PID.TID 0000.0001)  Regions :    0
(PID.TID 0000.0001)  Fields:    oceTAUX  oceTAUY  TRELAX   SRELAX   surForcT surForcS TFLUX    SFLUX    oceQnet  oceSflux oceFWflx
(PID.TID 0000.0001) Creating Stats. Output Stream: instStDiag
(PID.TID 0000.0001) Output Frequency:   -777600.000000 ; Phase:      86400.000000
(PID.TID 0000.0001)  Regions :    0
(PID.TID 0000.0001)  Fields:    ETAN     THETA    SALT
(PID.TID 0000.0001) Creating Stats. Output Stream: thSIceStDiag
(PID.TID 0000.0001) Output Frequency:    864000.000000 ; Phase:          0.000000
(PID.TID 0000.0001)  Regions :    0  1  3
(PID.TID 0000.0001)  Fields:    SI_Fract SI_Thick SI_SnowH SI_Tsrf  SI_Tice1 SI_Tice2 SI_Qice1 SI_Qice2 SIsnwPrc SIalbedo SIsnwAge SIflx2oc SIfrw2oc SIsaltFx SIflxAtm SIfrwAtm
(PID.TID 0000.0001) -----------------------------------------------------
(PID.TID 0000.0001) 
(PID.TID 0000.0001) SET_PARMS: done
(PID.TID 0000.0001) Enter INI_VERTICAL_GRID: setInterFDr=    T ; setCenterDr=    F
(PID.TID 0000.0001) tile:   1 ; Read from file grid_cs32.face001.bin
(PID.TID 0000.0001)   => xC yC dxF dyF rA xG yG dxV dyU rAz dxC dyC rAw rAs dxG dyG AngleCS AngleSN
(PID.TID 0000.0001) tile:   2 ; Read from file grid_cs32.face002.bin
(PID.TID 0000.0001)   => xC yC dxF dyF rA xG yG dxV dyU rAz dxC dyC rAw rAs dxG dyG AngleCS AngleSN
(PID.TID 0000.0001) tile:   3 ; Read from file grid_cs32.face003.bin
(PID.TID 0000.0001)   => xC yC dxF dyF rA xG yG dxV dyU rAz dxC dyC rAw rAs dxG dyG AngleCS AngleSN
(PID.TID 0000.0001) tile:   4 ; Read from file grid_cs32.face004.bin
(PID.TID 0000.0001)   => xC yC dxF dyF rA xG yG dxV dyU rAz dxC dyC rAw rAs dxG dyG AngleCS AngleSN
(PID.TID 0000.0001) tile:   5 ; Read from file grid_cs32.face005.bin
(PID.TID 0000.0001)   => xC yC dxF dyF rA xG yG dxV dyU rAz dxC dyC rAw rAs dxG dyG AngleCS AngleSN
(PID.TID 0000.0001) tile:   6 ; Read from file grid_cs32.face006.bin
(PID.TID 0000.0001)   => xC yC dxF dyF rA xG yG dxV dyU rAz dxC dyC rAw rAs dxG dyG AngleCS AngleSN
(PID.TID 0000.0001) %MON XC_max                       =   1.7854351589505E+02
(PID.TID 0000.0001) %MON XC_min                       =  -1.7854351589505E+02
(PID.TID 0000.0001) %MON XC_mean                      =  -4.6999441375798E-15
(PID.TID 0000.0001) %MON XC_sd                        =   1.0355545336287E+02
(PID.TID 0000.0001) %MON XG_max                       =   1.8000000000000E+02
(PID.TID 0000.0001) %MON XG_min                       =  -1.7708797161002E+02
(PID.TID 0000.0001) %MON XG_mean                      =   1.8796250616675E+00
(PID.TID 0000.0001) %MON XG_sd                        =   1.0410625309932E+02
(PID.TID 0000.0001) %MON DXC_max                      =   3.2375185836900E+05
(PID.TID 0000.0001) %MON DXC_min                      =   1.1142031410131E+05
(PID.TID 0000.0001) %MON DXC_mean                     =   2.8605689051214E+05
(PID.TID 0000.0001) %MON DXC_sd                       =   3.4042087138252E+04
(PID.TID 0000.0001) %MON DXF_max                      =   3.2369947500827E+05
(PID.TID 0000.0001) %MON DXF_min                      =   1.2020820513318E+05
(PID.TID 0000.0001) %MON DXF_mean                     =   2.8605437324820E+05
(PID.TID 0000.0001) %MON DXF_sd                       =   3.4050524252539E+04
(PID.TID 0000.0001) %MON DXG_max                      =   3.2375195872773E+05
(PID.TID 0000.0001) %MON DXG_min                      =   1.0098378008791E+05
(PID.TID 0000.0001) %MON DXG_mean                     =   2.8603818508931E+05
(PID.TID 0000.0001) %MON DXG_sd                       =   3.4140406908005E+04
(PID.TID 0000.0001) %MON DXV_max                      =   3.2380418162750E+05
(PID.TID 0000.0001) %MON DXV_min                      =   8.0152299824136E+04
(PID.TID 0000.0001) %MON DXV_mean                     =   2.8603970633619E+05
(PID.TID 0000.0001) %MON DXV_sd                       =   3.4145142117723E+04
(PID.TID 0000.0001) %MON YC_max                       =   8.7940663871962E+01
(PID.TID 0000.0001) %MON YC_min                       =  -8.7940663871962E+01
(PID.TID 0000.0001) %MON YC_mean                      =   0.0000000000000E+00
(PID.TID 0000.0001) %MON YC_sd                        =   3.8676242969072E+01
(PID.TID 0000.0001) %MON YG_max                       =   9.0000000000000E+01
(PID.TID 0000.0001) %MON YG_min                       =  -9.0000000000000E+01
(PID.TID 0000.0001) %MON YG_mean                      =  -1.2094344438470E-15
(PID.TID 0000.0001) %MON YG_sd                        =   3.9086186579984E+01
(PID.TID 0000.0001) %MON DYC_max                      =   3.2375185836900E+05
(PID.TID 0000.0001) %MON DYC_min                      =   1.1142031410131E+05
(PID.TID 0000.0001) %MON DYC_mean                     =   2.8605689051214E+05
(PID.TID 0000.0001) %MON DYC_sd                       =   3.4042087138252E+04
(PID.TID 0000.0001) %MON DYF_max                      =   3.2369947500827E+05
(PID.TID 0000.0001) %MON DYF_min                      =   1.2020820513318E+05
(PID.TID 0000.0001) %MON DYF_mean                     =   2.8605437324820E+05
(PID.TID 0000.0001) %MON DYF_sd                       =   3.4050524252539E+04
(PID.TID 0000.0001) %MON DYG_max                      =   3.2375195872773E+05
(PID.TID 0000.0001) %MON DYG_min                      =   1.0098378008791E+05
(PID.TID 0000.0001) %MON DYG_mean                     =   2.8603818508931E+05
(PID.TID 0000.0001) %MON DYG_sd                       =   3.4140406908005E+04
(PID.TID 0000.0001) %MON DYU_max                      =   3.2380418162750E+05
(PID.TID 0000.0001) %MON DYU_min                      =   8.0152299824136E+04
(PID.TID 0000.0001) %MON DYU_mean                     =   2.8603970633619E+05
(PID.TID 0000.0001) %MON DYU_sd                       =   3.4145142117723E+04
(PID.TID 0000.0001) %MON RA_max                       =   1.0479260248419E+11
(PID.TID 0000.0001) %MON RA_min                       =   1.4019007022556E+10
(PID.TID 0000.0001) %MON RA_mean                      =   8.2992246709265E+10
(PID.TID 0000.0001) %MON RA_sd                        =   1.7509089299457E+10
(PID.TID 0000.0001) %MON RAW_max                      =   1.0480965274559E+11
(PID.TID 0000.0001) %MON RAW_min                      =   1.2166903467143E+10
(PID.TID 0000.0001) %MON RAW_mean                     =   8.2992246709235E+10
(PID.TID 0000.0001) %MON RAW_sd                       =   1.7481917919656E+10
(PID.TID 0000.0001) %MON RAS_max                      =   1.0480965274559E+11
(PID.TID 0000.0001) %MON RAS_min                      =   1.2166903467143E+10
(PID.TID 0000.0001) %MON RAS_mean                     =   8.2992246709235E+10
(PID.TID 0000.0001) %MON RAS_sd                       =   1.7481917919656E+10
(PID.TID 0000.0001) %MON RAZ_max                      =   1.0484349334619E+11
(PID.TID 0000.0001) %MON RAZ_min                      =   8.8317900612505E+09
(PID.TID 0000.0001) %MON RAZ_mean                     =   8.2992246709235E+10
(PID.TID 0000.0001) %MON RAZ_sd                       =   1.7482297311044E+10
(PID.TID 0000.0001) %MON AngleCS_max                  =   9.9999994756719E-01
(PID.TID 0000.0001) %MON AngleCS_min                  =  -9.9968286884824E-01
(PID.TID 0000.0001) %MON AngleCS_mean                 =   3.3078850405987E-01
(PID.TID 0000.0001) %MON AngleCS_sd                   =   6.2496317138039E-01
(PID.TID 0000.0001) %MON AngleSN_max                  =   9.9968286884824E-01
(PID.TID 0000.0001) %MON AngleSN_min                  =  -9.9999994756719E-01
(PID.TID 0000.0001) %MON AngleSN_mean                 =  -3.3078850405987E-01
(PID.TID 0000.0001) %MON AngleSN_sd                   =   6.2496317138039E-01
(PID.TID 0000.0001)  MDS_READ_FIELD: opening global file: bathy_Hmin50.bin
(PID.TID 0000.0001) // =======================================================
(PID.TID 0000.0001) // Field Model R_low (ini_masks_etc) at iteration          1
(PID.TID 0000.0001) // CMIN =         -5.200000000000000E+03
(PID.TID 0000.0001) // CMAX =         -5.000000000000000E+01
(PID.TID 0000.0001) // CINT =          1.907407407407407E+02
(PID.TID 0000.0001) // SYMBOLS (CMIN->CMAX): -abcdefghijklmnopqrstuvwxyz+
(PID.TID 0000.0001) //                  0.0: .
(PID.TID 0000.0001) // RANGE I (Lo:Hi:Step):(  -3: 196:   1)
(PID.TID 0000.0001) // RANGE J (Lo:Hi:Step):(  36:  -3:  -1)
(PID.TID 0000.0001) // RANGE K (Lo:Hi:Step):(   1:   1:   1)
(PID.TID 0000.0001) // =======================================================
(PID.TID 0000.0001) K =   1
(PID.TID 0000.0001) //                I=6       I=16      I=26      I=36      I=38      I=48      I=58      I=68      I=70      I=80      I=90      I=100     I=102     I=112     I=122     I=132     I=134     I=144     I=154     I=164     I=166     I=176     I=186     I=196
(PID.TID 0000.0001) // |--J--|321012345|789012345|789012345|789012345|901234567|901234567|901234567|901234567|123456789|123456789|123456789|123456789|345678901|345678901|345678901|345678901|567890123|567890123|567890123|567890123|789012345|789012345|789012345|789012345|
(PID.TID 0000.0001) //     36 cbbc-ddcbcdehkhhmn..++..................................................okn.skko--a-fc----bba-cp.............tfeecccbbdeecccbbdeddedcdcccdddcddffggghiggfffdeeffijlihjlica---a--cgffel.+edfgeedflcbahgfllcbahgfllfhdffhkfffca-aady...llnabdoa--a
(PID.TID 0000.0001) //     35 dcac--cbbeefjkfefw+..........zpu........................................kqnzrqqk--b-da----bbbbfu..............fdddccaadcddccaadcdddcbbbbcdddcccdffffghgffffddefflligfiljfba---aafddehy...pwvlhfffcbagfccfcbagfcceeffffjlkjgaa---bfvheeln-aesaaab
(PID.TID 0000.0001) //     34 d--ba-abcehjnldcclz+........spps.......................................vkqn+xnnncabbcbba--aabfu+..............hcbaaaaaccbaaaaaccdccbaaabbddddccdffffghfeeeeedeffjiffefilhfcaaaacgceei.......zomggfcaecbbgfcaecbbccddefilihecbaacbaajfega-aesfeed
(PID.TID 0000.0001) //     33 --abbbccceiomkfdbbc+.......+s..........................................xsrxzz+z.fdcddb-----adu+...............hcbaa--accbaa--accddba--bbbddddccdfffhhgfeeddcceddhfeddfgikhfffdfgccffw........zohhgebbaaahgebbaaaaaccdfhlhfefdcccaabjefbaaafoosso
(PID.TID 0000.0001) //     32 --bddefhhkqqlgfaakqz..v.+..+.........................................++..u+....zigfdba----adu+................kdcaaa-acccaaa-accdcb---bbbcdddddefffggfeeedcccccbccbbdcdfgghhiihcbeiw.........+ynjgebaaaajgebaaaa-aacccfikkhecccbbbaaabaadfklnqpp
(PID.TID 0000.0001) //     31 abbcffijnpnqneaaat..umrr+s.z.........................................+++++.ztsvdlifeb--dfdfu+................+lkdca--abcdca--abcccb---bbbbddddeffflhfeeeecbbbbaaba-abbacbcdceffbbfw+..........++ujfbaaa-ujfbaaa----aacffiljgfffcca--adfikkiihhhf
(PID.TID 0000.0001) //     30 --adgillkkkifcadcx.ymmqzqikvnnps.....................................+++++wmegt-jlifcacdlqx+++...............mligea---abgea---abbbb---abaaddddeedkmeddefdbbbaaaabc---b--aaaaabaabm..............+viba---+viba-------acdefinmlgiieb-chnnnmlmlgffc
(PID.TID 0000.0001) //     29 --cfiljigfjd--efdozy...+ximpnnuz......................................+++yqddhp-iljhcbbchz+......++.........+mmhffc----affc----aaba------acdddcbcineddgdbaaa----cdd--a------aa-bfz...............+qe---a.+qe---aa---aedeegknmlgiigcdfhpokkimlfdb
(PID.TID 0000.0001) //     28 -abgkhfcccea-bdei........t............................................++zwgfcfk-gknhccbbhwwy.....+++........+njfeed-----eed-----aa-------abddcabcnfddegcaaa-----hlf------------dk+................+ja---..+ja------bffdddehfd--bedaacfhpnligiihd
(PID.TID 0000.0001) //     27 -acghfbaaaa-achmy......................+.......+++....................++vnbbbclefkpkeeecflmqxy....++........+lhfeecc----eecc------------aaadcbabcfhddccba-------zqd-----------irw.................++e---..++e-----mhmijddda--------ahhfiokhedegg
(PID.TID 0000.0001) //     26 -adhfca-----bfiv.......................+.......++sy...................+tq-fdbblcjknqiheddefhiksz++++........zkhfdccb----dccb------------aabdcaaaacfddbca-------a+xfa-abb-----vvv...................+wa--...+wa---mlmkijhc----------cjjffiheb-aad
(PID.TID 0000.0001) //     25 -achfa------ch+..................w.......w.......njo+................+x-----bcgidiqqojfefiiiijmy.++.........zkhfdbaa----dbaa-------daa---acccaaaacccca--------ac.+udaabbb----tei...................++qde...++qdeqnghiljcaaaaidaa----beedeeca--bb
(PID.TID 0000.0001) //     24 aaeifa--acbcei...................w.......w.......likn+.....++.....++znpa----bbdi-fnlmnjhinlksssw............qhfeca------ca--------addc--aeffaaaaaaccb-a----a--bd.++udbbaba---ven....................++xy....++xywnfgllcbbabegkecba----ddddcaacdc
(PID.TID 0000.0001) //     23 abfida-aabchjk...................zz......zz.....nhhijz....tqq.....+ujgzgd---abci-cegklkkknols..xuu..........zgfdba------ba--------bcd---affaaadffabbb-----aa-bcc.+.+ufb-----l.gx...........s.........++z.....++zzkfilfccccoz..ulkcd---bccnfddddd
(PID.TID 0000.0001) //     22 -afhfaa---bfgi....................zz..rn..zz..rnjffggm...nlmn+....+sffzya--aabcieaaffdfhimrmp...yuu.++.......zudba------ba--------adc---dda-adffe-aa--------aaac....+ufc-baaqvhh..........dcfeeh......++......++zggqvifefhz......zobbaccfwuffeee
(PID.TID 0000.0001) //     21 babcgca----abe.....................ysstl...ysstlgeeeeoz..ijklt+....lfjzzf---adfcfdaadcehllotq....yy+++zzs.....+zcba-----cba-------cdd--aaa----df------------aaac.....+upjdcy.vohq.......+idcdfeeefwz....efwz....+hhn.vklox.........gdccfjwrigffh
(PID.TID 0000.0001) //     20 fbbbcgfcaa-aae+.......................lc......lcgfdddhq.+hiilnz++.+oquxyz--adgkfdcaabcfmtooyxz......+yuiiy....++gb------gb--------ddcca-a-----acbaa------bbaaaab........ywxy.lulo.lv...kcdgddffefffilyx+fffilyx+fffk.+xyyy.........mgeimvskjklll
(PID.TID 0000.0001) //     19 zmfeccdghfeegcbt......................aa......aafifccgnrzgghjry.+++sr+lq.--edfkkoxtkblwnnsp.vv......skhggt...+++t-------t---------bdaf---------edd-------adlaaaa+..........vnhzy.tllqiedccdhggfggffiiggfgffiiggfcbdgy..yz..........xigqophijkkii
(PID.TID 0000.0001) //     18 ..wifedfkhfegbbcivlqfoz..............jaa.....jaacfihggokeeffgt..++++..hhlfdeddkez..qcz+.zwxtsttz..ysrkhot++++++zig------ig--------b--f---------egqqqaa----frb---+........+kkrhw.vqmlnieddcdehgggffgigedbffgigedbaaceiy.............zilrddefikkhh
(PID.TID 0000.0001) //     17 ..+wfeefikhgcbbccaaacgn.............icaa....icaaccfihfoedddeedy..++...nnqwgfeekeyy.z++..+zsjjllllljllpjos+++.+zhhi-----ehi-----e-----ea--------foqqoqqo--hlwgea-.........+nk+..xiioonhfefddegihhghigfdbaghigfdbaaabdgx..............nheddefiklhg
(PID.TID 0000.0001) //     16 ....wiheddeccdfhfbabdfl............jdbad...jdbaddddgifkccccdccd+.++..++ynvz.tkkq.mu....++zyslllllkhggkmpy++...ihhi-----ehi-----ea---feb-----a-acnoohfghknvmwnuca..........qhu..hhhkojgffgeefghihhiieedbahiieedbaaabcdy..............ygddeghiljgf
(PID.TID 0000.0001) //     15 ......ylea--acfihebcbbes..........sfcbbn..sfcbbngfffigcaaabdbcac+.+++++zgmpx...y.mm....++..zslwz.yhhhhnz+++...rhgc----abgc----ab----ige----acaaalllkddfiy..yswxb..........thk.xgghiligfghfefhhhhiiheedcdiiheedcdbbabdmz.............zfdeghikkifd
(PID.TID 0000.0001) //     14 ........c---acgkhdcc--di..........ofddch..ofddchohffikaaaaabaaa-aw+.+ysnggox++...qrv..........yzzzzrjil+++....qhgd-----agd-----a-----i---cccdeabkklldinqssy..xxv...........+y.uhghikihgfghefgihhhgeeeeedhgeeeeeddbaadhw.............nedeghjjhfed
(PID.TID 0000.0001) //     13 .......+b----cfkhec---afz.........nhfdff..nhfdffholghkaaaaaba-a---flkkuswyy++++y+zr...........zzzzz++ry++......yd-------d--------------aeecdeidfkkqnqlmqquukqqmf..............iihiijjhfefgefhjihiffgggffiffgggffecaabelx...........zjecehijhfecc
(PID.TID 0000.0001) //     12 .......ec----chjhec---ag..........skiqdd..skiqddeiiiifaaabae--a---dd--iu+++.+++sxq++..........+z+++++.+++....++.s-------s------------a-ceccdejhlllkqlkklssiccdee.............wjkkkjjjigeefffgjiiighiiihhighiiihhhdaabdffghtxx......mfccehjiffdb-
(PID.TID 0000.0001) //     11 ......pdca--achlheba--ai..........nkn.fd..nkn.fdemijidaaaabi-------a--q+....++.ziis...........+++++..........+yyza----b-za----b-----a--ccccddkhieekkossssfbbbbcd............njjijhhihijhgggggjjjjijkkkkjjijkkkkjjhcaacddeegpy.....xfdccdhjgfdda-
(PID.TID 0000.0001) //     10 ......wfdb--achlhea---an.........uos..dc.uos..dcemikkfdcaabi-------equ+.........mk...........................zyvuq----ccuq----cc----a---dcfhkopqjeissrnpfbbcccde..........zslihhigghgijjihhhhkllkkkkkkjkkkkkkkjkkkedccdeeeeipz..zwhccbcdhgfddcam
(PID.TID 0000.0001) //      9 ......vgec---bfikca--cjl+.......+nnv.+cc+nnv.+ccffhkkiddaadha-----as++..........pvz++........................zxuuk------uk------a---a----djmqrrnlllsoiddcccccdjf.........+zjijhfgfggffhjkkkiillljihhghgijihhghgihighdeeffgghimnnjgecbbcdgfeccbas
(PID.TID 0000.0001) //      8 .....zleca---afjfca--hdfz.......vkky.jcevkky.jceddefijffdddhb--a-afv............nn..ss.........................+yku-----yku--------------ejnpqqnninnritqdccchkmf+.......wihgghgeffffeefhijkjkljiigeeffefigeeffefffhjhhikkklljklmhffeeeggfdcbaay.
(PID.TID 0000.0001) //      7 ...+zohec--abcfkhecbchbdx.......qiht.faaqiht.faaaabdgijgfededcdcb-f+............nn...pz.........................+zu-----+zu--------------edefqgqddsz+......+yuddmm+....tiggfggfeeeefeeefiiiijkiihhedddddhheddddddddjjllliijhfkmmkkjjhijgdcba--q.
(PID.TID 0000.0001) //      6 ..+yomfddcaabefkifdchaadt......uqdeisc--qdeisc----dfefgifffkklldc--v............up...pp.........................v.x-----v.x---------a----fbbpqgzenx+........zdbcmllkhhfffffffgfeeeeeeeefhhhhijihhffddcbbhffddcbbbbdhhiihedddb-cfhhhjjjieca----+.
(PID.TID 0000.0001) //      5 ..+nhgffkghccfhkhffgdaackz....uoibcimlaaibcimlaaacfbddfjjhijeehf-a-c............zs...su.........................qk.yi---qk.yi-------gha-fjddqs+xkrz.........q-bchikdccdeeeeeeedddedddddgghhhhjhhgffcbbaagffcbbaaaaddfegecca----dfeefhfgdb-----+.
(PID.TID 0000.0001) //      4 .+ujhgfllfhdffhkfffca-aady...llnabdopfcbabdopfcbdgdbcdehlihgfddc--ms............................................okn.zd--okn.zd---eciiiicfkeeqy.ysz..........n-aafgdcbbdeddedcdcccdddcddffggghiggfffdbaa-fffdbaa---acdcccba--abvfedeffdcca----b+.
(PID.TID 0000.0001) //      3 +vjggfcceeffffjlkjgaa---bfvheeln-aesphfd-aesphfdhgabddeflihhgfecbaaayq+++++.....................................kqnz.vtpkqnz.vtpkllgdccfkkkkk..++..........+g---fecaaadcdddcbbbbcdddcccdffffghgffffdcaa-fffdcaa----abcaaaa-acxxmecdjmdbba----r+.
(PID.TID 0000.0001) //      2 qifeecbbccddefilihecbaacbaajfega-aesqhff-aesqhffiea-cdeflkkljifeddcba---bry+...................................vkqn+.sghkqn+.sghfcbcbbbdgfdek.++++.........+l---caaaaaccdccbaaabbddddccdffffghfeeeeecba-eeeecba------baaaa-euwxqdbcdkud-----sy+.
(PID.TID 0000.0001) //      1 ebbbbaaaaaccdfhlhfefdcccaabjefbaaafonhglaafonhglid--adfgkkkklkhffddca-----s++++................................xsrxz.tedsrxz.tedcbbbbaaadddet.++++.........+l------a-accddba--bbbddddccdfffhhgfeeddccba-eddccba-------aaaabgns.qcbcchyzqngll++..
(PID.TID 0000.0001) //      0 -aaaaaaa-aacccfikkhecccbbbaaabaadfkllilmdfkllilmgebaadfijjiiikjhffdcba-----lllgn.............................++..u+..zmd.u+..zmdfbd---a-aeef.xx+..........+++s-------accdcb---bbbcdddddefffggfeeedcccbbaedcccbba----aa--alrwwy.kcbccc+...++++...
(PID.TID 0000.0001) //     -1 --aaaaa----aacffiljgfffcca--adfikkiikimikkiikimiiheccfurkiffhijjigfecb-----l----.............................+++++.z+.wq++.z+.wqgbf-------dgzpoy+........+ys+yrb--aa-abcccb---bbbbddddeffflhfeeeecbbcbbaecbbcbbaa----a--bdflm.yuibbcc.......+...
(PID.TID 0000.0001) //     -2 --aaa-------acdefinmlgiieb-chnnnmlmlfklkmlmlfklklkhednwwsheeghhijjgfdca----g---a.............................+++++wmu++y++wmu++ywn--------fwvmgy+........+r-.+++-abc--abbbb---abaaddddeedkmeddefdbbbdcbadbbbdcbaa-------ba-hv.susfbcc.......+...
(PID.TID 0000.0001) //     -3 a--a---aa---aedeegknmlgiigcdfhpokkimdkmkkkimdkmknoiedcfjvpddegghhhhgfdcbaa-n---a..............................+++yqd.++++yqd.+++zvq--dafz.lqnggw+........+b-....abcc---aaba------acdddcbcineddgdbaaaeedbbaaaeedbaa----------nysqssfcd...........
(PID.TID 0000.0001) // =======================================================
(PID.TID 0000.0001) // END OF FIELD                                          =
(PID.TID 0000.0001) // =======================================================
(PID.TID 0000.0001) 
(PID.TID 0000.0001) // =======================================================
(PID.TID 0000.0001) // Field Model Ro_surf (ini_masks_etc) at iteration          1
(PID.TID 0000.0001) // CMIN =         -7.105427357601002E-15
(PID.TID 0000.0001) // CMAX =         -7.105427357601002E-15
(PID.TID 0000.0001) // CINT =          0.000000000000000E+00
(PID.TID 0000.0001) // SYMBOLS (CMIN->CMAX): -abcdefghijklmnopqrstuvwxyz+
(PID.TID 0000.0001) //                  0.0: .
(PID.TID 0000.0001) // RANGE I (Lo:Hi:Step):(  -3: 196:   1)
(PID.TID 0000.0001) // RANGE J (Lo:Hi:Step):(  36:  -3:  -1)
(PID.TID 0000.0001) // RANGE K (Lo:Hi:Step):(   1:   1:   1)
(PID.TID 0000.0001) // =======================================================
(PID.TID 0000.0001) // =======================================================
(PID.TID 0000.0001) // END OF FIELD                                          =
(PID.TID 0000.0001) // =======================================================
(PID.TID 0000.0001) 
(PID.TID 0000.0001) // =======================================================
(PID.TID 0000.0001) // Field hFacC at iteration          1
(PID.TID 0000.0001) // CMIN =          1.000000000000000E+00
(PID.TID 0000.0001) // CMAX =          1.000000000000000E+00
(PID.TID 0000.0001) // CINT =          0.000000000000000E+00
(PID.TID 0000.0001) // SYMBOLS (CMIN->CMAX): -abcdefghijklmnopqrstuvwxyz+
(PID.TID 0000.0001) //                  0.0: .
(PID.TID 0000.0001) // RANGE I (Lo:Hi:Step):(  -3: 196:   1)
(PID.TID 0000.0001) // RANGE J (Lo:Hi:Step):(  36:  -3:  -1)
(PID.TID 0000.0001) // RANGE K (Lo:Hi:Step):(   1:   1:   1)
(PID.TID 0000.0001) // =======================================================
(PID.TID 0000.0001) // =======================================================
(PID.TID 0000.0001) // END OF FIELD                                          =
(PID.TID 0000.0001) // =======================================================
(PID.TID 0000.0001) 
(PID.TID 0000.0001) // =======================================================
(PID.TID 0000.0001) // Field hFacW at iteration          1
(PID.TID 0000.0001) // CMIN =          1.000000000000000E+00
(PID.TID 0000.0001) // CMAX =          1.000000000000000E+00
(PID.TID 0000.0001) // CINT =          0.000000000000000E+00
(PID.TID 0000.0001) // SYMBOLS (CMIN->CMAX): -abcdefghijklmnopqrstuvwxyz+
(PID.TID 0000.0001) //                  0.0: .
(PID.TID 0000.0001) // RANGE I (Lo:Hi:Step):(  -3: 196:   1)
(PID.TID 0000.0001) // RANGE J (Lo:Hi:Step):(  36:  -3:  -1)
(PID.TID 0000.0001) // RANGE K (Lo:Hi:Step):(   1:   1:   1)
(PID.TID 0000.0001) // =======================================================
(PID.TID 0000.0001) // =======================================================
(PID.TID 0000.0001) // END OF FIELD                                          =
(PID.TID 0000.0001) // =======================================================
(PID.TID 0000.0001) 
(PID.TID 0000.0001) // =======================================================
(PID.TID 0000.0001) // Field hFacS at iteration          1
(PID.TID 0000.0001) // CMIN =          1.000000000000000E+00
(PID.TID 0000.0001) // CMAX =          1.000000000000000E+00
(PID.TID 0000.0001) // CINT =          0.000000000000000E+00
(PID.TID 0000.0001) // SYMBOLS (CMIN->CMAX): -abcdefghijklmnopqrstuvwxyz+
(PID.TID 0000.0001) //                  0.0: .
(PID.TID 0000.0001) // RANGE I (Lo:Hi:Step):(  -3: 196:   1)
(PID.TID 0000.0001) // RANGE J (Lo:Hi:Step):(  36:  -3:  -1)
(PID.TID 0000.0001) // RANGE K (Lo:Hi:Step):(   1:   1:   1)
(PID.TID 0000.0001) // =======================================================
(PID.TID 0000.0001) // =======================================================
(PID.TID 0000.0001) // END OF FIELD                                          =
(PID.TID 0000.0001) // =======================================================
(PID.TID 0000.0001) 
(PID.TID 0000.0001) 
(PID.TID 0000.0001) // ===================================
(PID.TID 0000.0001) // GAD parameters :
(PID.TID 0000.0001) // ===================================
(PID.TID 0000.0001) tempAdvScheme =   /* Temp. Horiz.Advection scheme selector */
(PID.TID 0000.0001)                       2
(PID.TID 0000.0001)     ;
(PID.TID 0000.0001) tempVertAdvScheme =   /* Temp. Vert. Advection scheme selector */
(PID.TID 0000.0001)                       2
(PID.TID 0000.0001)     ;
(PID.TID 0000.0001) tempMultiDimAdvec =   /* use Muti-Dim Advec method for Temp */
(PID.TID 0000.0001)                   F
(PID.TID 0000.0001)     ;
(PID.TID 0000.0001) tempSOM_Advection = /* use 2nd Order Moment Advection for Temp */
(PID.TID 0000.0001)                   F
(PID.TID 0000.0001)     ;
(PID.TID 0000.0001) AdamsBashforthGt = /* apply Adams-Bashforth extrapolation on Gt */
(PID.TID 0000.0001)                   T
(PID.TID 0000.0001)     ;
(PID.TID 0000.0001) AdamsBashforth_T = /* apply Adams-Bashforth extrapolation on Temp */
(PID.TID 0000.0001)                   F
(PID.TID 0000.0001)     ;
(PID.TID 0000.0001) saltAdvScheme =   /* Salt. Horiz.advection scheme selector */
(PID.TID 0000.0001)                       2
(PID.TID 0000.0001)     ;
(PID.TID 0000.0001) saltVertAdvScheme =   /* Salt. Vert. Advection scheme selector */
(PID.TID 0000.0001)                       2
(PID.TID 0000.0001)     ;
(PID.TID 0000.0001) saltMultiDimAdvec =   /* use Muti-Dim Advec method for Salt */
(PID.TID 0000.0001)                   F
(PID.TID 0000.0001)     ;
(PID.TID 0000.0001) saltSOM_Advection = /* use 2nd Order Moment Advection for Salt */
(PID.TID 0000.0001)                   F
(PID.TID 0000.0001)     ;
(PID.TID 0000.0001) AdamsBashforthGs = /* apply Adams-Bashforth extrapolation on Gs */
(PID.TID 0000.0001)                   T
(PID.TID 0000.0001)     ;
(PID.TID 0000.0001) AdamsBashforth_S = /* apply Adams-Bashforth extrapolation on Salt */
(PID.TID 0000.0001)                   F
(PID.TID 0000.0001)     ;
(PID.TID 0000.0001) // ===================================
(PID.TID 0000.0001) ------------------------------------------------------------
(PID.TID 0000.0001) DIAGNOSTICS_SET_LEVELS: done
(PID.TID 0000.0001)  Total Nb of available Diagnostics: ndiagt= 215
(PID.TID 0000.0001)  write list of available Diagnostics to file: available_diagnostics.log
(PID.TID 0000.0001) SETDIAG: Allocate  1 x  1 Levels for Diagnostic #  23 ETAN
(PID.TID 0000.0001) SETDIAG: Allocate  1 x  1 Levels for Diagnostic #  24 ETANSQ
(PID.TID 0000.0001) SETDIAG: Allocate  1 x  1 Levels for Diagnostic #  25 DETADT2
(PID.TID 0000.0001) SETDIAG: Allocate  1 x  1 Levels for Diagnostic #  67 PHIBOT
(PID.TID 0000.0001) SETDIAG: Allocate  1 x  1 Levels for Diagnostic #  68 PHIBOTSQ
(PID.TID 0000.0001) SETDIAG: Allocate  1 x  1 Levels for Diagnostic #  72 oceTAUX
(PID.TID 0000.0001) SETDIAG: Allocate  1 x  1 Levels for Diagnostic #  73 oceTAUY
(PID.TID 0000.0001) SETDIAG: Allocate  1 x  1 Levels for Diagnostic #  85 TFLUX
(PID.TID 0000.0001) SETDIAG: Allocate  1 x  1 Levels for Diagnostic #  86 SFLUX
(PID.TID 0000.0001) SETDIAG: Allocate  1 x  1 Levels for Diagnostic #  80 oceFreez
(PID.TID 0000.0001) SETDIAG: Allocate  1 x  1 Levels for Diagnostic #  81 TRELAX
(PID.TID 0000.0001) SETDIAG: Allocate  1 x  1 Levels for Diagnostic #  82 SRELAX
(PID.TID 0000.0001) SETDIAG: Allocate 15 x  1 Levels for Diagnostic #  30 UVEL
(PID.TID 0000.0001) SETDIAG: Allocate 15 x  1 Levels for Diagnostic #  31 VVEL
(PID.TID 0000.0001) SETDIAG: Allocate 15 x  1 Levels for Diagnostic #  32 WVEL
(PID.TID 0000.0001) SETDIAG: Allocate 15 x  1 Levels for Diagnostic #  65 PHIHYD
(PID.TID 0000.0001) SETDIAG: Allocate 15 x  1 Levels for Diagnostic #  44 VVELMASS
(PID.TID 0000.0001) SETDIAG: Allocate 15 x  1 Levels for Diagnostic #  43 UVELMASS
(PID.TID 0000.0001) SETDIAG: Allocate 15 x  1 Levels for Diagnostic #  38 WVELSQ
(PID.TID 0000.0001) SETDIAG: Allocate 15 x  1 Levels for Diagnostic #  26 THETA
(PID.TID 0000.0001) SETDIAG: Allocate 15 x  1 Levels for Diagnostic #  46 UTHMASS
(PID.TID 0000.0001) SETDIAG: Allocate 15 x  1 Levels for Diagnostic #  47 VTHMASS
(PID.TID 0000.0001) SETDIAG: Allocate 15 x  1 Levels for Diagnostic #  48 WTHMASS
(PID.TID 0000.0001) SETDIAG: Allocate 15 x  1 Levels for Diagnostic #  27 SALT
(PID.TID 0000.0001) SETDIAG: Allocate 15 x  1 Levels for Diagnostic #  49 USLTMASS
(PID.TID 0000.0001) SETDIAG: Allocate 15 x  1 Levels for Diagnostic #  50 VSLTMASS
(PID.TID 0000.0001) SETDIAG: Allocate 15 x  1 Levels for Diagnostic #  51 WSLTMASS
(PID.TID 0000.0001) SETDIAG: Allocate  1 x 12 Levels for Diagnostic # 187 SI_Fract
(PID.TID 0000.0001) SETDIAG: Allocate  1 x 12 Levels for Diagnostic # 188 SI_Thick
(PID.TID 0000.0001) - NOTE - SETDIAG: Counter Diagnostic # 187 SI_Fract has already been set
(PID.TID 0000.0001) SETDIAG: Allocate  1 x 12 Levels for Diagnostic # 189 SI_SnowH
(PID.TID 0000.0001) - NOTE - SETDIAG: Counter Diagnostic # 187 SI_Fract has already been set
(PID.TID 0000.0001) SETDIAG: Allocate  1 x 12 Levels for Diagnostic # 190 SI_Tsrf
(PID.TID 0000.0001) - NOTE - SETDIAG: Counter Diagnostic # 187 SI_Fract has already been set
(PID.TID 0000.0001) SETDIAG: Allocate  1 x 12 Levels for Diagnostic # 191 SI_Tice1
(PID.TID 0000.0001) - NOTE - SETDIAG: Counter Diagnostic # 187 SI_Fract has already been set
(PID.TID 0000.0001) SETDIAG: Allocate  1 x 12 Levels for Diagnostic # 192 SI_Tice2
(PID.TID 0000.0001) - NOTE - SETDIAG: Counter Diagnostic # 187 SI_Fract has already been set
(PID.TID 0000.0001) SETDIAG: Allocate  1 x 12 Levels for Diagnostic # 193 SI_Qice1
(PID.TID 0000.0001) - NOTE - SETDIAG: Counter Diagnostic # 188 SI_Thick has already been set
(PID.TID 0000.0001) SETDIAG: Allocate  1 x 12 Levels for Diagnostic # 194 SI_Qice2
(PID.TID 0000.0001) - NOTE - SETDIAG: Counter Diagnostic # 188 SI_Thick has already been set
(PID.TID 0000.0001) SETDIAG: Allocate  1 x 12 Levels for Diagnostic # 195 SIsnwAge
(PID.TID 0000.0001) SETDIAG: Allocate  1 x 12 Levels for Diagnostic # 198 SIsnwPrc
(PID.TID 0000.0001) SETDIAG: Allocate  1 x 12 Levels for Count.Diag # 196 SI_FrcFx
(PID.TID 0000.0001) SETDIAG: Allocate  1 x 12 Levels for Diagnostic # 197 SIalbedo
(PID.TID 0000.0001) - NOTE - SETDIAG: Counter Diagnostic # 196 SI_FrcFx has already been set
(PID.TID 0000.0001) SETDIAG: Allocate  1 x 12 Levels for Diagnostic # 201 SIflx2oc
(PID.TID 0000.0001) SETDIAG: Allocate  1 x 12 Levels for Diagnostic # 202 SIfrw2oc
(PID.TID 0000.0001) SETDIAG: Allocate  1 x 12 Levels for Diagnostic # 203 SIsaltFx
(PID.TID 0000.0001) SETDIAG: Allocate  1 x 12 Levels for Diagnostic # 199 SIflxAtm
(PID.TID 0000.0001) SETDIAG: Allocate  1 x 12 Levels for Diagnostic # 200 SIfrwAtm
(PID.TID 0000.0001) SETDIAG: Allocate  1 x  1 Levels for Diagnostic #  23 ETAN
(PID.TID 0000.0001) SETDIAG: Allocate  1 x  1 Levels for Diagnostic #  76 oceFWflx
(PID.TID 0000.0001) SETDIAG: Allocate  1 x  1 Levels for Diagnostic #  23 ETAN
(PID.TID 0000.0001) SETDIAG: Allocate 15 x  1 Levels for Diagnostic #  26 THETA
(PID.TID 0000.0001) SETDIAG: Allocate 15 x  1 Levels for Diagnostic #  27 SALT
(PID.TID 0000.0001)   space allocated for all diagnostics:   474 levels
(PID.TID 0000.0001)   set mate pointer for diag #  30  UVEL     , Parms: UU   031MR
(PID.TID 0000.0001)   set mate pointer for diag #  31  VVEL     , Parms: VV   030MR
(PID.TID 0000.0001)   set mate pointer for diag #  44  VVELMASS , Parms: VV   043MR
(PID.TID 0000.0001)   set mate pointer for diag #  43  UVELMASS , Parms: UU   044MR
(PID.TID 0000.0001)   set mate pointer for diag #  46  UTHMASS  , Parms: UU   047MR
(PID.TID 0000.0001)   set mate pointer for diag #  47  VTHMASS  , Parms: VV   046MR
(PID.TID 0000.0001)   set mate pointer for diag #  49  USLTMASS , Parms: UU   050MR
(PID.TID 0000.0001)   set mate pointer for diag #  50  VSLTMASS , Parms: VV   049MR
(PID.TID 0000.0001) DIAGNOSTICS_SET_POINTERS: Set levels for Outp.Stream: dynDiag
(PID.TID 0000.0001)  Levels:       1.   2.   3.   4.   5.   6.   7.   8.   9.  10.  11.  12.  13.  14.  15.
(PID.TID 0000.0001) DIAGNOSTICS_SET_POINTERS: Set levels for Outp.Stream: thSIceDiag
(PID.TID 0000.0001)  Levels:       1.
(PID.TID 0000.0001) DIAGNOSTICS_SET_POINTERS: Set levels for Outp.Stream: surfInst
(PID.TID 0000.0001)  Levels:       1.
(PID.TID 0000.0001) DIAGNOSTICS_SET_POINTERS: Set levels for Outp.Stream: etaInst
(PID.TID 0000.0001)  Levels:       1.
(PID.TID 0000.0001) DIAGNOSTICS_SET_POINTERS: Set levels for Outp.Stream: dynInst
(PID.TID 0000.0001)  Levels:       1.   2.   3.   4.   5.   6.   7.   8.   9.  10.  11.  12.  13.  14.  15.
(PID.TID 0000.0001) DIAGNOSTICS_SET_POINTERS: done
(PID.TID 0000.0001) ------------------------------------------------------------
 DIAGSTATS_SET_REGIONS: start reading region-mask file: regMask_lat24.bin
 DIAGSTATS_SET_REGIONS:  reading set k=  1
(PID.TID 0000.0001)  MDS_READ_FIELD: opening global file: regMask_lat24.bin
 DIAGSTATS_SET_REGIONS:          set k=  1 <= done
(PID.TID 0000.0001) DIAGSTATS_SET_REGIONS: define   3 regions:  1  2  3
(PID.TID 0000.0001) ------------------------------------------------------------
(PID.TID 0000.0001) SETDIAG: Allocate  1 Levels for Stats-Diag #  23 ETAN
(PID.TID 0000.0001) SETDIAG: Allocate  1 Levels for Stats-Diag #  24 ETANSQ
(PID.TID 0000.0001) SETDIAG: Allocate  1 Levels for Stats-Diag #  25 DETADT2
(PID.TID 0000.0001) SETDIAG: Allocate 15 Levels for Stats-Diag #  26 THETA
(PID.TID 0000.0001) SETDIAG: Allocate 15 Levels for Stats-Diag #  27 SALT
(PID.TID 0000.0001) SETDIAG: Allocate 15 Levels for Stats-Diag #  71 CONVADJ
(PID.TID 0000.0001) SETDIAG: Allocate  1 Levels for Stats-Diag #  72 oceTAUX
(PID.TID 0000.0001) SETDIAG: Allocate  1 Levels for Stats-Diag #  73 oceTAUY
(PID.TID 0000.0001) SETDIAG: Allocate  1 Levels for Stats-Diag #  81 TRELAX
(PID.TID 0000.0001) SETDIAG: Allocate  1 Levels for Stats-Diag #  82 SRELAX
(PID.TID 0000.0001) SETDIAG: Allocate  1 Levels for Stats-Diag #  83 surForcT
(PID.TID 0000.0001) SETDIAG: Allocate  1 Levels for Stats-Diag #  84 surForcS
(PID.TID 0000.0001) SETDIAG: Allocate  1 Levels for Stats-Diag #  85 TFLUX
(PID.TID 0000.0001) SETDIAG: Allocate  1 Levels for Stats-Diag #  86 SFLUX
(PID.TID 0000.0001) SETDIAG: Allocate  1 Levels for Stats-Diag #  78 oceQnet
(PID.TID 0000.0001) SETDIAG: Allocate  1 Levels for Stats-Diag #  77 oceSflux
(PID.TID 0000.0001) SETDIAG: Allocate  1 Levels for Stats-Diag #  76 oceFWflx
(PID.TID 0000.0001) SETDIAG: Allocate  1 Levels for Stats-Diag #  23 ETAN
(PID.TID 0000.0001) SETDIAG: Allocate 15 Levels for Stats-Diag #  26 THETA
(PID.TID 0000.0001) SETDIAG: Allocate 15 Levels for Stats-Diag #  27 SALT
(PID.TID 0000.0001) SETDIAG: Allocate  1 Levels for Stats-Diag # 187 SI_Fract
(PID.TID 0000.0001) SETDIAG: Allocate  1 Levels for Stats-Diag # 188 SI_Thick
(PID.TID 0000.0001) - NOTE - SETDIAG: Counter Diagnostic # 187 SI_Fract has already been set
(PID.TID 0000.0001) SETDIAG: Allocate  1 Levels for Stats-Diag # 189 SI_SnowH
(PID.TID 0000.0001) - NOTE - SETDIAG: Counter Diagnostic # 187 SI_Fract has already been set
(PID.TID 0000.0001) SETDIAG: Allocate  1 Levels for Stats-Diag # 190 SI_Tsrf
(PID.TID 0000.0001) - NOTE - SETDIAG: Counter Diagnostic # 187 SI_Fract has already been set
(PID.TID 0000.0001) SETDIAG: Allocate  1 Levels for Stats-Diag # 191 SI_Tice1
(PID.TID 0000.0001) - NOTE - SETDIAG: Counter Diagnostic # 187 SI_Fract has already been set
(PID.TID 0000.0001) SETDIAG: Allocate  1 Levels for Stats-Diag # 192 SI_Tice2
(PID.TID 0000.0001) - NOTE - SETDIAG: Counter Diagnostic # 187 SI_Fract has already been set
(PID.TID 0000.0001) SETDIAG: Allocate  1 Levels for Stats-Diag # 193 SI_Qice1
(PID.TID 0000.0001) - NOTE - SETDIAG: Counter Diagnostic # 188 SI_Thick has already been set
(PID.TID 0000.0001) SETDIAG: Allocate  1 Levels for Stats-Diag # 194 SI_Qice2
(PID.TID 0000.0001) - NOTE - SETDIAG: Counter Diagnostic # 188 SI_Thick has already been set
(PID.TID 0000.0001) SETDIAG: Allocate  1 Levels for Stats-Diag # 198 SIsnwPrc
(PID.TID 0000.0001) SETDIAG: Allocate  1 Levels for Count.Diag # 196 SI_FrcFx
(PID.TID 0000.0001) SETDIAG: Allocate  1 Levels for Stats-Diag # 197 SIalbedo
(PID.TID 0000.0001) - NOTE - SETDIAG: Counter Diagnostic # 196 SI_FrcFx has already been set
(PID.TID 0000.0001) SETDIAG: Allocate  1 Levels for Stats-Diag # 195 SIsnwAge
(PID.TID 0000.0001) SETDIAG: Allocate  1 Levels for Stats-Diag # 201 SIflx2oc
(PID.TID 0000.0001) SETDIAG: Allocate  1 Levels for Stats-Diag # 202 SIfrw2oc
(PID.TID 0000.0001) SETDIAG: Allocate  1 Levels for Stats-Diag # 203 SIsaltFx
(PID.TID 0000.0001) SETDIAG: Allocate  1 Levels for Stats-Diag # 199 SIflxAtm
(PID.TID 0000.0001) SETDIAG: Allocate  1 Levels for Stats-Diag # 200 SIfrwAtm
(PID.TID 0000.0001)   space allocated for all stats-diags:   107 levels
(PID.TID 0000.0001) DIAGSTATS_SET_POINTERS: done
(PID.TID 0000.0001) ------------------------------------------------------------
(PID.TID 0000.0001) DIAGSTATS_INI_IO: open file: dynStDiag.0000036000.txt , unit=     9
(PID.TID 0000.0001) DIAGSTATS_INI_IO: open file: surfStDiag.0000036000.txt , unit=    10
(PID.TID 0000.0001) DIAGSTATS_INI_IO: open file: instStDiag.0000036000.txt , unit=    11
(PID.TID 0000.0001) DIAGSTATS_INI_IO: open file: thSIceStDiag.0000036000.txt , unit=    12
(PID.TID 0000.0001) GAD_CHECK: #define ALLOW_GENERIC_ADVDIFF
(PID.TID 0000.0001) GMREDI_CHECK: #define GMREDI
(PID.TID 0000.0001) GM_AdvForm =  /* if FALSE => use SkewFlux Form */
(PID.TID 0000.0001)                   F
(PID.TID 0000.0001)     ;
(PID.TID 0000.0001) GM_AdvSeparate = /* Calc Bolus & Euler Adv. separately */
(PID.TID 0000.0001)                   F
(PID.TID 0000.0001)     ;
(PID.TID 0000.0001) GM_ExtraDiag =  /* Tensor Extra Diag (line 1&2) non 0 */
(PID.TID 0000.0001)                   F
(PID.TID 0000.0001)     ;
(PID.TID 0000.0001) GM_isopycK =   /* Background Isopyc. Diffusivity ( m^2/s ) */
(PID.TID 0000.0001)                 8.000000000000000E+02
(PID.TID 0000.0001)     ;
(PID.TID 0000.0001)  GM_skewflx*K =   /* Background GM_SkewFlx Diffusivity ( m^2/s ) */
(PID.TID 0000.0001)                 8.000000000000000E+02
(PID.TID 0000.0001)     ;
(PID.TID 0000.0001)  GM_advec*K =   /* Backg. GM-Advec(=Bolus) Diffusivity ( m^2/s ) */
(PID.TID 0000.0001)                 0.000000000000000E+00
(PID.TID 0000.0001)     ;
(PID.TID 0000.0001)  GM_Visbeck_alpha =   /* Visbeck alpha coeff. ( ) */
(PID.TID 0000.0001)                 0.000000000000000E+00
(PID.TID 0000.0001)     ;
(PID.TID 0000.0001)  Tapering/Cliping : gkw91
(PID.TID 0000.0001)  GM_Small_Number =  /* epsilon used in slope calc */
(PID.TID 0000.0001)                 9.999999999999999E-21
(PID.TID 0000.0001)     ;
(PID.TID 0000.0001)  GM_slopeSqCutoff =  /* Slope^2 cut-off value */
(PID.TID 0000.0001)                 1.000000000000000E+48
(PID.TID 0000.0001)     ;
(PID.TID 0000.0001) THSICE_CHECK: #define THSICE
(PID.TID 0000.0001) %MON fCori_max                    =   1.4535016908525E-04
(PID.TID 0000.0001) %MON fCori_min                    =  -1.4535016908525E-04
(PID.TID 0000.0001) %MON fCori_mean                   =   0.0000000000000E+00
(PID.TID 0000.0001) %MON fCori_sd                     =   8.3972192788621E-05
(PID.TID 0000.0001) %MON fCoriG_max                   =   1.4544410433286E-04
(PID.TID 0000.0001) %MON fCoriG_min                   =  -1.4544410433286E-04
(PID.TID 0000.0001) %MON fCoriG_mean                  =   0.0000000000000E+00
(PID.TID 0000.0001) %MON fCoriG_sd                    =   8.4860812167727E-05
(PID.TID 0000.0001) %MON fCoriCos_max                 =   1.4540341538469E-04
(PID.TID 0000.0001) %MON fCoriCos_min                 =   5.2264550201501E-06
(PID.TID 0000.0001) %MON fCoriCos_mean                =   1.1482595466044E-04
(PID.TID 0000.0001) %MON fCoriCos_sd                  =   3.0292878037194E-05
(PID.TID 0000.0001) INI_CG2D: CG2D normalisation factor =  1.9156564154949553E-04
(PID.TID 0000.0001) INI_CG2D: cg2dTolerance = 5.809016360175293E-07 (Area=3.6388673751E+14)
(PID.TID 0000.0001) 
(PID.TID 0000.0001) CONFIG_CHECK: OK
(PID.TID 0000.0001) // =======================================================
(PID.TID 0000.0001) // Model configuration
(PID.TID 0000.0001) // =======================================================
(PID.TID 0000.0001) //
(PID.TID 0000.0001) // "Physical" paramters ( PARM01 in namelist )
(PID.TID 0000.0001) //
(PID.TID 0000.0001) buoyancyRelation = /* Type of relation to get Buoyancy */
(PID.TID 0000.0001)               'OCEANIC'
(PID.TID 0000.0001)     ;
(PID.TID 0000.0001) fluidIsAir  =  /* fluid major constituent is Air */
(PID.TID 0000.0001)                   F
(PID.TID 0000.0001)     ;
(PID.TID 0000.0001) fluidIsWater=  /* fluid major constituent is Water */
(PID.TID 0000.0001)                   T
(PID.TID 0000.0001)     ;
(PID.TID 0000.0001) usingPCoords =  /* use p (or p*) vertical coordinate */
(PID.TID 0000.0001)                   F
(PID.TID 0000.0001)     ;
(PID.TID 0000.0001) usingZCoords =  /* use z (or z*) vertical coordinate */
(PID.TID 0000.0001)                   T
(PID.TID 0000.0001)     ;
(PID.TID 0000.0001) tRef =   /* Reference temperature profile ( oC or K ) */
(PID.TID 0000.0001)    15 @  2.000000000000000E+01              /* K =  1: 15 */
(PID.TID 0000.0001)     ;
(PID.TID 0000.0001) sRef =   /* Reference salinity profile ( psu ) */
(PID.TID 0000.0001)    15 @  3.500000000000000E+01              /* K =  1: 15 */
(PID.TID 0000.0001)     ;
(PID.TID 0000.0001) viscAh =   /* Lateral eddy viscosity ( m^2/s ) */
(PID.TID 0000.0001)                 3.000000000000000E+05
(PID.TID 0000.0001)     ;
(PID.TID 0000.0001) viscAhMax =   /* Maximum lateral eddy viscosity ( m^2/s ) */
(PID.TID 0000.0001)                 1.000000000000000E+21
(PID.TID 0000.0001)     ;
(PID.TID 0000.0001) viscAhGrid =   /* Grid dependent lateral eddy viscosity ( non-dim. ) */
(PID.TID 0000.0001)                 0.000000000000000E+00
(PID.TID 0000.0001)     ;
(PID.TID 0000.0001) useFullLeith =   /* Use Full Form of Leith Viscosity on/off flag*/
(PID.TID 0000.0001)                   F
(PID.TID 0000.0001)     ;
(PID.TID 0000.0001) useStrainTensionVisc =   /* Use StrainTension Form of Viscous Operator on/off flag*/
(PID.TID 0000.0001)                   F
(PID.TID 0000.0001)     ;
(PID.TID 0000.0001) useAreaViscLength =   /* Use area for visc length instead of geom. mean*/
(PID.TID 0000.0001)                   F
(PID.TID 0000.0001)     ;
(PID.TID 0000.0001) viscC2leith = /* Leith harmonic visc. factor (on grad(vort),non-dim.) */
(PID.TID 0000.0001)                 0.000000000000000E+00
(PID.TID 0000.0001)     ;
(PID.TID 0000.0001) viscC2leithD = /* Leith harmonic viscosity factor (on grad(div),non-dim.) */
(PID.TID 0000.0001)                 0.000000000000000E+00
(PID.TID 0000.0001)     ;
(PID.TID 0000.0001) viscC2smag =   /* Smagorinsky harmonic viscosity factor (non-dim.) */
(PID.TID 0000.0001)                 0.000000000000000E+00
(PID.TID 0000.0001)     ;
(PID.TID 0000.0001) viscA4 =   /* Lateral biharmonic viscosity ( m^4/s ) */
(PID.TID 0000.0001)                 0.000000000000000E+00
(PID.TID 0000.0001)     ;
(PID.TID 0000.0001) viscA4Max =   /* Maximum biharmonic viscosity ( m^2/s ) */
(PID.TID 0000.0001)                 1.000000000000000E+21
(PID.TID 0000.0001)     ;
(PID.TID 0000.0001) viscA4Grid =   /* Grid dependent biharmonic viscosity ( non-dim. ) */
(PID.TID 0000.0001)                 0.000000000000000E+00
(PID.TID 0000.0001)     ;
(PID.TID 0000.0001) viscC4leith = /* Leith biharm viscosity factor (on grad(vort), non-dim.) */
(PID.TID 0000.0001)                 0.000000000000000E+00
(PID.TID 0000.0001)     ;
(PID.TID 0000.0001) viscC4leithD = /* Leith biharm viscosity factor (on grad(div), non-dim.) */
(PID.TID 0000.0001)                 0.000000000000000E+00
(PID.TID 0000.0001)     ;
(PID.TID 0000.0001) viscC4Smag = /* Smagorinsky biharm viscosity factor (non-dim) */
(PID.TID 0000.0001)                 0.000000000000000E+00
(PID.TID 0000.0001)     ;
(PID.TID 0000.0001) no_slip_sides =  /* Viscous BCs: No-slip sides */
(PID.TID 0000.0001)                   T
(PID.TID 0000.0001)     ;
(PID.TID 0000.0001) sideDragFactor = /* side-drag scaling factor (non-dim) */
(PID.TID 0000.0001)                 2.000000000000000E+00
(PID.TID 0000.0001)     ;
(PID.TID 0000.0001) viscAr =   /* Vertical eddy viscosity ( units of r^2/s ) */
(PID.TID 0000.0001)                 1.000000000000000E-03
(PID.TID 0000.0001)     ;
(PID.TID 0000.0001) no_slip_bottom =  /* Viscous BCs: No-slip bottom */
(PID.TID 0000.0001)                   T
(PID.TID 0000.0001)     ;
(PID.TID 0000.0001) bottomDragLinear = /* linear bottom-drag coefficient ( 1/s ) */
(PID.TID 0000.0001)                 0.000000000000000E+00
(PID.TID 0000.0001)     ;
(PID.TID 0000.0001) bottomDragQuadratic = /* quadratic bottom-drag coeff. ( 1/m ) */
(PID.TID 0000.0001)                 0.000000000000000E+00
(PID.TID 0000.0001)     ;
(PID.TID 0000.0001) diffKhT =   /* Laplacian diffusion of heat laterally ( m^2/s ) */
(PID.TID 0000.0001)                 0.000000000000000E+00
(PID.TID 0000.0001)     ;
(PID.TID 0000.0001) diffK4T =   /* Bihaarmonic diffusion of heat laterally ( m^4/s ) */
(PID.TID 0000.0001)                 0.000000000000000E+00
(PID.TID 0000.0001)     ;
(PID.TID 0000.0001) diffKhS =   /* Laplacian diffusion of salt laterally ( m^2/s ) */
(PID.TID 0000.0001)                 0.000000000000000E+00
(PID.TID 0000.0001)     ;
(PID.TID 0000.0001) diffK4S =   /* Bihaarmonic diffusion of salt laterally ( m^4/s ) */
(PID.TID 0000.0001)                 0.000000000000000E+00
(PID.TID 0000.0001)     ;
(PID.TID 0000.0001) diffKrNrT = /* vertical profile of vertical diffusion of Temp ( m^2/s )*/
(PID.TID 0000.0001)    15 @  3.000000000000000E-05              /* K =  1: 15 */
(PID.TID 0000.0001)     ;
(PID.TID 0000.0001) diffKrNrS = /* vertical profile of vertical diffusion of Salt ( m^2/s )*/
(PID.TID 0000.0001)    15 @  3.000000000000000E-05              /* K =  1: 15 */
(PID.TID 0000.0001)     ;
(PID.TID 0000.0001) diffKrBL79surf =   /* Surface diffusion for Bryan and Lewis 1979 ( m^2/s ) */
(PID.TID 0000.0001)                 0.000000000000000E+00
(PID.TID 0000.0001)     ;
(PID.TID 0000.0001) diffKrBL79deep =   /* Deep diffusion for Bryan and Lewis 1979 ( m^2/s ) */
(PID.TID 0000.0001)                 0.000000000000000E+00
(PID.TID 0000.0001)     ;
(PID.TID 0000.0001) diffKrBL79scl =   /* Depth scale for Bryan and Lewis 1979 ( m ) */
(PID.TID 0000.0001)                 2.000000000000000E+02
(PID.TID 0000.0001)     ;
(PID.TID 0000.0001) diffKrBL79Ho =   /* Turning depth for Bryan and Lewis 1979 ( m ) */
(PID.TID 0000.0001)                -2.000000000000000E+03
(PID.TID 0000.0001)     ;
(PID.TID 0000.0001) ivdc_kappa = /* Implicit Vertical Diffusivity for Convection ( m^2/s ) */
(PID.TID 0000.0001)                 1.000000000000000E+01
(PID.TID 0000.0001)     ;
(PID.TID 0000.0001) hMixCriteria=  /* Criteria for mixed-layer diagnostic */
(PID.TID 0000.0001)                -8.000000000000000E-01
(PID.TID 0000.0001)     ;
(PID.TID 0000.0001) eosType =  /* Type of Equation of State */
(PID.TID 0000.0001)               'JMD95Z'
(PID.TID 0000.0001)     ;
(PID.TID 0000.0001) tAlpha =   /* Linear EOS thermal expansion coefficient ( 1/oC ) */
(PID.TID 0000.0001)                 1.234567000000000E+05
(PID.TID 0000.0001)     ;
(PID.TID 0000.0001) sBeta =   /* Linear EOS haline contraction coefficient ( 1/psu ) */
(PID.TID 0000.0001)                 1.234567000000000E+05
(PID.TID 0000.0001)     ;
(PID.TID 0000.0001) rhonil =   /* Reference density ( kg/m^3 ) */
(PID.TID 0000.0001)                 1.035000000000000E+03
(PID.TID 0000.0001)     ;
(PID.TID 0000.0001) rhoConst =   /* Reference density ( kg/m^3 ) */
(PID.TID 0000.0001)                 1.035000000000000E+03
(PID.TID 0000.0001)     ;
(PID.TID 0000.0001) rhoFacC = /* normalized Reference density @ cell-Center (-) */
(PID.TID 0000.0001)    15 @  1.000000000000000E+00              /* K =  1: 15 */
(PID.TID 0000.0001)     ;
(PID.TID 0000.0001) rhoFacF = /* normalized Reference density @ W-Interface (-) */
(PID.TID 0000.0001)    16 @  1.000000000000000E+00              /* K =  1: 16 */
(PID.TID 0000.0001)     ;
(PID.TID 0000.0001) rhoConstFresh =   /* Reference density ( kg/m^3 ) */
(PID.TID 0000.0001)                 1.000000000000000E+03
(PID.TID 0000.0001)     ;
(PID.TID 0000.0001) gravity =   /* Gravitational acceleration ( m/s^2 ) */
(PID.TID 0000.0001)                 9.810000000000000E+00
(PID.TID 0000.0001)     ;
(PID.TID 0000.0001) gBaro =   /* Barotropic gravity ( m/s^2 ) */
(PID.TID 0000.0001)                 9.810000000000000E+00
(PID.TID 0000.0001)     ;
(PID.TID 0000.0001) rotationPeriod =   /* Rotation Period ( s ) */
(PID.TID 0000.0001)                 8.640000000000000E+04
(PID.TID 0000.0001)     ;
(PID.TID 0000.0001) omega =   /* Angular velocity ( rad/s ) */
(PID.TID 0000.0001)                 7.272205216643040E-05
(PID.TID 0000.0001)     ;
(PID.TID 0000.0001) f0 =   /* Reference coriolis parameter ( 1/s ) */
(PID.TID 0000.0001)                 1.000000000000000E-04
(PID.TID 0000.0001)     ;
(PID.TID 0000.0001) beta =   /* Beta ( 1/(m.s) ) */
(PID.TID 0000.0001)                 9.999999999999999E-12
(PID.TID 0000.0001)     ;
(PID.TID 0000.0001) freeSurfFac =   /* Implicit free surface factor */
(PID.TID 0000.0001)                 1.000000000000000E+00
(PID.TID 0000.0001)     ;
(PID.TID 0000.0001) implicitFreeSurface =   /* Implicit free surface on/off flag */
(PID.TID 0000.0001)                   T
(PID.TID 0000.0001)     ;
(PID.TID 0000.0001) rigidLid =   /* Rigid lid on/off flag */
(PID.TID 0000.0001)                   F
(PID.TID 0000.0001)     ;
(PID.TID 0000.0001) implicSurfPress =   /* Surface Pressure implicit factor (0-1)*/
(PID.TID 0000.0001)                 1.000000000000000E+00
(PID.TID 0000.0001)     ;
(PID.TID 0000.0001) implicDiv2Dflow =   /* Barot. Flow Div. implicit factor (0-1)*/
(PID.TID 0000.0001)                 1.000000000000000E+00
(PID.TID 0000.0001)     ;
(PID.TID 0000.0001) exactConserv =   /* Exact Volume Conservation on/off flag*/
(PID.TID 0000.0001)                   T
(PID.TID 0000.0001)     ;
(PID.TID 0000.0001) linFSConserveTr =   /* Tracer correction for Lin Free Surface on/off flag*/
(PID.TID 0000.0001)                   F
(PID.TID 0000.0001)     ;
(PID.TID 0000.0001) uniformLin_PhiSurf =   /* use uniform Bo_surf on/off flag*/
(PID.TID 0000.0001)                   T
(PID.TID 0000.0001)     ;
(PID.TID 0000.0001) nonlinFreeSurf =   /* Non-linear Free Surf. options (-1,0,1,2,3)*/
(PID.TID 0000.0001)                       4
(PID.TID 0000.0001)     ;
(PID.TID 0000.0001)      -1,0= Off ; 1,2,3= On, 2=+rescale gU,gV, 3=+update cg2d solv.
(PID.TID 0000.0001) hFacInf =   /* lower threshold for hFac (nonlinFreeSurf only)*/
(PID.TID 0000.0001)                 2.000000000000000E-01
(PID.TID 0000.0001)     ;
(PID.TID 0000.0001) hFacSup =   /* upper threshold for hFac (nonlinFreeSurf only)*/
(PID.TID 0000.0001)                 2.000000000000000E+00
(PID.TID 0000.0001)     ;
(PID.TID 0000.0001) select_rStar =   /* r* Coordinate options (not yet implemented)*/
(PID.TID 0000.0001)                       2
(PID.TID 0000.0001)     ;
(PID.TID 0000.0001) useRealFreshWaterFlux =   /* Real Fresh Water Flux on/off flag*/
(PID.TID 0000.0001)                   T
(PID.TID 0000.0001)     ;
(PID.TID 0000.0001) temp_EvPrRn = /* Temp. of Evap/Prec/R (UNSET=use local T)(oC)*/
(PID.TID 0000.0001)                 1.234567000000000E+05
(PID.TID 0000.0001)     ;
(PID.TID 0000.0001) salt_EvPrRn = /* Salin. of Evap/Prec/R (UNSET=use local S)(ppt)*/
(PID.TID 0000.0001)                 0.000000000000000E+00
(PID.TID 0000.0001)     ;
(PID.TID 0000.0001) use3Dsolver = /* use 3-D pressure solver on/off flag */
(PID.TID 0000.0001)                   F
(PID.TID 0000.0001)     ;
(PID.TID 0000.0001) nonHydrostatic =  /* Non-Hydrostatic on/off flag */
(PID.TID 0000.0001)                   F
(PID.TID 0000.0001)     ;
(PID.TID 0000.0001) nh_Am2 = /* Non-Hydrostatic terms scaling factor */
(PID.TID 0000.0001)                 1.000000000000000E+00
(PID.TID 0000.0001)     ;
(PID.TID 0000.0001) quasiHydrostatic = /* Quasi-Hydrostatic on/off flag */
(PID.TID 0000.0001)                   F
(PID.TID 0000.0001)     ;
(PID.TID 0000.0001) momStepping =  /* Momentum equation on/off flag */
(PID.TID 0000.0001)                   T
(PID.TID 0000.0001)     ;
(PID.TID 0000.0001) vectorInvariantMomentum= /* Vector-Invariant Momentum on/off */
(PID.TID 0000.0001)                   T
(PID.TID 0000.0001)     ;
(PID.TID 0000.0001) momAdvection =  /* Momentum advection on/off flag */
(PID.TID 0000.0001)                   T
(PID.TID 0000.0001)     ;
(PID.TID 0000.0001) momViscosity =  /* Momentum viscosity on/off flag */
(PID.TID 0000.0001)                   T
(PID.TID 0000.0001)     ;
(PID.TID 0000.0001) momImplVertAdv =/* Momentum implicit vert. advection on/off*/
(PID.TID 0000.0001)                   F
(PID.TID 0000.0001)     ;
(PID.TID 0000.0001) implicitViscosity = /* Implicit viscosity on/off flag */
(PID.TID 0000.0001)                   F
(PID.TID 0000.0001)     ;
(PID.TID 0000.0001) metricTerms =  /* metric-Terms on/off flag */
(PID.TID 0000.0001)                   F
(PID.TID 0000.0001)     ;
(PID.TID 0000.0001) useNHMTerms = /* Non-Hydrostatic Metric-Terms on/off */
(PID.TID 0000.0001)                   F
(PID.TID 0000.0001)     ;
(PID.TID 0000.0001) useConstantF =  /* use Constant f0 Coriolis flag */
(PID.TID 0000.0001)                   F
(PID.TID 0000.0001)     ;
(PID.TID 0000.0001) useBetaPlaneF = /* use Beta-Plane Coriolis flag */
(PID.TID 0000.0001)                   F
(PID.TID 0000.0001)     ;
(PID.TID 0000.0001) useSphereF  =   /* use Spherical Coriolis flag */
(PID.TID 0000.0001)                   T
(PID.TID 0000.0001)     ;
(PID.TID 0000.0001) use3dCoriolis = /* 3-D Coriolis on/off flag */
(PID.TID 0000.0001)                   F
(PID.TID 0000.0001)     ;
(PID.TID 0000.0001) useCoriolis =  /* Coriolis on/off flag */
(PID.TID 0000.0001)                   T
(PID.TID 0000.0001)     ;
(PID.TID 0000.0001) useCDscheme =  /* CD scheme on/off flag */
(PID.TID 0000.0001)                   F
(PID.TID 0000.0001)     ;
(PID.TID 0000.0001) useJamartWetPoints= /* Coriolis WetPoints method flag */
(PID.TID 0000.0001)                   F
(PID.TID 0000.0001)     ;
(PID.TID 0000.0001) useJamartMomAdv= /* V.I. Non-linear terms Jamart flag */
(PID.TID 0000.0001)                   F
(PID.TID 0000.0001)     ;
(PID.TID 0000.0001) SadournyCoriolis= /* Sadourny Coriolis discr. flag */
(PID.TID 0000.0001)                   F
(PID.TID 0000.0001)     ;
(PID.TID 0000.0001) upwindVorticity= /* Upwind bias vorticity flag */
(PID.TID 0000.0001)                   F
(PID.TID 0000.0001)     ;
(PID.TID 0000.0001) useAbsVorticity= /* Work with f+zeta in Coriolis */
(PID.TID 0000.0001)                   F
(PID.TID 0000.0001)     ;
(PID.TID 0000.0001) highOrderVorticity= /* High order interp. of vort. flag */
(PID.TID 0000.0001)                   F
(PID.TID 0000.0001)     ;
(PID.TID 0000.0001) upwindShear= /* Upwind vertical Shear advection flag */
(PID.TID 0000.0001)                   F
(PID.TID 0000.0001)     ;
(PID.TID 0000.0001) selectKEscheme= /* Kinetic Energy scheme selector */
(PID.TID 0000.0001)                       0
(PID.TID 0000.0001)     ;
(PID.TID 0000.0001) momForcing =  /* Momentum forcing on/off flag */
(PID.TID 0000.0001)                   T
(PID.TID 0000.0001)     ;
(PID.TID 0000.0001) momPressureForcing =  /* Momentum pressure term on/off flag */
(PID.TID 0000.0001)                   T
(PID.TID 0000.0001)     ;
(PID.TID 0000.0001) implicitIntGravWave= /* Implicit Internal Gravity Wave flag */
(PID.TID 0000.0001)                   F
(PID.TID 0000.0001)     ;
(PID.TID 0000.0001) staggerTimeStep =   /* Stagger time stepping on/off flag */
(PID.TID 0000.0001)                   T
(PID.TID 0000.0001)     ;
(PID.TID 0000.0001) multiDimAdvection =   /* enable/disable Multi-Dim Advection */
(PID.TID 0000.0001)                   T
(PID.TID 0000.0001)     ;
(PID.TID 0000.0001) useMultiDimAdvec =   /* Multi-Dim Advection is/is-not used */
(PID.TID 0000.0001)                   F
(PID.TID 0000.0001)     ;
(PID.TID 0000.0001) implicitDiffusion =/* Implicit Diffusion on/off flag */
(PID.TID 0000.0001)                   T
(PID.TID 0000.0001)     ;
(PID.TID 0000.0001) tempStepping =  /* Temperature equation on/off flag */
(PID.TID 0000.0001)                   T
(PID.TID 0000.0001)     ;
(PID.TID 0000.0001) tempAdvection=  /* Temperature advection on/off flag */
(PID.TID 0000.0001)                   T
(PID.TID 0000.0001)     ;
(PID.TID 0000.0001) tempImplVertAdv =/* Temp. implicit vert. advection on/off */
(PID.TID 0000.0001)                   F
(PID.TID 0000.0001)     ;
(PID.TID 0000.0001) tempForcing  =  /* Temperature forcing on/off flag */
(PID.TID 0000.0001)                   T
(PID.TID 0000.0001)     ;
(PID.TID 0000.0001) saltStepping =  /* Salinity equation on/off flag */
(PID.TID 0000.0001)                   T
(PID.TID 0000.0001)     ;
(PID.TID 0000.0001) saltAdvection=  /* Salinity advection on/off flag */
(PID.TID 0000.0001)                   T
(PID.TID 0000.0001)     ;
(PID.TID 0000.0001) saltImplVertAdv =/* Sali. implicit vert. advection on/off */
(PID.TID 0000.0001)                   F
(PID.TID 0000.0001)     ;
(PID.TID 0000.0001) saltForcing  =  /* Salinity forcing on/off flag */
(PID.TID 0000.0001)                   T
(PID.TID 0000.0001)     ;
(PID.TID 0000.0001)  readBinaryPrec = /* Precision used for reading binary files */
(PID.TID 0000.0001)                      64
(PID.TID 0000.0001)     ;
(PID.TID 0000.0001) writeBinaryPrec = /* Precision used for writing binary files */
(PID.TID 0000.0001)                      32
(PID.TID 0000.0001)     ;
(PID.TID 0000.0001)  globalFiles = /* write "global" (=not per tile) files */
(PID.TID 0000.0001)                   F
(PID.TID 0000.0001)     ;
(PID.TID 0000.0001)  useSingleCpuIO = /* only master MPI process does I/O */
(PID.TID 0000.0001)                   F
(PID.TID 0000.0001)     ;
(PID.TID 0000.0001)  debugMode  =  /* Debug Mode on/off flag */
(PID.TID 0000.0001)                   F
(PID.TID 0000.0001)     ;
(PID.TID 0000.0001)    debLevA  =  /* 1rst level of debugging */
(PID.TID 0000.0001)                       1
(PID.TID 0000.0001)     ;
(PID.TID 0000.0001)    debLevB  =  /* 2nd  level of debugging */
(PID.TID 0000.0001)                       2
(PID.TID 0000.0001)     ;
(PID.TID 0000.0001)  debugLevel =  /* select debugging level */
(PID.TID 0000.0001)                       1
(PID.TID 0000.0001)     ;
(PID.TID 0000.0001) //
(PID.TID 0000.0001) // Elliptic solver(s) paramters ( PARM02 in namelist )
(PID.TID 0000.0001) //
(PID.TID 0000.0001) cg2dMaxIters =   /* Upper limit on 2d con. grad iterations  */
(PID.TID 0000.0001)                     200
(PID.TID 0000.0001)     ;
(PID.TID 0000.0001) cg2dChkResFreq =   /* 2d con. grad convergence test frequency */
(PID.TID 0000.0001)                       1
(PID.TID 0000.0001)     ;
(PID.TID 0000.0001) cg2dTargetResidual =   /* 2d con. grad target residual  */
(PID.TID 0000.0001)                 1.000000000000000E-07
(PID.TID 0000.0001)     ;
(PID.TID 0000.0001) cg2dTargetResWunit =   /* CG2d target residual [W units] */
(PID.TID 0000.0001)                 1.000000000000000E-14
(PID.TID 0000.0001)     ;
(PID.TID 0000.0001) cg2dPreCondFreq =   /* Freq. for updating cg2d preconditioner */
(PID.TID 0000.0001)                       1
(PID.TID 0000.0001)     ;
(PID.TID 0000.0001) //
(PID.TID 0000.0001) // Time stepping paramters ( PARM03 in namelist )
(PID.TID 0000.0001) //
(PID.TID 0000.0001) nIter0 =   /* Run starting timestep number  */
(PID.TID 0000.0001)                   36000
(PID.TID 0000.0001)     ;
(PID.TID 0000.0001) nTimeSteps =   /* Number of timesteps */
(PID.TID 0000.0001)                      20
(PID.TID 0000.0001)     ;
(PID.TID 0000.0001) deltaTmom =   /* Momentum equation timestep ( s ) */
(PID.TID 0000.0001)                 1.200000000000000E+03
(PID.TID 0000.0001)     ;
(PID.TID 0000.0001) deltaTfreesurf =   /* FreeSurface equation timestep ( s ) */
(PID.TID 0000.0001)                 8.640000000000000E+04
(PID.TID 0000.0001)     ;
(PID.TID 0000.0001) dTtracerLev =   /* Tracer equation timestep ( s ) */
(PID.TID 0000.0001)    15 @  8.640000000000000E+04              /* K =  1: 15 */
(PID.TID 0000.0001)     ;
(PID.TID 0000.0001) deltaTClock  =   /* Model clock timestep ( s ) */
(PID.TID 0000.0001)                 8.640000000000000E+04
(PID.TID 0000.0001)     ;
(PID.TID 0000.0001) cAdjFreq =   /* Convective adjustment interval ( s ) */
(PID.TID 0000.0001)                 0.000000000000000E+00
(PID.TID 0000.0001)     ;
(PID.TID 0000.0001) momForcingOutAB = /* =1: take Momentum Forcing out of Adams-Bash. stepping */
(PID.TID 0000.0001)                       0
(PID.TID 0000.0001)     ;
(PID.TID 0000.0001) tracForcingOutAB = /* =1: take T,S,pTr Forcing out of Adams-Bash. stepping */
(PID.TID 0000.0001)                       1
(PID.TID 0000.0001)     ;
(PID.TID 0000.0001) momDissip_In_AB = /* put Dissipation Tendency in Adams-Bash. stepping */
(PID.TID 0000.0001)                   T
(PID.TID 0000.0001)     ;
(PID.TID 0000.0001) doAB_onGtGs = /* apply AB on Tendencies (rather than on T,S)*/
(PID.TID 0000.0001)                   T
(PID.TID 0000.0001)     ;
(PID.TID 0000.0001) abEps =   /* Adams-Bashforth-2 stabilizing weight */
(PID.TID 0000.0001)                 1.000000000000000E-01
(PID.TID 0000.0001)     ;
(PID.TID 0000.0001) baseTime =   /* Model base time ( s ). */
(PID.TID 0000.0001)                 0.000000000000000E+00
(PID.TID 0000.0001)     ;
(PID.TID 0000.0001) startTime =   /* Run start time ( s ). */
(PID.TID 0000.0001)                 3.110400000000000E+09
(PID.TID 0000.0001)     ;
(PID.TID 0000.0001) endTime =   /* Integration ending time ( s ). */
(PID.TID 0000.0001)                 3.112128000000000E+09
(PID.TID 0000.0001)     ;
(PID.TID 0000.0001) pChkPtFreq =   /* Permanent restart/checkpoint file interval ( s ). */
(PID.TID 0000.0001)                 3.110400000000000E+07
(PID.TID 0000.0001)     ;
(PID.TID 0000.0001) chkPtFreq =   /* Rolling restart/checkpoint file interval ( s ). */
(PID.TID 0000.0001)                 0.000000000000000E+00
(PID.TID 0000.0001)     ;
(PID.TID 0000.0001) pickup_write_mdsio =   /* Model IO flag. */
(PID.TID 0000.0001)                   T
(PID.TID 0000.0001)     ;
(PID.TID 0000.0001) pickup_read_mdsio =   /* Model IO flag. */
(PID.TID 0000.0001)                   T
(PID.TID 0000.0001)     ;
(PID.TID 0000.0001) pickup_write_mnc =   /* Model IO flag. */
(PID.TID 0000.0001)                   F
(PID.TID 0000.0001)     ;
(PID.TID 0000.0001) pickup_read_mnc =   /* Model IO flag. */
(PID.TID 0000.0001)                   F
(PID.TID 0000.0001)     ;
(PID.TID 0000.0001) pickup_write_immed =   /* Model IO flag. */
(PID.TID 0000.0001)                   F
(PID.TID 0000.0001)     ;
(PID.TID 0000.0001) dumpFreq =   /* Model state write out interval ( s ). */
(PID.TID 0000.0001)                 3.110400000000000E+07
(PID.TID 0000.0001)     ;
(PID.TID 0000.0001) dumpInitAndLast= /* write out Initial & Last iter. model state */
(PID.TID 0000.0001)                   T
(PID.TID 0000.0001)     ;
(PID.TID 0000.0001) snapshot_mdsio =   /* Model IO flag. */
(PID.TID 0000.0001)                   T
(PID.TID 0000.0001)     ;
(PID.TID 0000.0001) snapshot_mnc =   /* Model IO flag. */
(PID.TID 0000.0001)                   F
(PID.TID 0000.0001)     ;
(PID.TID 0000.0001) monitorFreq =   /* Monitor output interval ( s ). */
(PID.TID 0000.0001)                 1.000000000000000E+00
(PID.TID 0000.0001)     ;
(PID.TID 0000.0001) monitor_stdio =   /* Model IO flag. */
(PID.TID 0000.0001)                   T
(PID.TID 0000.0001)     ;
(PID.TID 0000.0001) monitor_mnc =   /* Model IO flag. */
(PID.TID 0000.0001)                   F
(PID.TID 0000.0001)     ;
(PID.TID 0000.0001) externForcingPeriod =   /* forcing period (s) */
(PID.TID 0000.0001)                 2.592000000000000E+06
(PID.TID 0000.0001)     ;
(PID.TID 0000.0001) externForcingCycle =   /* period of the cyle (s). */
(PID.TID 0000.0001)                 3.110400000000000E+07
(PID.TID 0000.0001)     ;
(PID.TID 0000.0001) tauThetaClimRelax =   /* relaxation time scale (s) */
(PID.TID 0000.0001)                 5.184000000000000E+06
(PID.TID 0000.0001)     ;
(PID.TID 0000.0001) tauSaltClimRelax =   /* relaxation time scale (s) */
(PID.TID 0000.0001)                 1.555200000000000E+07
(PID.TID 0000.0001)     ;
(PID.TID 0000.0001) latBandClimRelax =   /* max. Lat. where relaxation */
(PID.TID 0000.0001)                 5.000000000000000E+01
(PID.TID 0000.0001)     ;
(PID.TID 0000.0001) //
(PID.TID 0000.0001) // Gridding paramters ( PARM04 in namelist )
(PID.TID 0000.0001) //
(PID.TID 0000.0001) usingCartesianGrid = /* Cartesian coordinates flag ( True/False ) */
(PID.TID 0000.0001)                   F
(PID.TID 0000.0001)     ;
(PID.TID 0000.0001) usingCylindricalGrid = /* Cylindrical coordinates flag ( True/False ) */
(PID.TID 0000.0001)                   F
(PID.TID 0000.0001)     ;
(PID.TID 0000.0001) usingSphericalPolarGrid = /* Spherical coordinates flag ( True/False ) */
(PID.TID 0000.0001)                   F
(PID.TID 0000.0001)     ;
(PID.TID 0000.0001) usingCurvilinearGrid = /* Curvilinear coordinates flag ( True/False ) */
(PID.TID 0000.0001)                   T
(PID.TID 0000.0001)     ;
(PID.TID 0000.0001) Ro_SeaLevel = /* r(1) ( units of r ) */
(PID.TID 0000.0001)                 0.000000000000000E+00
(PID.TID 0000.0001)     ;
(PID.TID 0000.0001) rkSign =   /* index orientation relative to vertical coordinate */
(PID.TID 0000.0001)                -1.000000000000000E+00
(PID.TID 0000.0001)     ;
(PID.TID 0000.0001) gravitySign = /* gravity orientation relative to vertical coordinate */
(PID.TID 0000.0001)                -1.000000000000000E+00
(PID.TID 0000.0001)     ;
(PID.TID 0000.0001) horiVertRatio =   /* Ratio on units : Horiz - Vertical */
(PID.TID 0000.0001)                 1.000000000000000E+00
(PID.TID 0000.0001)     ;
(PID.TID 0000.0001) drC =   /* C spacing ( units of r ) */
(PID.TID 0000.0001)                 2.500000000000000E+01,      /* K =  1 */
(PID.TID 0000.0001)                 6.000000000000000E+01,      /* K =  2 */
(PID.TID 0000.0001)                 8.500000000000000E+01,      /* K =  3 */
(PID.TID 0000.0001)                 1.200000000000000E+02,      /* K =  4 */
(PID.TID 0000.0001)                 1.650000000000000E+02,      /* K =  5 */
(PID.TID 0000.0001)                 2.150000000000000E+02,      /* K =  6 */
(PID.TID 0000.0001)                 2.650000000000000E+02,      /* K =  7 */
(PID.TID 0000.0001)                 3.150000000000000E+02,      /* K =  8 */
(PID.TID 0000.0001)                 3.650000000000000E+02,      /* K =  9 */
(PID.TID 0000.0001)                 4.150000000000000E+02,      /* K = 10 */
(PID.TID 0000.0001)                 4.650000000000000E+02,      /* K = 11 */
(PID.TID 0000.0001)                 5.150000000000000E+02,      /* K = 12 */
(PID.TID 0000.0001)                 5.650000000000000E+02,      /* K = 13 */
(PID.TID 0000.0001)                 6.150000000000000E+02,      /* K = 14 */
(PID.TID 0000.0001)                 6.650000000000000E+02       /* K = 15 */
(PID.TID 0000.0001)     ;
(PID.TID 0000.0001) drF =   /* W spacing ( units of r ) */
(PID.TID 0000.0001)                 5.000000000000000E+01,      /* K =  1 */
(PID.TID 0000.0001)                 7.000000000000000E+01,      /* K =  2 */
(PID.TID 0000.0001)                 1.000000000000000E+02,      /* K =  3 */
(PID.TID 0000.0001)                 1.400000000000000E+02,      /* K =  4 */
(PID.TID 0000.0001)                 1.900000000000000E+02,      /* K =  5 */
(PID.TID 0000.0001)                 2.400000000000000E+02,      /* K =  6 */
(PID.TID 0000.0001)                 2.900000000000000E+02,      /* K =  7 */
(PID.TID 0000.0001)                 3.400000000000000E+02,      /* K =  8 */
(PID.TID 0000.0001)                 3.900000000000000E+02,      /* K =  9 */
(PID.TID 0000.0001)                 4.400000000000000E+02,      /* K = 10 */
(PID.TID 0000.0001)                 4.900000000000000E+02,      /* K = 11 */
(PID.TID 0000.0001)                 5.400000000000000E+02,      /* K = 12 */
(PID.TID 0000.0001)                 5.900000000000000E+02,      /* K = 13 */
(PID.TID 0000.0001)                 6.400000000000000E+02,      /* K = 14 */
(PID.TID 0000.0001)                 6.900000000000000E+02       /* K = 15 */
(PID.TID 0000.0001)     ;
(PID.TID 0000.0001) delX =   /* U spacing ( m - cartesian, degrees - spherical ) */
(PID.TID 0000.0001)   192 @  1.234567000000000E+05              /* I =  1:192 */
(PID.TID 0000.0001)     ;
(PID.TID 0000.0001) delY =   /* V spacing ( m - cartesian, degrees - spherical ) */
(PID.TID 0000.0001)    32 @  1.234567000000000E+05              /* J =  1: 32 */
(PID.TID 0000.0001)     ;
(PID.TID 0000.0001) phiMin =    /* South edge (ignored - cartesian, degrees - spherical ) */
(PID.TID 0000.0001)                 0.000000000000000E+00
(PID.TID 0000.0001)     ;
(PID.TID 0000.0001) thetaMin =    /* West edge ( ignored - cartesian, degrees - spherical ) */
(PID.TID 0000.0001)                 0.000000000000000E+00
(PID.TID 0000.0001)     ;
(PID.TID 0000.0001) rSphere =  /* Radius ( ignored - cartesian, m - spherical ) */
(PID.TID 0000.0001)                 6.370000000000000E+06
(PID.TID 0000.0001)     ;
(PID.TID 0000.0001) deepAtmosphere = /* Deep/Shallow Atmosphere flag (True/False) */
(PID.TID 0000.0001)                   F
(PID.TID 0000.0001)     ;
(PID.TID 0000.0001) xcoord =   /* P-point X coord ( m - cartesian, degrees - spherical ) */
(PID.TID 0000.0001)                -4.439521994760536E+01,      /* I =  1 */
(PID.TID 0000.0001)                -4.295641272275883E+01,      /* I =  2 */
(PID.TID 0000.0001)                -4.122055553388957E+01,      /* I =  3 */
(PID.TID 0000.0001)                -3.923446288487304E+01,      /* I =  4 */
(PID.TID 0000.0001)                -3.702585158682200E+01,      /* I =  5 */
(PID.TID 0000.0001)                -3.461179367094151E+01,      /* I =  6 */
(PID.TID 0000.0001)                -3.200434569041793E+01,      /* I =  7 */
(PID.TID 0000.0001)                -2.921355965632675E+01,      /* I =  8 */
(PID.TID 0000.0001)                -2.624932223028290E+01,      /* I =  9 */
(PID.TID 0000.0001)                -2.312261250426344E+01,      /* I = 10 */
(PID.TID 0000.0001)                -1.984640717127058E+01,      /* I = 11 */
(PID.TID 0000.0001)                -1.643630800555134E+01,      /* I = 12 */
(PID.TID 0000.0001)                -1.291089806302069E+01,      /* I = 13 */
(PID.TID 0000.0001)                -9.291807802719402E+00,      /* I = 14 */
(PID.TID 0000.0001)                -5.603475335822332E+00,      /* I = 15 */
(PID.TID 0000.0001)                -1.872608513033445E+00,      /* I = 16 */
(PID.TID 0000.0001)                 1.872608513033445E+00,      /* I = 17 */
(PID.TID 0000.0001)                 5.603475335822332E+00,      /* I = 18 */
(PID.TID 0000.0001)                 9.291807802719402E+00,      /* I = 19 */
(PID.TID 0000.0001)                 1.291089806302069E+01,      /* I = 20 */
(PID.TID 0000.0001)                 1.643630800555134E+01,      /* I = 21 */
(PID.TID 0000.0001)                 1.984640717127058E+01,      /* I = 22 */
(PID.TID 0000.0001)                 2.312261250426344E+01,      /* I = 23 */
(PID.TID 0000.0001)                 2.624932223028290E+01,      /* I = 24 */
(PID.TID 0000.0001)                 2.921355965632675E+01,      /* I = 25 */
(PID.TID 0000.0001)                 3.200434569041793E+01,      /* I = 26 */
(PID.TID 0000.0001)                 3.461179367094151E+01,      /* I = 27 */
(PID.TID 0000.0001)                 3.702585158682200E+01,      /* I = 28 */
(PID.TID 0000.0001)                 3.923446288487304E+01,      /* I = 29 */
(PID.TID 0000.0001)                 4.122055553388957E+01,      /* I = 30 */
(PID.TID 0000.0001)                 4.295641272275883E+01,      /* I = 31 */
(PID.TID 0000.0001)                 4.439521994760536E+01,      /* I = 32 */
(PID.TID 0000.0001)                 4.560478005239464E+01,      /* I = 33 */
(PID.TID 0000.0001)                 4.704358727724117E+01,      /* I = 34 */
(PID.TID 0000.0001)                 4.877944446611043E+01,      /* I = 35 */
(PID.TID 0000.0001)                 5.076553711512697E+01,      /* I = 36 */
(PID.TID 0000.0001)                 5.297414841317801E+01,      /* I = 37 */
(PID.TID 0000.0001)                 5.538820632905850E+01,      /* I = 38 */
(PID.TID 0000.0001)                 5.799565430958209E+01,      /* I = 39 */
(PID.TID 0000.0001)                 6.078644034367325E+01,      /* I = 40 */
(PID.TID 0000.0001)                 6.375067776971711E+01,      /* I = 41 */
(PID.TID 0000.0001)                 6.687738749573657E+01,      /* I = 42 */
(PID.TID 0000.0001)                 7.015359282872943E+01,      /* I = 43 */
(PID.TID 0000.0001)                 7.356369199444866E+01,      /* I = 44 */
(PID.TID 0000.0001)                 7.708910193697932E+01,      /* I = 45 */
(PID.TID 0000.0001)                 8.070819219728060E+01,      /* I = 46 */
(PID.TID 0000.0001)                 8.439652466417766E+01,      /* I = 47 */
(PID.TID 0000.0001)                 8.812739148696656E+01,      /* I = 48 */
(PID.TID 0000.0001)                 9.187260851303344E+01,      /* I = 49 */
(PID.TID 0000.0001)                 9.560347533582234E+01,      /* I = 50 */
(PID.TID 0000.0001)                 9.929180780271940E+01,      /* I = 51 */
(PID.TID 0000.0001)                 1.029108980630207E+02,      /* I = 52 */
(PID.TID 0000.0001)                 1.064363080055513E+02,      /* I = 53 */
(PID.TID 0000.0001)                 1.098464071712706E+02,      /* I = 54 */
(PID.TID 0000.0001)                 1.131226125042634E+02,      /* I = 55 */
(PID.TID 0000.0001)                 1.162493222302829E+02,      /* I = 56 */
(PID.TID 0000.0001)                 1.192135596563268E+02,      /* I = 57 */
(PID.TID 0000.0001)                 1.220043456904179E+02,      /* I = 58 */
(PID.TID 0000.0001)                 1.246117936709415E+02,      /* I = 59 */
(PID.TID 0000.0001)                 1.270258515868220E+02,      /* I = 60 */
(PID.TID 0000.0001)                 1.292344628848730E+02,      /* I = 61 */
(PID.TID 0000.0001)                 1.312205555338896E+02,      /* I = 62 */
(PID.TID 0000.0001)                 1.329564127227588E+02,      /* I = 63 */
(PID.TID 0000.0001)                 1.343952199476053E+02,      /* I = 64 */
(PID.TID 0000.0001)                 4.500000000000000E+01,      /* I = 65 */
(PID.TID 0000.0001)                 4.620805468796297E+01,      /* I = 66 */
(PID.TID 0000.0001)                 4.781369642513039E+01,      /* I = 67 */
(PID.TID 0000.0001)                 4.971767671143929E+01,      /* I = 68 */
(PID.TID 0000.0001)                 5.187738319787235E+01,      /* I = 69 */
(PID.TID 0000.0001)                 5.427004371478710E+01,      /* I = 70 */
(PID.TID 0000.0001)                 5.688128325334060E+01,      /* I = 71 */
(PID.TID 0000.0001)                 5.970018167786760E+01,      /* I = 72 */
(PID.TID 0000.0001)                 6.271654991792347E+01,      /* I = 73 */
(PID.TID 0000.0001)                 6.591914604853015E+01,      /* I = 74 */
(PID.TID 0000.0001)                 6.929439270484148E+01,      /* I = 75 */
(PID.TID 0000.0001)                 7.282545807616151E+01,      /* I = 76 */
(PID.TID 0000.0001)                 7.649168830618933E+01,      /* I = 77 */
(PID.TID 0000.0001)                 8.026842803787176E+01,      /* I = 78 */
(PID.TID 0000.0001)                 8.412726743124185E+01,      /* I = 79 */
(PID.TID 0000.0001)                 8.803672008547504E+01,      /* I = 80 */
(PID.TID 0000.0001)                 9.196327991452496E+01,      /* I = 81 */
(PID.TID 0000.0001)                 9.587273256875815E+01,      /* I = 82 */
(PID.TID 0000.0001)                 9.973157196212824E+01,      /* I = 83 */
(PID.TID 0000.0001)                 1.035083116938107E+02,      /* I = 84 */
(PID.TID 0000.0001)                 1.071745419238385E+02,      /* I = 85 */
(PID.TID 0000.0001)                 1.107056072951585E+02,      /* I = 86 */
(PID.TID 0000.0001)                 1.140808539514698E+02,      /* I = 87 */
(PID.TID 0000.0001)                 1.172834500820765E+02,      /* I = 88 */
(PID.TID 0000.0001)                 1.202998183221324E+02,      /* I = 89 */
(PID.TID 0000.0001)                 1.231187167466594E+02,      /* I = 90 */
(PID.TID 0000.0001)                 1.257299562852129E+02,      /* I = 91 */
(PID.TID 0000.0001)                 1.281226168021277E+02,      /* I = 92 */
(PID.TID 0000.0001)                 1.302823232885607E+02,      /* I = 93 */
(PID.TID 0000.0001)                 1.321863035748696E+02,      /* I = 94 */
(PID.TID 0000.0001)                 1.337919453120370E+02,      /* I = 95 */
(PID.TID 0000.0001)                 1.350000000000000E+02,      /* I = 96 */
(PID.TID 0000.0001)                 1.356047800523947E+02,      /* I = 97 */
(PID.TID 0000.0001)                 1.358367907661329E+02,      /* I = 98 */
(PID.TID 0000.0001)                 1.359720382181193E+02,      /* I = 99 */
(PID.TID 0000.0001)                 1.360654656901789E+02,      /* I =100 */
(PID.TID 0000.0001)                 1.361344533147042E+02,      /* I =101 */
(PID.TID 0000.0001)                 1.361871219420981E+02,      /* I =102 */
(PID.TID 0000.0001)                 1.362280794509603E+02,      /* I =103 */
(PID.TID 0000.0001)                 1.362602511071934E+02,      /* I =104 */
(PID.TID 0000.0001)                 1.362856280326734E+02,      /* I =105 */
(PID.TID 0000.0001)                 1.363056266270901E+02,      /* I =106 */
(PID.TID 0000.0001)                 1.363212817739446E+02,      /* I =107 */
(PID.TID 0000.0001)                 1.363333595910255E+02,      /* I =108 */
(PID.TID 0000.0001)                 1.363424272425760E+02,      /* I =109 */
(PID.TID 0000.0001)                 1.363488978790713E+02,      /* I =110 */
(PID.TID 0000.0001)                 1.363530600590580E+02,      /* I =111 */
(PID.TID 0000.0001)     2 @  1.363550967500717E+02,             /* I =112:113 */
(PID.TID 0000.0001)                 1.363530600590580E+02,      /* I =114 */
(PID.TID 0000.0001)                 1.363488978790713E+02,      /* I =115 */
(PID.TID 0000.0001)                 1.363424272425760E+02,      /* I =116 */
(PID.TID 0000.0001)                 1.363333595910255E+02,      /* I =117 */
(PID.TID 0000.0001)                 1.363212817739446E+02,      /* I =118 */
(PID.TID 0000.0001)                 1.363056266270901E+02,      /* I =119 */
(PID.TID 0000.0001)                 1.362856280326734E+02,      /* I =120 */
(PID.TID 0000.0001)                 1.362602511071934E+02,      /* I =121 */
(PID.TID 0000.0001)                 1.362280794509603E+02,      /* I =122 */
(PID.TID 0000.0001)                 1.361871219420981E+02,      /* I =123 */
(PID.TID 0000.0001)                 1.361344533147042E+02,      /* I =124 */
(PID.TID 0000.0001)                 1.360654656901789E+02,      /* I =125 */
(PID.TID 0000.0001)                 1.359720382181193E+02,      /* I =126 */
(PID.TID 0000.0001)                 1.358367907661329E+02,      /* I =127 */
(PID.TID 0000.0001)                 1.356047800523947E+02,      /* I =128 */
(PID.TID 0000.0001)                -1.343952199476053E+02,      /* I =129 */
(PID.TID 0000.0001)                -1.341632092338671E+02,      /* I =130 */
(PID.TID 0000.0001)                -1.340279617818807E+02,      /* I =131 */
(PID.TID 0000.0001)                -1.339345343098211E+02,      /* I =132 */
(PID.TID 0000.0001)                -1.338655466852958E+02,      /* I =133 */
(PID.TID 0000.0001)                -1.338128780579019E+02,      /* I =134 */
(PID.TID 0000.0001)                -1.337719205490397E+02,      /* I =135 */
(PID.TID 0000.0001)                -1.337397488928066E+02,      /* I =136 */
(PID.TID 0000.0001)                -1.337143719673266E+02,      /* I =137 */
(PID.TID 0000.0001)                -1.336943733729099E+02,      /* I =138 */
(PID.TID 0000.0001)                -1.336787182260554E+02,      /* I =139 */
(PID.TID 0000.0001)                -1.336666404089745E+02,      /* I =140 */
(PID.TID 0000.0001)                -1.336575727574240E+02,      /* I =141 */
(PID.TID 0000.0001)                -1.336511021209287E+02,      /* I =142 */
(PID.TID 0000.0001)                -1.336469399409420E+02,      /* I =143 */
(PID.TID 0000.0001)     2 @ -1.336449032499283E+02,             /* I =144:145 */
(PID.TID 0000.0001)                -1.336469399409420E+02,      /* I =146 */
(PID.TID 0000.0001)                -1.336511021209287E+02,      /* I =147 */
(PID.TID 0000.0001)                -1.336575727574240E+02,      /* I =148 */
(PID.TID 0000.0001)                -1.336666404089745E+02,      /* I =149 */
(PID.TID 0000.0001)                -1.336787182260554E+02,      /* I =150 */
(PID.TID 0000.0001)                -1.336943733729099E+02,      /* I =151 */
(PID.TID 0000.0001)                -1.337143719673266E+02,      /* I =152 */
(PID.TID 0000.0001)                -1.337397488928066E+02,      /* I =153 */
(PID.TID 0000.0001)                -1.337719205490397E+02,      /* I =154 */
(PID.TID 0000.0001)                -1.338128780579019E+02,      /* I =155 */
(PID.TID 0000.0001)                -1.338655466852958E+02,      /* I =156 */
(PID.TID 0000.0001)                -1.339345343098211E+02,      /* I =157 */
(PID.TID 0000.0001)                -1.340279617818807E+02,      /* I =158 */
(PID.TID 0000.0001)                -1.341632092338671E+02,      /* I =159 */
(PID.TID 0000.0001)                -1.343952199476053E+02,      /* I =160 */
(PID.TID 0000.0001)                -1.350000000000000E+02,      /* I =161 */
(PID.TID 0000.0001)                -1.362080546879630E+02,      /* I =162 */
(PID.TID 0000.0001)                -1.378136964251304E+02,      /* I =163 */
(PID.TID 0000.0001)                -1.397176767114393E+02,      /* I =164 */
(PID.TID 0000.0001)                -1.418773831978723E+02,      /* I =165 */
(PID.TID 0000.0001)                -1.442700437147871E+02,      /* I =166 */
(PID.TID 0000.0001)                -1.468812832533406E+02,      /* I =167 */
(PID.TID 0000.0001)                -1.497001816778676E+02,      /* I =168 */
(PID.TID 0000.0001)                -1.527165499179235E+02,      /* I =169 */
(PID.TID 0000.0001)                -1.559191460485302E+02,      /* I =170 */
(PID.TID 0000.0001)                -1.592943927048415E+02,      /* I =171 */
(PID.TID 0000.0001)                -1.628254580761615E+02,      /* I =172 */
(PID.TID 0000.0001)                -1.664916883061893E+02,      /* I =173 */
(PID.TID 0000.0001)                -1.702684280378718E+02,      /* I =174 */
(PID.TID 0000.0001)                -1.741272674312418E+02,      /* I =175 */
(PID.TID 0000.0001)                -1.780367200854751E+02,      /* I =176 */
(PID.TID 0000.0001)                 1.780367200854751E+02,      /* I =177 */
(PID.TID 0000.0001)                 1.741272674312418E+02,      /* I =178 */
(PID.TID 0000.0001)                 1.702684280378718E+02,      /* I =179 */
(PID.TID 0000.0001)                 1.664916883061893E+02,      /* I =180 */
(PID.TID 0000.0001)                 1.628254580761615E+02,      /* I =181 */
(PID.TID 0000.0001)                 1.592943927048415E+02,      /* I =182 */
(PID.TID 0000.0001)                 1.559191460485302E+02,      /* I =183 */
(PID.TID 0000.0001)                 1.527165499179235E+02,      /* I =184 */
(PID.TID 0000.0001)                 1.497001816778676E+02,      /* I =185 */
(PID.TID 0000.0001)                 1.468812832533406E+02,      /* I =186 */
(PID.TID 0000.0001)                 1.442700437147871E+02,      /* I =187 */
(PID.TID 0000.0001)                 1.418773831978723E+02,      /* I =188 */
(PID.TID 0000.0001)                 1.397176767114393E+02,      /* I =189 */
(PID.TID 0000.0001)                 1.378136964251304E+02,      /* I =190 */
(PID.TID 0000.0001)                 1.362080546879630E+02,      /* I =191 */
(PID.TID 0000.0001)                 1.350000000000000E+02       /* I =192 */
(PID.TID 0000.0001)     ;
(PID.TID 0000.0001) ycoord =   /* P-point Y coord ( m - cartesian, degrees - spherical ) */
(PID.TID 0000.0001)                -3.497677942598243E+01,      /* J =  1 */
(PID.TID 0000.0001)                -3.374005967394886E+01,      /* J =  2 */
(PID.TID 0000.0001)                -3.220655175667454E+01,      /* J =  3 */
(PID.TID 0000.0001)                -3.045756348838641E+01,      /* J =  4 */
(PID.TID 0000.0001)                -2.853728129852918E+01,      /* J =  5 */
(PID.TID 0000.0001)                -2.647426640173173E+01,      /* J =  6 */
(PID.TID 0000.0001)                -2.428936657094636E+01,      /* J =  7 */
(PID.TID 0000.0001)                -2.199915808312262E+01,      /* J =  8 */
(PID.TID 0000.0001)                -1.961768597440146E+01,      /* J =  9 */
(PID.TID 0000.0001)                -1.715743888281371E+01,      /* J = 10 */
(PID.TID 0000.0001)                -1.462993396899330E+01,      /* J = 11 */
(PID.TID 0000.0001)                -1.204608340464756E+01,      /* J = 12 */
(PID.TID 0000.0001)                -9.416429130284818E+00,      /* J = 13 */
(PID.TID 0000.0001)                -6.751293662992216E+00,      /* J = 14 */
(PID.TID 0000.0001)                -4.060875511835959E+00,      /* J = 15 */
(PID.TID 0000.0001)                -1.355307764409121E+00,      /* J = 16 */
(PID.TID 0000.0001)                 1.355307764409121E+00,      /* J = 17 */
(PID.TID 0000.0001)                 4.060875511835959E+00,      /* J = 18 */
(PID.TID 0000.0001)                 6.751293662992216E+00,      /* J = 19 */
(PID.TID 0000.0001)                 9.416429130284818E+00,      /* J = 20 */
(PID.TID 0000.0001)                 1.204608340464756E+01,      /* J = 21 */
(PID.TID 0000.0001)                 1.462993396899330E+01,      /* J = 22 */
(PID.TID 0000.0001)                 1.715743888281371E+01,      /* J = 23 */
(PID.TID 0000.0001)                 1.961768597440146E+01,      /* J = 24 */
(PID.TID 0000.0001)                 2.199915808312262E+01,      /* J = 25 */
(PID.TID 0000.0001)                 2.428936657094636E+01,      /* J = 26 */
(PID.TID 0000.0001)                 2.647426640173173E+01,      /* J = 27 */
(PID.TID 0000.0001)                 2.853728129852918E+01,      /* J = 28 */
(PID.TID 0000.0001)                 3.045756348838641E+01,      /* J = 29 */
(PID.TID 0000.0001)                 3.220655175667454E+01,      /* J = 30 */
(PID.TID 0000.0001)                 3.374005967394886E+01,      /* J = 31 */
(PID.TID 0000.0001)                 3.497677942598243E+01       /* J = 32 */
(PID.TID 0000.0001)     ;
(PID.TID 0000.0001) rcoord =   /* P-point R coordinate (  units of r ) */
(PID.TID 0000.0001)                -2.500000000000000E+01,      /* K =  1 */
(PID.TID 0000.0001)                -8.500000000000000E+01,      /* K =  2 */
(PID.TID 0000.0001)                -1.700000000000000E+02,      /* K =  3 */
(PID.TID 0000.0001)                -2.900000000000000E+02,      /* K =  4 */
(PID.TID 0000.0001)                -4.550000000000000E+02,      /* K =  5 */
(PID.TID 0000.0001)                -6.700000000000000E+02,      /* K =  6 */
(PID.TID 0000.0001)                -9.350000000000000E+02,      /* K =  7 */
(PID.TID 0000.0001)                -1.250000000000000E+03,      /* K =  8 */
(PID.TID 0000.0001)                -1.615000000000000E+03,      /* K =  9 */
(PID.TID 0000.0001)                -2.030000000000000E+03,      /* K = 10 */
(PID.TID 0000.0001)                -2.495000000000000E+03,      /* K = 11 */
(PID.TID 0000.0001)                -3.010000000000000E+03,      /* K = 12 */
(PID.TID 0000.0001)                -3.575000000000000E+03,      /* K = 13 */
(PID.TID 0000.0001)                -4.190000000000000E+03,      /* K = 14 */
(PID.TID 0000.0001)                -4.855000000000000E+03       /* K = 15 */
(PID.TID 0000.0001)     ;
(PID.TID 0000.0001) rF =   /* W-Interf. R coordinate (  units of r ) */
(PID.TID 0000.0001)                 0.000000000000000E+00,      /* K =  1 */
(PID.TID 0000.0001)                -5.000000000000000E+01,      /* K =  2 */
(PID.TID 0000.0001)                -1.200000000000000E+02,      /* K =  3 */
(PID.TID 0000.0001)                -2.200000000000000E+02,      /* K =  4 */
(PID.TID 0000.0001)                -3.600000000000000E+02,      /* K =  5 */
(PID.TID 0000.0001)                -5.500000000000000E+02,      /* K =  6 */
(PID.TID 0000.0001)                -7.900000000000000E+02,      /* K =  7 */
(PID.TID 0000.0001)                -1.080000000000000E+03,      /* K =  8 */
(PID.TID 0000.0001)                -1.420000000000000E+03,      /* K =  9 */
(PID.TID 0000.0001)                -1.810000000000000E+03,      /* K = 10 */
(PID.TID 0000.0001)                -2.250000000000000E+03,      /* K = 11 */
(PID.TID 0000.0001)                -2.740000000000000E+03,      /* K = 12 */
(PID.TID 0000.0001)                -3.280000000000000E+03,      /* K = 13 */
(PID.TID 0000.0001)                -3.870000000000000E+03,      /* K = 14 */
(PID.TID 0000.0001)                -4.510000000000000E+03,      /* K = 15 */
(PID.TID 0000.0001)                -5.200000000000000E+03       /* K = 16 */
(PID.TID 0000.0001)     ;
(PID.TID 0000.0001) deepFacC = /* deep-model grid factor @ cell-Center (-) */
(PID.TID 0000.0001)    15 @  1.000000000000000E+00              /* K =  1: 15 */
(PID.TID 0000.0001)     ;
(PID.TID 0000.0001) deepFacF = /* deep-model grid factor @ W-Interface (-) */
(PID.TID 0000.0001)    16 @  1.000000000000000E+00              /* K =  1: 16 */
(PID.TID 0000.0001)     ;
(PID.TID 0000.0001) rVel2wUnit = /* convert units: rVel -> wSpeed (=1 if z-coord)*/
(PID.TID 0000.0001)    16 @  1.000000000000000E+00              /* K =  1: 16 */
(PID.TID 0000.0001)     ;
(PID.TID 0000.0001) wUnit2rVel = /* convert units: wSpeed -> rVel (=1 if z-coord)*/
(PID.TID 0000.0001)    16 @  1.000000000000000E+00              /* K =  1: 16 */
(PID.TID 0000.0001)     ;
(PID.TID 0000.0001) dBdrRef = /* Vertical gradient of reference boyancy [(m/s/r)^2)] */
(PID.TID 0000.0001)    15 @  0.000000000000000E+00              /* K =  1: 15 */
(PID.TID 0000.0001)     ;
(PID.TID 0000.0001) dxF =  /* dxF(:,1,:,1) ( units: m ) */
(PID.TID 0000.0001)                 1.202082051331828E+05,      /* I =  1 */
(PID.TID 0000.0001)                 1.563594089971120E+05,      /* I =  2 */
(PID.TID 0000.0001)                 1.835530058121492E+05,      /* I =  3 */
(PID.TID 0000.0001)                 2.045883481718707E+05,      /* I =  4 */
(PID.TID 0000.0001)                 2.218350349844185E+05,      /* I =  5 */
(PID.TID 0000.0001)                 2.364352994647058E+05,      /* I =  6 */
(PID.TID 0000.0001)                 2.490022710862746E+05,      /* I =  7 */
(PID.TID 0000.0001)                 2.598919724358304E+05,      /* I =  8 */
(PID.TID 0000.0001)                 2.693210245495156E+05,      /* I =  9 */
(PID.TID 0000.0001)                 2.774243179696503E+05,      /* I = 10 */
(PID.TID 0000.0001)                 2.842862532064524E+05,      /* I = 11 */
(PID.TID 0000.0001)                 2.899590699694043E+05,      /* I = 12 */
(PID.TID 0000.0001)                 2.944742915095688E+05,      /* I = 13 */
(PID.TID 0000.0001)                 2.978501920522794E+05,      /* I = 14 */
(PID.TID 0000.0001)                 3.000967749619962E+05,      /* I = 15 */
(PID.TID 0000.0001)     2 @  3.012190981969055E+05,             /* I = 16: 17 */
(PID.TID 0000.0001)                 3.000967749619962E+05,      /* I = 18 */
(PID.TID 0000.0001)                 2.978501920522794E+05,      /* I = 19 */
(PID.TID 0000.0001)                 2.944742915095688E+05,      /* I = 20 */
(PID.TID 0000.0001)                 2.899590699694043E+05,      /* I = 21 */
(PID.TID 0000.0001)                 2.842862532064524E+05,      /* I = 22 */
(PID.TID 0000.0001)                 2.774243179696503E+05,      /* I = 23 */
(PID.TID 0000.0001)                 2.693210245495156E+05,      /* I = 24 */
(PID.TID 0000.0001)                 2.598919724358304E+05,      /* I = 25 */
(PID.TID 0000.0001)                 2.490022710862746E+05,      /* I = 26 */
(PID.TID 0000.0001)                 2.364352994647058E+05,      /* I = 27 */
(PID.TID 0000.0001)                 2.218350349844185E+05,      /* I = 28 */
(PID.TID 0000.0001)                 2.045883481718707E+05,      /* I = 29 */
(PID.TID 0000.0001)                 1.835530058121492E+05,      /* I = 30 */
(PID.TID 0000.0001)                 1.563594089971120E+05,      /* I = 31 */
(PID.TID 0000.0001)     2 @  1.202082051331828E+05,             /* I = 32: 33 */
(PID.TID 0000.0001)                 1.563594089971120E+05,      /* I = 34 */
(PID.TID 0000.0001)                 1.835530058121492E+05,      /* I = 35 */
(PID.TID 0000.0001)                 2.045883481718707E+05,      /* I = 36 */
(PID.TID 0000.0001)                 2.218350349844185E+05,      /* I = 37 */
(PID.TID 0000.0001)                 2.364352994647058E+05,      /* I = 38 */
(PID.TID 0000.0001)                 2.490022710862746E+05,      /* I = 39 */
(PID.TID 0000.0001)                 2.598919724358304E+05,      /* I = 40 */
(PID.TID 0000.0001)                 2.693210245495156E+05,      /* I = 41 */
(PID.TID 0000.0001)                 2.774243179696503E+05,      /* I = 42 */
(PID.TID 0000.0001)                 2.842862532064524E+05,      /* I = 43 */
(PID.TID 0000.0001)                 2.899590699694043E+05,      /* I = 44 */
(PID.TID 0000.0001)                 2.944742915095688E+05,      /* I = 45 */
(PID.TID 0000.0001)                 2.978501920522794E+05,      /* I = 46 */
(PID.TID 0000.0001)                 3.000967749619962E+05,      /* I = 47 */
(PID.TID 0000.0001)     2 @  3.012190981969055E+05,             /* I = 48: 49 */
(PID.TID 0000.0001)                 3.000967749619962E+05,      /* I = 50 */
(PID.TID 0000.0001)                 2.978501920522794E+05,      /* I = 51 */
(PID.TID 0000.0001)                 2.944742915095688E+05,      /* I = 52 */
(PID.TID 0000.0001)                 2.899590699694043E+05,      /* I = 53 */
(PID.TID 0000.0001)                 2.842862532064524E+05,      /* I = 54 */
(PID.TID 0000.0001)                 2.774243179696503E+05,      /* I = 55 */
(PID.TID 0000.0001)                 2.693210245495156E+05,      /* I = 56 */
(PID.TID 0000.0001)                 2.598919724358304E+05,      /* I = 57 */
(PID.TID 0000.0001)                 2.490022710862746E+05,      /* I = 58 */
(PID.TID 0000.0001)                 2.364352994647058E+05,      /* I = 59 */
(PID.TID 0000.0001)                 2.218350349844185E+05,      /* I = 60 */
(PID.TID 0000.0001)                 2.045883481718707E+05,      /* I = 61 */
(PID.TID 0000.0001)                 1.835530058121492E+05,      /* I = 62 */
(PID.TID 0000.0001)                 1.563594089971120E+05,      /* I = 63 */
(PID.TID 0000.0001)     2 @  1.202082051331828E+05,             /* I = 64: 65 */
(PID.TID 0000.0001)                 1.563594089971120E+05,      /* I = 66 */
(PID.TID 0000.0001)                 1.835530058121492E+05,      /* I = 67 */
(PID.TID 0000.0001)                 2.045883481718707E+05,      /* I = 68 */
(PID.TID 0000.0001)                 2.218350349844185E+05,      /* I = 69 */
(PID.TID 0000.0001)                 2.364352994647058E+05,      /* I = 70 */
(PID.TID 0000.0001)                 2.490022710862746E+05,      /* I = 71 */
(PID.TID 0000.0001)                 2.598919724358304E+05,      /* I = 72 */
(PID.TID 0000.0001)                 2.693210245495156E+05,      /* I = 73 */
(PID.TID 0000.0001)                 2.774243179696503E+05,      /* I = 74 */
(PID.TID 0000.0001)                 2.842862532064524E+05,      /* I = 75 */
(PID.TID 0000.0001)                 2.899590699694043E+05,      /* I = 76 */
(PID.TID 0000.0001)                 2.944742915095688E+05,      /* I = 77 */
(PID.TID 0000.0001)                 2.978501920522794E+05,      /* I = 78 */
(PID.TID 0000.0001)                 3.000967749619962E+05,      /* I = 79 */
(PID.TID 0000.0001)     2 @  3.012190981969055E+05,             /* I = 80: 81 */
(PID.TID 0000.0001)                 3.000967749619962E+05,      /* I = 82 */
(PID.TID 0000.0001)                 2.978501920522794E+05,      /* I = 83 */
(PID.TID 0000.0001)                 2.944742915095688E+05,      /* I = 84 */
(PID.TID 0000.0001)                 2.899590699694043E+05,      /* I = 85 */
(PID.TID 0000.0001)                 2.842862532064524E+05,      /* I = 86 */
(PID.TID 0000.0001)                 2.774243179696503E+05,      /* I = 87 */
(PID.TID 0000.0001)                 2.693210245495156E+05,      /* I = 88 */
(PID.TID 0000.0001)                 2.598919724358304E+05,      /* I = 89 */
(PID.TID 0000.0001)                 2.490022710862746E+05,      /* I = 90 */
(PID.TID 0000.0001)                 2.364352994647058E+05,      /* I = 91 */
(PID.TID 0000.0001)                 2.218350349844185E+05,      /* I = 92 */
(PID.TID 0000.0001)                 2.045883481718707E+05,      /* I = 93 */
(PID.TID 0000.0001)                 1.835530058121492E+05,      /* I = 94 */
(PID.TID 0000.0001)                 1.563594089971120E+05,      /* I = 95 */
(PID.TID 0000.0001)     2 @  1.202082051331828E+05,             /* I = 96: 97 */
(PID.TID 0000.0001)                 1.563594089971120E+05,      /* I = 98 */
(PID.TID 0000.0001)                 1.835530058121492E+05,      /* I = 99 */
(PID.TID 0000.0001)                 2.045883481718707E+05,      /* I =100 */
(PID.TID 0000.0001)                 2.218350349844185E+05,      /* I =101 */
(PID.TID 0000.0001)                 2.364352994647058E+05,      /* I =102 */
(PID.TID 0000.0001)                 2.490022710862746E+05,      /* I =103 */
(PID.TID 0000.0001)                 2.598919724358304E+05,      /* I =104 */
(PID.TID 0000.0001)                 2.693210245495156E+05,      /* I =105 */
(PID.TID 0000.0001)                 2.774243179696503E+05,      /* I =106 */
(PID.TID 0000.0001)                 2.842862532064524E+05,      /* I =107 */
(PID.TID 0000.0001)                 2.899590699694043E+05,      /* I =108 */
(PID.TID 0000.0001)                 2.944742915095688E+05,      /* I =109 */
(PID.TID 0000.0001)                 2.978501920522794E+05,      /* I =110 */
(PID.TID 0000.0001)                 3.000967749619962E+05,      /* I =111 */
(PID.TID 0000.0001)     2 @  3.012190981969055E+05,             /* I =112:113 */
(PID.TID 0000.0001)                 3.000967749619962E+05,      /* I =114 */
(PID.TID 0000.0001)                 2.978501920522794E+05,      /* I =115 */
(PID.TID 0000.0001)                 2.944742915095688E+05,      /* I =116 */
(PID.TID 0000.0001)                 2.899590699694043E+05,      /* I =117 */
(PID.TID 0000.0001)                 2.842862532064524E+05,      /* I =118 */
(PID.TID 0000.0001)                 2.774243179696503E+05,      /* I =119 */
(PID.TID 0000.0001)                 2.693210245495156E+05,      /* I =120 */
(PID.TID 0000.0001)                 2.598919724358304E+05,      /* I =121 */
(PID.TID 0000.0001)                 2.490022710862746E+05,      /* I =122 */
(PID.TID 0000.0001)                 2.364352994647058E+05,      /* I =123 */
(PID.TID 0000.0001)                 2.218350349844185E+05,      /* I =124 */
(PID.TID 0000.0001)                 2.045883481718707E+05,      /* I =125 */
(PID.TID 0000.0001)                 1.835530058121492E+05,      /* I =126 */
(PID.TID 0000.0001)                 1.563594089971120E+05,      /* I =127 */
(PID.TID 0000.0001)     2 @  1.202082051331828E+05,             /* I =128:129 */
(PID.TID 0000.0001)                 1.563594089971120E+05,      /* I =130 */
(PID.TID 0000.0001)                 1.835530058121492E+05,      /* I =131 */
(PID.TID 0000.0001)                 2.045883481718707E+05,      /* I =132 */
(PID.TID 0000.0001)                 2.218350349844185E+05,      /* I =133 */
(PID.TID 0000.0001)                 2.364352994647058E+05,      /* I =134 */
(PID.TID 0000.0001)                 2.490022710862746E+05,      /* I =135 */
(PID.TID 0000.0001)                 2.598919724358304E+05,      /* I =136 */
(PID.TID 0000.0001)                 2.693210245495156E+05,      /* I =137 */
(PID.TID 0000.0001)                 2.774243179696503E+05,      /* I =138 */
(PID.TID 0000.0001)                 2.842862532064524E+05,      /* I =139 */
(PID.TID 0000.0001)                 2.899590699694043E+05,      /* I =140 */
(PID.TID 0000.0001)                 2.944742915095688E+05,      /* I =141 */
(PID.TID 0000.0001)                 2.978501920522794E+05,      /* I =142 */
(PID.TID 0000.0001)                 3.000967749619962E+05,      /* I =143 */
(PID.TID 0000.0001)     2 @  3.012190981969055E+05,             /* I =144:145 */
(PID.TID 0000.0001)                 3.000967749619962E+05,      /* I =146 */
(PID.TID 0000.0001)                 2.978501920522794E+05,      /* I =147 */
(PID.TID 0000.0001)                 2.944742915095688E+05,      /* I =148 */
(PID.TID 0000.0001)                 2.899590699694043E+05,      /* I =149 */
(PID.TID 0000.0001)                 2.842862532064524E+05,      /* I =150 */
(PID.TID 0000.0001)                 2.774243179696503E+05,      /* I =151 */
(PID.TID 0000.0001)                 2.693210245495156E+05,      /* I =152 */
(PID.TID 0000.0001)                 2.598919724358304E+05,      /* I =153 */
(PID.TID 0000.0001)                 2.490022710862746E+05,      /* I =154 */
(PID.TID 0000.0001)                 2.364352994647058E+05,      /* I =155 */
(PID.TID 0000.0001)                 2.218350349844185E+05,      /* I =156 */
(PID.TID 0000.0001)                 2.045883481718707E+05,      /* I =157 */
(PID.TID 0000.0001)                 1.835530058121492E+05,      /* I =158 */
(PID.TID 0000.0001)                 1.563594089971120E+05,      /* I =159 */
(PID.TID 0000.0001)     2 @  1.202082051331828E+05,             /* I =160:161 */
(PID.TID 0000.0001)                 1.563594089971120E+05,      /* I =162 */
(PID.TID 0000.0001)                 1.835530058121492E+05,      /* I =163 */
(PID.TID 0000.0001)                 2.045883481718707E+05,      /* I =164 */
(PID.TID 0000.0001)                 2.218350349844185E+05,      /* I =165 */
(PID.TID 0000.0001)                 2.364352994647058E+05,      /* I =166 */
(PID.TID 0000.0001)                 2.490022710862746E+05,      /* I =167 */
(PID.TID 0000.0001)                 2.598919724358304E+05,      /* I =168 */
(PID.TID 0000.0001)                 2.693210245495156E+05,      /* I =169 */
(PID.TID 0000.0001)                 2.774243179696503E+05,      /* I =170 */
(PID.TID 0000.0001)                 2.842862532064524E+05,      /* I =171 */
(PID.TID 0000.0001)                 2.899590699694043E+05,      /* I =172 */
(PID.TID 0000.0001)                 2.944742915095688E+05,      /* I =173 */
(PID.TID 0000.0001)                 2.978501920522794E+05,      /* I =174 */
(PID.TID 0000.0001)                 3.000967749619962E+05,      /* I =175 */
(PID.TID 0000.0001)     2 @  3.012190981969055E+05,             /* I =176:177 */
(PID.TID 0000.0001)                 3.000967749619962E+05,      /* I =178 */
(PID.TID 0000.0001)                 2.978501920522794E+05,      /* I =179 */
(PID.TID 0000.0001)                 2.944742915095688E+05,      /* I =180 */
(PID.TID 0000.0001)                 2.899590699694043E+05,      /* I =181 */
(PID.TID 0000.0001)                 2.842862532064524E+05,      /* I =182 */
(PID.TID 0000.0001)                 2.774243179696503E+05,      /* I =183 */
(PID.TID 0000.0001)                 2.693210245495156E+05,      /* I =184 */
(PID.TID 0000.0001)                 2.598919724358304E+05,      /* I =185 */
(PID.TID 0000.0001)                 2.490022710862746E+05,      /* I =186 */
(PID.TID 0000.0001)                 2.364352994647058E+05,      /* I =187 */
(PID.TID 0000.0001)                 2.218350349844185E+05,      /* I =188 */
(PID.TID 0000.0001)                 2.045883481718707E+05,      /* I =189 */
(PID.TID 0000.0001)                 1.835530058121492E+05,      /* I =190 */
(PID.TID 0000.0001)                 1.563594089971120E+05,      /* I =191 */
(PID.TID 0000.0001)                 1.202082051331828E+05       /* I =192 */
(PID.TID 0000.0001)     ;
(PID.TID 0000.0001) dxF =  /* dxF(1,:,1,:) ( units: m ) */
(PID.TID 0000.0001)                 1.202082051331828E+05,      /* J =  1 */
(PID.TID 0000.0001)                 1.572908084538706E+05,      /* J =  2 */
(PID.TID 0000.0001)                 1.840412227747703E+05,      /* J =  3 */
(PID.TID 0000.0001)                 2.048868197919576E+05,      /* J =  4 */
(PID.TID 0000.0001)                 2.220405216043041E+05,      /* J =  5 */
(PID.TID 0000.0001)                 2.365892017348392E+05,      /* J =  6 */
(PID.TID 0000.0001)                 2.491250781852558E+05,      /* J =  7 */
(PID.TID 0000.0001)                 2.599949918261881E+05,      /* J =  8 */
(PID.TID 0000.0001)                 2.694110134598581E+05,      /* J =  9 */
(PID.TID 0000.0001)                 2.775055554645015E+05,      /* J = 10 */
(PID.TID 0000.0001)                 2.843615645344775E+05,      /* J = 11 */
(PID.TID 0000.0001)                 2.900303768613599E+05,      /* J = 12 */
(PID.TID 0000.0001)                 2.945429307892709E+05,      /* J = 13 */
(PID.TID 0000.0001)                 2.979171143158405E+05,      /* J = 14 */
(PID.TID 0000.0001)                 3.001626787528886E+05,      /* J = 15 */
(PID.TID 0000.0001)     2 @  3.012844832048790E+05,             /* J = 16: 17 */
(PID.TID 0000.0001)                 3.001626787528886E+05,      /* J = 18 */
(PID.TID 0000.0001)                 2.979171143158405E+05,      /* J = 19 */
(PID.TID 0000.0001)                 2.945429307892709E+05,      /* J = 20 */
(PID.TID 0000.0001)                 2.900303768613599E+05,      /* J = 21 */
(PID.TID 0000.0001)                 2.843615645344775E+05,      /* J = 22 */
(PID.TID 0000.0001)                 2.775055554645015E+05,      /* J = 23 */
(PID.TID 0000.0001)                 2.694110134598581E+05,      /* J = 24 */
(PID.TID 0000.0001)                 2.599949918261881E+05,      /* J = 25 */
(PID.TID 0000.0001)                 2.491250781852558E+05,      /* J = 26 */
(PID.TID 0000.0001)                 2.365892017348392E+05,      /* J = 27 */
(PID.TID 0000.0001)                 2.220405216043041E+05,      /* J = 28 */
(PID.TID 0000.0001)                 2.048868197919576E+05,      /* J = 29 */
(PID.TID 0000.0001)                 1.840412227747703E+05,      /* J = 30 */
(PID.TID 0000.0001)                 1.572908084538706E+05,      /* J = 31 */
(PID.TID 0000.0001)                 1.202082051331828E+05       /* J = 32 */
(PID.TID 0000.0001)     ;
(PID.TID 0000.0001) dyF =  /* dyF(:,1,:,1) ( units: m ) */
(PID.TID 0000.0001)                 1.202082051331828E+05,      /* I =  1 */
(PID.TID 0000.0001)                 1.572908084538706E+05,      /* I =  2 */
(PID.TID 0000.0001)                 1.840412227747703E+05,      /* I =  3 */
(PID.TID 0000.0001)                 2.048868197919576E+05,      /* I =  4 */
(PID.TID 0000.0001)                 2.220405216043041E+05,      /* I =  5 */
(PID.TID 0000.0001)                 2.365892017348392E+05,      /* I =  6 */
(PID.TID 0000.0001)                 2.491250781852558E+05,      /* I =  7 */
(PID.TID 0000.0001)                 2.599949918261881E+05,      /* I =  8 */
(PID.TID 0000.0001)                 2.694110134598581E+05,      /* I =  9 */
(PID.TID 0000.0001)                 2.775055554645015E+05,      /* I = 10 */
(PID.TID 0000.0001)                 2.843615645344775E+05,      /* I = 11 */
(PID.TID 0000.0001)                 2.900303768613599E+05,      /* I = 12 */
(PID.TID 0000.0001)                 2.945429307892709E+05,      /* I = 13 */
(PID.TID 0000.0001)                 2.979171143158405E+05,      /* I = 14 */
(PID.TID 0000.0001)                 3.001626787528886E+05,      /* I = 15 */
(PID.TID 0000.0001)     2 @  3.012844832048790E+05,             /* I = 16: 17 */
(PID.TID 0000.0001)                 3.001626787528886E+05,      /* I = 18 */
(PID.TID 0000.0001)                 2.979171143158405E+05,      /* I = 19 */
(PID.TID 0000.0001)                 2.945429307892709E+05,      /* I = 20 */
(PID.TID 0000.0001)                 2.900303768613599E+05,      /* I = 21 */
(PID.TID 0000.0001)                 2.843615645344775E+05,      /* I = 22 */
(PID.TID 0000.0001)                 2.775055554645015E+05,      /* I = 23 */
(PID.TID 0000.0001)                 2.694110134598581E+05,      /* I = 24 */
(PID.TID 0000.0001)                 2.599949918261881E+05,      /* I = 25 */
(PID.TID 0000.0001)                 2.491250781852558E+05,      /* I = 26 */
(PID.TID 0000.0001)                 2.365892017348392E+05,      /* I = 27 */
(PID.TID 0000.0001)                 2.220405216043041E+05,      /* I = 28 */
(PID.TID 0000.0001)                 2.048868197919576E+05,      /* I = 29 */
(PID.TID 0000.0001)                 1.840412227747703E+05,      /* I = 30 */
(PID.TID 0000.0001)                 1.572908084538706E+05,      /* I = 31 */
(PID.TID 0000.0001)     2 @  1.202082051331828E+05,             /* I = 32: 33 */
(PID.TID 0000.0001)                 1.572908084538706E+05,      /* I = 34 */
(PID.TID 0000.0001)                 1.840412227747703E+05,      /* I = 35 */
(PID.TID 0000.0001)                 2.048868197919576E+05,      /* I = 36 */
(PID.TID 0000.0001)                 2.220405216043041E+05,      /* I = 37 */
(PID.TID 0000.0001)                 2.365892017348392E+05,      /* I = 38 */
(PID.TID 0000.0001)                 2.491250781852558E+05,      /* I = 39 */
(PID.TID 0000.0001)                 2.599949918261881E+05,      /* I = 40 */
(PID.TID 0000.0001)                 2.694110134598581E+05,      /* I = 41 */
(PID.TID 0000.0001)                 2.775055554645015E+05,      /* I = 42 */
(PID.TID 0000.0001)                 2.843615645344775E+05,      /* I = 43 */
(PID.TID 0000.0001)                 2.900303768613599E+05,      /* I = 44 */
(PID.TID 0000.0001)                 2.945429307892709E+05,      /* I = 45 */
(PID.TID 0000.0001)                 2.979171143158405E+05,      /* I = 46 */
(PID.TID 0000.0001)                 3.001626787528886E+05,      /* I = 47 */
(PID.TID 0000.0001)     2 @  3.012844832048790E+05,             /* I = 48: 49 */
(PID.TID 0000.0001)                 3.001626787528886E+05,      /* I = 50 */
(PID.TID 0000.0001)                 2.979171143158405E+05,      /* I = 51 */
(PID.TID 0000.0001)                 2.945429307892709E+05,      /* I = 52 */
(PID.TID 0000.0001)                 2.900303768613599E+05,      /* I = 53 */
(PID.TID 0000.0001)                 2.843615645344775E+05,      /* I = 54 */
(PID.TID 0000.0001)                 2.775055554645015E+05,      /* I = 55 */
(PID.TID 0000.0001)                 2.694110134598581E+05,      /* I = 56 */
(PID.TID 0000.0001)                 2.599949918261881E+05,      /* I = 57 */
(PID.TID 0000.0001)                 2.491250781852558E+05,      /* I = 58 */
(PID.TID 0000.0001)                 2.365892017348392E+05,      /* I = 59 */
(PID.TID 0000.0001)                 2.220405216043041E+05,      /* I = 60 */
(PID.TID 0000.0001)                 2.048868197919576E+05,      /* I = 61 */
(PID.TID 0000.0001)                 1.840412227747703E+05,      /* I = 62 */
(PID.TID 0000.0001)                 1.572908084538706E+05,      /* I = 63 */
(PID.TID 0000.0001)     2 @  1.202082051331828E+05,             /* I = 64: 65 */
(PID.TID 0000.0001)                 1.572908084538706E+05,      /* I = 66 */
(PID.TID 0000.0001)                 1.840412227747703E+05,      /* I = 67 */
(PID.TID 0000.0001)                 2.048868197919576E+05,      /* I = 68 */
(PID.TID 0000.0001)                 2.220405216043041E+05,      /* I = 69 */
(PID.TID 0000.0001)                 2.365892017348392E+05,      /* I = 70 */
(PID.TID 0000.0001)                 2.491250781852558E+05,      /* I = 71 */
(PID.TID 0000.0001)                 2.599949918261881E+05,      /* I = 72 */
(PID.TID 0000.0001)                 2.694110134598581E+05,      /* I = 73 */
(PID.TID 0000.0001)                 2.775055554645015E+05,      /* I = 74 */
(PID.TID 0000.0001)                 2.843615645344775E+05,      /* I = 75 */
(PID.TID 0000.0001)                 2.900303768613599E+05,      /* I = 76 */
(PID.TID 0000.0001)                 2.945429307892709E+05,      /* I = 77 */
(PID.TID 0000.0001)                 2.979171143158405E+05,      /* I = 78 */
(PID.TID 0000.0001)                 3.001626787528886E+05,      /* I = 79 */
(PID.TID 0000.0001)     2 @  3.012844832048790E+05,             /* I = 80: 81 */
(PID.TID 0000.0001)                 3.001626787528886E+05,      /* I = 82 */
(PID.TID 0000.0001)                 2.979171143158405E+05,      /* I = 83 */
(PID.TID 0000.0001)                 2.945429307892709E+05,      /* I = 84 */
(PID.TID 0000.0001)                 2.900303768613599E+05,      /* I = 85 */
(PID.TID 0000.0001)                 2.843615645344775E+05,      /* I = 86 */
(PID.TID 0000.0001)                 2.775055554645015E+05,      /* I = 87 */
(PID.TID 0000.0001)                 2.694110134598581E+05,      /* I = 88 */
(PID.TID 0000.0001)                 2.599949918261881E+05,      /* I = 89 */
(PID.TID 0000.0001)                 2.491250781852558E+05,      /* I = 90 */
(PID.TID 0000.0001)                 2.365892017348392E+05,      /* I = 91 */
(PID.TID 0000.0001)                 2.220405216043041E+05,      /* I = 92 */
(PID.TID 0000.0001)                 2.048868197919576E+05,      /* I = 93 */
(PID.TID 0000.0001)                 1.840412227747703E+05,      /* I = 94 */
(PID.TID 0000.0001)                 1.572908084538706E+05,      /* I = 95 */
(PID.TID 0000.0001)     2 @  1.202082051331828E+05,             /* I = 96: 97 */
(PID.TID 0000.0001)                 1.572908084538706E+05,      /* I = 98 */
(PID.TID 0000.0001)                 1.840412227747703E+05,      /* I = 99 */
(PID.TID 0000.0001)                 2.048868197919576E+05,      /* I =100 */
(PID.TID 0000.0001)                 2.220405216043041E+05,      /* I =101 */
(PID.TID 0000.0001)                 2.365892017348392E+05,      /* I =102 */
(PID.TID 0000.0001)                 2.491250781852558E+05,      /* I =103 */
(PID.TID 0000.0001)                 2.599949918261881E+05,      /* I =104 */
(PID.TID 0000.0001)                 2.694110134598581E+05,      /* I =105 */
(PID.TID 0000.0001)                 2.775055554645015E+05,      /* I =106 */
(PID.TID 0000.0001)                 2.843615645344775E+05,      /* I =107 */
(PID.TID 0000.0001)                 2.900303768613599E+05,      /* I =108 */
(PID.TID 0000.0001)                 2.945429307892709E+05,      /* I =109 */
(PID.TID 0000.0001)                 2.979171143158405E+05,      /* I =110 */
(PID.TID 0000.0001)                 3.001626787528886E+05,      /* I =111 */
(PID.TID 0000.0001)     2 @  3.012844832048790E+05,             /* I =112:113 */
(PID.TID 0000.0001)                 3.001626787528886E+05,      /* I =114 */
(PID.TID 0000.0001)                 2.979171143158405E+05,      /* I =115 */
(PID.TID 0000.0001)                 2.945429307892709E+05,      /* I =116 */
(PID.TID 0000.0001)                 2.900303768613599E+05,      /* I =117 */
(PID.TID 0000.0001)                 2.843615645344775E+05,      /* I =118 */
(PID.TID 0000.0001)                 2.775055554645015E+05,      /* I =119 */
(PID.TID 0000.0001)                 2.694110134598581E+05,      /* I =120 */
(PID.TID 0000.0001)                 2.599949918261881E+05,      /* I =121 */
(PID.TID 0000.0001)                 2.491250781852558E+05,      /* I =122 */
(PID.TID 0000.0001)                 2.365892017348392E+05,      /* I =123 */
(PID.TID 0000.0001)                 2.220405216043041E+05,      /* I =124 */
(PID.TID 0000.0001)                 2.048868197919576E+05,      /* I =125 */
(PID.TID 0000.0001)                 1.840412227747703E+05,      /* I =126 */
(PID.TID 0000.0001)                 1.572908084538706E+05,      /* I =127 */
(PID.TID 0000.0001)     2 @  1.202082051331828E+05,             /* I =128:129 */
(PID.TID 0000.0001)                 1.572908084538706E+05,      /* I =130 */
(PID.TID 0000.0001)                 1.840412227747703E+05,      /* I =131 */
(PID.TID 0000.0001)                 2.048868197919576E+05,      /* I =132 */
(PID.TID 0000.0001)                 2.220405216043041E+05,      /* I =133 */
(PID.TID 0000.0001)                 2.365892017348392E+05,      /* I =134 */
(PID.TID 0000.0001)                 2.491250781852558E+05,      /* I =135 */
(PID.TID 0000.0001)                 2.599949918261881E+05,      /* I =136 */
(PID.TID 0000.0001)                 2.694110134598581E+05,      /* I =137 */
(PID.TID 0000.0001)                 2.775055554645015E+05,      /* I =138 */
(PID.TID 0000.0001)                 2.843615645344775E+05,      /* I =139 */
(PID.TID 0000.0001)                 2.900303768613599E+05,      /* I =140 */
(PID.TID 0000.0001)                 2.945429307892709E+05,      /* I =141 */
(PID.TID 0000.0001)                 2.979171143158405E+05,      /* I =142 */
(PID.TID 0000.0001)                 3.001626787528886E+05,      /* I =143 */
(PID.TID 0000.0001)     2 @  3.012844832048790E+05,             /* I =144:145 */
(PID.TID 0000.0001)                 3.001626787528886E+05,      /* I =146 */
(PID.TID 0000.0001)                 2.979171143158405E+05,      /* I =147 */
(PID.TID 0000.0001)                 2.945429307892709E+05,      /* I =148 */
(PID.TID 0000.0001)                 2.900303768613599E+05,      /* I =149 */
(PID.TID 0000.0001)                 2.843615645344775E+05,      /* I =150 */
(PID.TID 0000.0001)                 2.775055554645015E+05,      /* I =151 */
(PID.TID 0000.0001)                 2.694110134598581E+05,      /* I =152 */
(PID.TID 0000.0001)                 2.599949918261881E+05,      /* I =153 */
(PID.TID 0000.0001)                 2.491250781852558E+05,      /* I =154 */
(PID.TID 0000.0001)                 2.365892017348392E+05,      /* I =155 */
(PID.TID 0000.0001)                 2.220405216043041E+05,      /* I =156 */
(PID.TID 0000.0001)                 2.048868197919576E+05,      /* I =157 */
(PID.TID 0000.0001)                 1.840412227747703E+05,      /* I =158 */
(PID.TID 0000.0001)                 1.572908084538706E+05,      /* I =159 */
(PID.TID 0000.0001)     2 @  1.202082051331828E+05,             /* I =160:161 */
(PID.TID 0000.0001)                 1.572908084538706E+05,      /* I =162 */
(PID.TID 0000.0001)                 1.840412227747703E+05,      /* I =163 */
(PID.TID 0000.0001)                 2.048868197919576E+05,      /* I =164 */
(PID.TID 0000.0001)                 2.220405216043041E+05,      /* I =165 */
(PID.TID 0000.0001)                 2.365892017348392E+05,      /* I =166 */
(PID.TID 0000.0001)                 2.491250781852558E+05,      /* I =167 */
(PID.TID 0000.0001)                 2.599949918261881E+05,      /* I =168 */
(PID.TID 0000.0001)                 2.694110134598581E+05,      /* I =169 */
(PID.TID 0000.0001)                 2.775055554645015E+05,      /* I =170 */
(PID.TID 0000.0001)                 2.843615645344775E+05,      /* I =171 */
(PID.TID 0000.0001)                 2.900303768613599E+05,      /* I =172 */
(PID.TID 0000.0001)                 2.945429307892709E+05,      /* I =173 */
(PID.TID 0000.0001)                 2.979171143158405E+05,      /* I =174 */
(PID.TID 0000.0001)                 3.001626787528886E+05,      /* I =175 */
(PID.TID 0000.0001)     2 @  3.012844832048790E+05,             /* I =176:177 */
(PID.TID 0000.0001)                 3.001626787528886E+05,      /* I =178 */
(PID.TID 0000.0001)                 2.979171143158405E+05,      /* I =179 */
(PID.TID 0000.0001)                 2.945429307892709E+05,      /* I =180 */
(PID.TID 0000.0001)                 2.900303768613599E+05,      /* I =181 */
(PID.TID 0000.0001)                 2.843615645344775E+05,      /* I =182 */
(PID.TID 0000.0001)                 2.775055554645015E+05,      /* I =183 */
(PID.TID 0000.0001)                 2.694110134598581E+05,      /* I =184 */
(PID.TID 0000.0001)                 2.599949918261881E+05,      /* I =185 */
(PID.TID 0000.0001)                 2.491250781852558E+05,      /* I =186 */
(PID.TID 0000.0001)                 2.365892017348392E+05,      /* I =187 */
(PID.TID 0000.0001)                 2.220405216043041E+05,      /* I =188 */
(PID.TID 0000.0001)                 2.048868197919576E+05,      /* I =189 */
(PID.TID 0000.0001)                 1.840412227747703E+05,      /* I =190 */
(PID.TID 0000.0001)                 1.572908084538706E+05,      /* I =191 */
(PID.TID 0000.0001)                 1.202082051331828E+05       /* I =192 */
(PID.TID 0000.0001)     ;
(PID.TID 0000.0001) dyF =  /* dyF(1,:,1,:) ( units: m ) */
(PID.TID 0000.0001)                 1.202082051331828E+05,      /* J =  1 */
(PID.TID 0000.0001)                 1.563594089971120E+05,      /* J =  2 */
(PID.TID 0000.0001)                 1.835530058121492E+05,      /* J =  3 */
(PID.TID 0000.0001)                 2.045883481718707E+05,      /* J =  4 */
(PID.TID 0000.0001)                 2.218350349844185E+05,      /* J =  5 */
(PID.TID 0000.0001)                 2.364352994647058E+05,      /* J =  6 */
(PID.TID 0000.0001)                 2.490022710862746E+05,      /* J =  7 */
(PID.TID 0000.0001)                 2.598919724358304E+05,      /* J =  8 */
(PID.TID 0000.0001)                 2.693210245495156E+05,      /* J =  9 */
(PID.TID 0000.0001)                 2.774243179696503E+05,      /* J = 10 */
(PID.TID 0000.0001)                 2.842862532064524E+05,      /* J = 11 */
(PID.TID 0000.0001)                 2.899590699694043E+05,      /* J = 12 */
(PID.TID 0000.0001)                 2.944742915095688E+05,      /* J = 13 */
(PID.TID 0000.0001)                 2.978501920522794E+05,      /* J = 14 */
(PID.TID 0000.0001)                 3.000967749619962E+05,      /* J = 15 */
(PID.TID 0000.0001)     2 @  3.012190981969055E+05,             /* J = 16: 17 */
(PID.TID 0000.0001)                 3.000967749619962E+05,      /* J = 18 */
(PID.TID 0000.0001)                 2.978501920522794E+05,      /* J = 19 */
(PID.TID 0000.0001)                 2.944742915095688E+05,      /* J = 20 */
(PID.TID 0000.0001)                 2.899590699694043E+05,      /* J = 21 */
(PID.TID 0000.0001)                 2.842862532064524E+05,      /* J = 22 */
(PID.TID 0000.0001)                 2.774243179696503E+05,      /* J = 23 */
(PID.TID 0000.0001)                 2.693210245495156E+05,      /* J = 24 */
(PID.TID 0000.0001)                 2.598919724358304E+05,      /* J = 25 */
(PID.TID 0000.0001)                 2.490022710862746E+05,      /* J = 26 */
(PID.TID 0000.0001)                 2.364352994647058E+05,      /* J = 27 */
(PID.TID 0000.0001)                 2.218350349844185E+05,      /* J = 28 */
(PID.TID 0000.0001)                 2.045883481718707E+05,      /* J = 29 */
(PID.TID 0000.0001)                 1.835530058121492E+05,      /* J = 30 */
(PID.TID 0000.0001)                 1.563594089971120E+05,      /* J = 31 */
(PID.TID 0000.0001)                 1.202082051331828E+05       /* J = 32 */
(PID.TID 0000.0001)     ;
(PID.TID 0000.0001) dxG =  /* dxG(:,1,:,1) ( units: m ) */
(PID.TID 0000.0001)                 1.009837800879055E+05,      /* I =  1 */
(PID.TID 0000.0001)                 1.534505834330338E+05,      /* I =  2 */
(PID.TID 0000.0001)                 1.823321598773926E+05,      /* I =  3 */
(PID.TID 0000.0001)                 2.038999045536999E+05,      /* I =  4 */
(PID.TID 0000.0001)                 2.213884732245467E+05,      /* I =  5 */
(PID.TID 0000.0001)                 2.361211699596122E+05,      /* I =  6 */
(PID.TID 0000.0001)                 2.487693460283865E+05,      /* I =  7 */
(PID.TID 0000.0001)                 2.597126963772147E+05,      /* I =  8 */
(PID.TID 0000.0001)                 2.691790288994575E+05,      /* I =  9 */
(PID.TID 0000.0001)                 2.773091043277394E+05,      /* I = 10 */
(PID.TID 0000.0001)                 2.841906470085516E+05,      /* I = 11 */
(PID.TID 0000.0001)                 2.898778860929753E+05,      /* I = 12 */
(PID.TID 0000.0001)                 2.944035815526416E+05,      /* I = 13 */
(PID.TID 0000.0001)                 2.977867909042096E+05,      /* I = 14 */
(PID.TID 0000.0001)                 3.000380090330854E+05,      /* I = 15 */
(PID.TID 0000.0001)     2 @  3.011625828699101E+05,             /* I = 16: 17 */
(PID.TID 0000.0001)                 3.000380090330854E+05,      /* I = 18 */
(PID.TID 0000.0001)                 2.977867909042096E+05,      /* I = 19 */
(PID.TID 0000.0001)                 2.944035815526416E+05,      /* I = 20 */
(PID.TID 0000.0001)                 2.898778860929753E+05,      /* I = 21 */
(PID.TID 0000.0001)                 2.841906470085516E+05,      /* I = 22 */
(PID.TID 0000.0001)                 2.773091043277394E+05,      /* I = 23 */
(PID.TID 0000.0001)                 2.691790288994575E+05,      /* I = 24 */
(PID.TID 0000.0001)                 2.597126963772147E+05,      /* I = 25 */
(PID.TID 0000.0001)                 2.487693460283865E+05,      /* I = 26 */
(PID.TID 0000.0001)                 2.361211699596122E+05,      /* I = 27 */
(PID.TID 0000.0001)                 2.213884732245467E+05,      /* I = 28 */
(PID.TID 0000.0001)                 2.038999045536999E+05,      /* I = 29 */
(PID.TID 0000.0001)                 1.823321598773926E+05,      /* I = 30 */
(PID.TID 0000.0001)                 1.534505834330338E+05,      /* I = 31 */
(PID.TID 0000.0001)     2 @  1.009837800879055E+05,             /* I = 32: 33 */
(PID.TID 0000.0001)                 1.534505834330338E+05,      /* I = 34 */
(PID.TID 0000.0001)                 1.823321598773926E+05,      /* I = 35 */
(PID.TID 0000.0001)                 2.038999045536999E+05,      /* I = 36 */
(PID.TID 0000.0001)                 2.213884732245467E+05,      /* I = 37 */
(PID.TID 0000.0001)                 2.361211699596122E+05,      /* I = 38 */
(PID.TID 0000.0001)                 2.487693460283865E+05,      /* I = 39 */
(PID.TID 0000.0001)                 2.597126963772147E+05,      /* I = 40 */
(PID.TID 0000.0001)                 2.691790288994575E+05,      /* I = 41 */
(PID.TID 0000.0001)                 2.773091043277394E+05,      /* I = 42 */
(PID.TID 0000.0001)                 2.841906470085516E+05,      /* I = 43 */
(PID.TID 0000.0001)                 2.898778860929753E+05,      /* I = 44 */
(PID.TID 0000.0001)                 2.944035815526416E+05,      /* I = 45 */
(PID.TID 0000.0001)                 2.977867909042096E+05,      /* I = 46 */
(PID.TID 0000.0001)                 3.000380090330854E+05,      /* I = 47 */
(PID.TID 0000.0001)     2 @  3.011625828699101E+05,             /* I = 48: 49 */
(PID.TID 0000.0001)                 3.000380090330854E+05,      /* I = 50 */
(PID.TID 0000.0001)                 2.977867909042096E+05,      /* I = 51 */
(PID.TID 0000.0001)                 2.944035815526416E+05,      /* I = 52 */
(PID.TID 0000.0001)                 2.898778860929753E+05,      /* I = 53 */
(PID.TID 0000.0001)                 2.841906470085516E+05,      /* I = 54 */
(PID.TID 0000.0001)                 2.773091043277394E+05,      /* I = 55 */
(PID.TID 0000.0001)                 2.691790288994575E+05,      /* I = 56 */
(PID.TID 0000.0001)                 2.597126963772147E+05,      /* I = 57 */
(PID.TID 0000.0001)                 2.487693460283865E+05,      /* I = 58 */
(PID.TID 0000.0001)                 2.361211699596122E+05,      /* I = 59 */
(PID.TID 0000.0001)                 2.213884732245467E+05,      /* I = 60 */
(PID.TID 0000.0001)                 2.038999045536999E+05,      /* I = 61 */
(PID.TID 0000.0001)                 1.823321598773926E+05,      /* I = 62 */
(PID.TID 0000.0001)                 1.534505834330338E+05,      /* I = 63 */
(PID.TID 0000.0001)     2 @  1.009837800879055E+05,             /* I = 64: 65 */
(PID.TID 0000.0001)                 1.534505834330338E+05,      /* I = 66 */
(PID.TID 0000.0001)                 1.823321598773926E+05,      /* I = 67 */
(PID.TID 0000.0001)                 2.038999045536999E+05,      /* I = 68 */
(PID.TID 0000.0001)                 2.213884732245467E+05,      /* I = 69 */
(PID.TID 0000.0001)                 2.361211699596122E+05,      /* I = 70 */
(PID.TID 0000.0001)                 2.487693460283865E+05,      /* I = 71 */
(PID.TID 0000.0001)                 2.597126963772147E+05,      /* I = 72 */
(PID.TID 0000.0001)                 2.691790288994575E+05,      /* I = 73 */
(PID.TID 0000.0001)                 2.773091043277394E+05,      /* I = 74 */
(PID.TID 0000.0001)                 2.841906470085516E+05,      /* I = 75 */
(PID.TID 0000.0001)                 2.898778860929753E+05,      /* I = 76 */
(PID.TID 0000.0001)                 2.944035815526416E+05,      /* I = 77 */
(PID.TID 0000.0001)                 2.977867909042096E+05,      /* I = 78 */
(PID.TID 0000.0001)                 3.000380090330854E+05,      /* I = 79 */
(PID.TID 0000.0001)     2 @  3.011625828699101E+05,             /* I = 80: 81 */
(PID.TID 0000.0001)                 3.000380090330854E+05,      /* I = 82 */
(PID.TID 0000.0001)                 2.977867909042096E+05,      /* I = 83 */
(PID.TID 0000.0001)                 2.944035815526416E+05,      /* I = 84 */
(PID.TID 0000.0001)                 2.898778860929753E+05,      /* I = 85 */
(PID.TID 0000.0001)                 2.841906470085516E+05,      /* I = 86 */
(PID.TID 0000.0001)                 2.773091043277394E+05,      /* I = 87 */
(PID.TID 0000.0001)                 2.691790288994575E+05,      /* I = 88 */
(PID.TID 0000.0001)                 2.597126963772147E+05,      /* I = 89 */
(PID.TID 0000.0001)                 2.487693460283865E+05,      /* I = 90 */
(PID.TID 0000.0001)                 2.361211699596122E+05,      /* I = 91 */
(PID.TID 0000.0001)                 2.213884732245467E+05,      /* I = 92 */
(PID.TID 0000.0001)                 2.038999045536999E+05,      /* I = 93 */
(PID.TID 0000.0001)                 1.823321598773926E+05,      /* I = 94 */
(PID.TID 0000.0001)                 1.534505834330338E+05,      /* I = 95 */
(PID.TID 0000.0001)     2 @  1.009837800879055E+05,             /* I = 96: 97 */
(PID.TID 0000.0001)                 1.534505834330338E+05,      /* I = 98 */
(PID.TID 0000.0001)                 1.823321598773926E+05,      /* I = 99 */
(PID.TID 0000.0001)                 2.038999045536999E+05,      /* I =100 */
(PID.TID 0000.0001)                 2.213884732245467E+05,      /* I =101 */
(PID.TID 0000.0001)                 2.361211699596122E+05,      /* I =102 */
(PID.TID 0000.0001)                 2.487693460283865E+05,      /* I =103 */
(PID.TID 0000.0001)                 2.597126963772147E+05,      /* I =104 */
(PID.TID 0000.0001)                 2.691790288994575E+05,      /* I =105 */
(PID.TID 0000.0001)                 2.773091043277394E+05,      /* I =106 */
(PID.TID 0000.0001)                 2.841906470085516E+05,      /* I =107 */
(PID.TID 0000.0001)                 2.898778860929753E+05,      /* I =108 */
(PID.TID 0000.0001)                 2.944035815526416E+05,      /* I =109 */
(PID.TID 0000.0001)                 2.977867909042096E+05,      /* I =110 */
(PID.TID 0000.0001)                 3.000380090330854E+05,      /* I =111 */
(PID.TID 0000.0001)     2 @  3.011625828699101E+05,             /* I =112:113 */
(PID.TID 0000.0001)                 3.000380090330854E+05,      /* I =114 */
(PID.TID 0000.0001)                 2.977867909042096E+05,      /* I =115 */
(PID.TID 0000.0001)                 2.944035815526416E+05,      /* I =116 */
(PID.TID 0000.0001)                 2.898778860929753E+05,      /* I =117 */
(PID.TID 0000.0001)                 2.841906470085516E+05,      /* I =118 */
(PID.TID 0000.0001)                 2.773091043277394E+05,      /* I =119 */
(PID.TID 0000.0001)                 2.691790288994575E+05,      /* I =120 */
(PID.TID 0000.0001)                 2.597126963772147E+05,      /* I =121 */
(PID.TID 0000.0001)                 2.487693460283865E+05,      /* I =122 */
(PID.TID 0000.0001)                 2.361211699596122E+05,      /* I =123 */
(PID.TID 0000.0001)                 2.213884732245467E+05,      /* I =124 */
(PID.TID 0000.0001)                 2.038999045536999E+05,      /* I =125 */
(PID.TID 0000.0001)                 1.823321598773926E+05,      /* I =126 */
(PID.TID 0000.0001)                 1.534505834330338E+05,      /* I =127 */
(PID.TID 0000.0001)     2 @  1.009837800879055E+05,             /* I =128:129 */
(PID.TID 0000.0001)                 1.534505834330338E+05,      /* I =130 */
(PID.TID 0000.0001)                 1.823321598773926E+05,      /* I =131 */
(PID.TID 0000.0001)                 2.038999045536999E+05,      /* I =132 */
(PID.TID 0000.0001)                 2.213884732245467E+05,      /* I =133 */
(PID.TID 0000.0001)                 2.361211699596122E+05,      /* I =134 */
(PID.TID 0000.0001)                 2.487693460283865E+05,      /* I =135 */
(PID.TID 0000.0001)                 2.597126963772147E+05,      /* I =136 */
(PID.TID 0000.0001)                 2.691790288994575E+05,      /* I =137 */
(PID.TID 0000.0001)                 2.773091043277394E+05,      /* I =138 */
(PID.TID 0000.0001)                 2.841906470085516E+05,      /* I =139 */
(PID.TID 0000.0001)                 2.898778860929753E+05,      /* I =140 */
(PID.TID 0000.0001)                 2.944035815526416E+05,      /* I =141 */
(PID.TID 0000.0001)                 2.977867909042096E+05,      /* I =142 */
(PID.TID 0000.0001)                 3.000380090330854E+05,      /* I =143 */
(PID.TID 0000.0001)     2 @  3.011625828699101E+05,             /* I =144:145 */
(PID.TID 0000.0001)                 3.000380090330854E+05,      /* I =146 */
(PID.TID 0000.0001)                 2.977867909042096E+05,      /* I =147 */
(PID.TID 0000.0001)                 2.944035815526416E+05,      /* I =148 */
(PID.TID 0000.0001)                 2.898778860929753E+05,      /* I =149 */
(PID.TID 0000.0001)                 2.841906470085516E+05,      /* I =150 */
(PID.TID 0000.0001)                 2.773091043277394E+05,      /* I =151 */
(PID.TID 0000.0001)                 2.691790288994575E+05,      /* I =152 */
(PID.TID 0000.0001)                 2.597126963772147E+05,      /* I =153 */
(PID.TID 0000.0001)                 2.487693460283865E+05,      /* I =154 */
(PID.TID 0000.0001)                 2.361211699596122E+05,      /* I =155 */
(PID.TID 0000.0001)                 2.213884732245467E+05,      /* I =156 */
(PID.TID 0000.0001)                 2.038999045536999E+05,      /* I =157 */
(PID.TID 0000.0001)                 1.823321598773926E+05,      /* I =158 */
(PID.TID 0000.0001)                 1.534505834330338E+05,      /* I =159 */
(PID.TID 0000.0001)     2 @  1.009837800879055E+05,             /* I =160:161 */
(PID.TID 0000.0001)                 1.534505834330338E+05,      /* I =162 */
(PID.TID 0000.0001)                 1.823321598773926E+05,      /* I =163 */
(PID.TID 0000.0001)                 2.038999045536999E+05,      /* I =164 */
(PID.TID 0000.0001)                 2.213884732245467E+05,      /* I =165 */
(PID.TID 0000.0001)                 2.361211699596122E+05,      /* I =166 */
(PID.TID 0000.0001)                 2.487693460283865E+05,      /* I =167 */
(PID.TID 0000.0001)                 2.597126963772147E+05,      /* I =168 */
(PID.TID 0000.0001)                 2.691790288994575E+05,      /* I =169 */
(PID.TID 0000.0001)                 2.773091043277394E+05,      /* I =170 */
(PID.TID 0000.0001)                 2.841906470085516E+05,      /* I =171 */
(PID.TID 0000.0001)                 2.898778860929753E+05,      /* I =172 */
(PID.TID 0000.0001)                 2.944035815526416E+05,      /* I =173 */
(PID.TID 0000.0001)                 2.977867909042096E+05,      /* I =174 */
(PID.TID 0000.0001)                 3.000380090330854E+05,      /* I =175 */
(PID.TID 0000.0001)     2 @  3.011625828699101E+05,             /* I =176:177 */
(PID.TID 0000.0001)                 3.000380090330854E+05,      /* I =178 */
(PID.TID 0000.0001)                 2.977867909042096E+05,      /* I =179 */
(PID.TID 0000.0001)                 2.944035815526416E+05,      /* I =180 */
(PID.TID 0000.0001)                 2.898778860929753E+05,      /* I =181 */
(PID.TID 0000.0001)                 2.841906470085516E+05,      /* I =182 */
(PID.TID 0000.0001)                 2.773091043277394E+05,      /* I =183 */
(PID.TID 0000.0001)                 2.691790288994575E+05,      /* I =184 */
(PID.TID 0000.0001)                 2.597126963772147E+05,      /* I =185 */
(PID.TID 0000.0001)                 2.487693460283865E+05,      /* I =186 */
(PID.TID 0000.0001)                 2.361211699596122E+05,      /* I =187 */
(PID.TID 0000.0001)                 2.213884732245467E+05,      /* I =188 */
(PID.TID 0000.0001)                 2.038999045536999E+05,      /* I =189 */
(PID.TID 0000.0001)                 1.823321598773926E+05,      /* I =190 */
(PID.TID 0000.0001)                 1.534505834330338E+05,      /* I =191 */
(PID.TID 0000.0001)                 1.009837800879055E+05       /* I =192 */
(PID.TID 0000.0001)     ;
(PID.TID 0000.0001) dxG =  /* dxG(1,:,1,:) ( units: m ) */
(PID.TID 0000.0001)                 1.009837800879055E+05,      /* J =  1 */
(PID.TID 0000.0001)                 1.403701524205398E+05,      /* J =  2 */
(PID.TID 0000.0001)                 1.716197227386011E+05,      /* J =  3 */
(PID.TID 0000.0001)                 1.950254041626018E+05,      /* J =  4 */
(PID.TID 0000.0001)                 2.138410773065497E+05,      /* J =  5 */
(PID.TID 0000.0001)                 2.295958105911512E+05,      /* J =  6 */
(PID.TID 0000.0001)                 2.430829951739083E+05,      /* J =  7 */
(PID.TID 0000.0001)                 2.547526806712889E+05,      /* J =  8 */
(PID.TID 0000.0001)                 2.648750305193301E+05,      /* J =  9 */
(PID.TID 0000.0001)                 2.736173771018112E+05,      /* J = 10 */
(PID.TID 0000.0001)                 2.810845823202647E+05,      /* J = 11 */
(PID.TID 0000.0001)                 2.873420591008078E+05,      /* J = 12 */
(PID.TID 0000.0001)                 2.924298293668651E+05,      /* J = 13 */
(PID.TID 0000.0001)                 2.963715635865306E+05,      /* J = 14 */
(PID.TID 0000.0001)                 2.991805843171258E+05,      /* J = 15 */
(PID.TID 0000.0001)                 3.008638765647886E+05,      /* J = 16 */
(PID.TID 0000.0001)                 3.014246674484008E+05,      /* J = 17 */
(PID.TID 0000.0001)                 3.008638765647886E+05,      /* J = 18 */
(PID.TID 0000.0001)                 2.991805843171258E+05,      /* J = 19 */
(PID.TID 0000.0001)                 2.963715635865306E+05,      /* J = 20 */
(PID.TID 0000.0001)                 2.924298293668651E+05,      /* J = 21 */
(PID.TID 0000.0001)                 2.873420591008078E+05,      /* J = 22 */
(PID.TID 0000.0001)                 2.810845823202647E+05,      /* J = 23 */
(PID.TID 0000.0001)                 2.736173771018112E+05,      /* J = 24 */
(PID.TID 0000.0001)                 2.648750305193301E+05,      /* J = 25 */
(PID.TID 0000.0001)                 2.547526806712889E+05,      /* J = 26 */
(PID.TID 0000.0001)                 2.430829951739083E+05,      /* J = 27 */
(PID.TID 0000.0001)                 2.295958105911512E+05,      /* J = 28 */
(PID.TID 0000.0001)                 2.138410773065497E+05,      /* J = 29 */
(PID.TID 0000.0001)                 1.950254041626018E+05,      /* J = 30 */
(PID.TID 0000.0001)                 1.716197227386011E+05,      /* J = 31 */
(PID.TID 0000.0001)                 1.403701524205398E+05       /* J = 32 */
(PID.TID 0000.0001)     ;
(PID.TID 0000.0001) dyG =  /* dyG(:,1,:,1) ( units: m ) */
(PID.TID 0000.0001)                 1.009837800879055E+05,      /* I =  1 */
(PID.TID 0000.0001)                 1.403701524205398E+05,      /* I =  2 */
(PID.TID 0000.0001)                 1.716197227386011E+05,      /* I =  3 */
(PID.TID 0000.0001)                 1.950254041626018E+05,      /* I =  4 */
(PID.TID 0000.0001)                 2.138410773065497E+05,      /* I =  5 */
(PID.TID 0000.0001)                 2.295958105911512E+05,      /* I =  6 */
(PID.TID 0000.0001)                 2.430829951739083E+05,      /* I =  7 */
(PID.TID 0000.0001)                 2.547526806712889E+05,      /* I =  8 */
(PID.TID 0000.0001)                 2.648750305193301E+05,      /* I =  9 */
(PID.TID 0000.0001)                 2.736173771018112E+05,      /* I = 10 */
(PID.TID 0000.0001)                 2.810845823202647E+05,      /* I = 11 */
(PID.TID 0000.0001)                 2.873420591008078E+05,      /* I = 12 */
(PID.TID 0000.0001)                 2.924298293668651E+05,      /* I = 13 */
(PID.TID 0000.0001)                 2.963715635865306E+05,      /* I = 14 */
(PID.TID 0000.0001)                 2.991805843171258E+05,      /* I = 15 */
(PID.TID 0000.0001)                 3.008638765647886E+05,      /* I = 16 */
(PID.TID 0000.0001)                 3.014246674484008E+05,      /* I = 17 */
(PID.TID 0000.0001)                 3.008638765647886E+05,      /* I = 18 */
(PID.TID 0000.0001)                 2.991805843171258E+05,      /* I = 19 */
(PID.TID 0000.0001)                 2.963715635865306E+05,      /* I = 20 */
(PID.TID 0000.0001)                 2.924298293668651E+05,      /* I = 21 */
(PID.TID 0000.0001)                 2.873420591008078E+05,      /* I = 22 */
(PID.TID 0000.0001)                 2.810845823202647E+05,      /* I = 23 */
(PID.TID 0000.0001)                 2.736173771018112E+05,      /* I = 24 */
(PID.TID 0000.0001)                 2.648750305193301E+05,      /* I = 25 */
(PID.TID 0000.0001)                 2.547526806712889E+05,      /* I = 26 */
(PID.TID 0000.0001)                 2.430829951739083E+05,      /* I = 27 */
(PID.TID 0000.0001)                 2.295958105911512E+05,      /* I = 28 */
(PID.TID 0000.0001)                 2.138410773065497E+05,      /* I = 29 */
(PID.TID 0000.0001)                 1.950254041626018E+05,      /* I = 30 */
(PID.TID 0000.0001)                 1.716197227386011E+05,      /* I = 31 */
(PID.TID 0000.0001)                 1.403701524205398E+05,      /* I = 32 */
(PID.TID 0000.0001)                 1.009837800879055E+05,      /* I = 33 */
(PID.TID 0000.0001)                 1.403701524205398E+05,      /* I = 34 */
(PID.TID 0000.0001)                 1.716197227386011E+05,      /* I = 35 */
(PID.TID 0000.0001)                 1.950254041626018E+05,      /* I = 36 */
(PID.TID 0000.0001)                 2.138410773065497E+05,      /* I = 37 */
(PID.TID 0000.0001)                 2.295958105911512E+05,      /* I = 38 */
(PID.TID 0000.0001)                 2.430829951739083E+05,      /* I = 39 */
(PID.TID 0000.0001)                 2.547526806712889E+05,      /* I = 40 */
(PID.TID 0000.0001)                 2.648750305193301E+05,      /* I = 41 */
(PID.TID 0000.0001)                 2.736173771018112E+05,      /* I = 42 */
(PID.TID 0000.0001)                 2.810845823202647E+05,      /* I = 43 */
(PID.TID 0000.0001)                 2.873420591008078E+05,      /* I = 44 */
(PID.TID 0000.0001)                 2.924298293668651E+05,      /* I = 45 */
(PID.TID 0000.0001)                 2.963715635865306E+05,      /* I = 46 */
(PID.TID 0000.0001)                 2.991805843171258E+05,      /* I = 47 */
(PID.TID 0000.0001)                 3.008638765647886E+05,      /* I = 48 */
(PID.TID 0000.0001)                 3.014246674484008E+05,      /* I = 49 */
(PID.TID 0000.0001)                 3.008638765647886E+05,      /* I = 50 */
(PID.TID 0000.0001)                 2.991805843171258E+05,      /* I = 51 */
(PID.TID 0000.0001)                 2.963715635865306E+05,      /* I = 52 */
(PID.TID 0000.0001)                 2.924298293668651E+05,      /* I = 53 */
(PID.TID 0000.0001)                 2.873420591008078E+05,      /* I = 54 */
(PID.TID 0000.0001)                 2.810845823202647E+05,      /* I = 55 */
(PID.TID 0000.0001)                 2.736173771018112E+05,      /* I = 56 */
(PID.TID 0000.0001)                 2.648750305193301E+05,      /* I = 57 */
(PID.TID 0000.0001)                 2.547526806712889E+05,      /* I = 58 */
(PID.TID 0000.0001)                 2.430829951739083E+05,      /* I = 59 */
(PID.TID 0000.0001)                 2.295958105911512E+05,      /* I = 60 */
(PID.TID 0000.0001)                 2.138410773065497E+05,      /* I = 61 */
(PID.TID 0000.0001)                 1.950254041626018E+05,      /* I = 62 */
(PID.TID 0000.0001)                 1.716197227386011E+05,      /* I = 63 */
(PID.TID 0000.0001)                 1.403701524205398E+05,      /* I = 64 */
(PID.TID 0000.0001)                 1.009837800879055E+05,      /* I = 65 */
(PID.TID 0000.0001)                 1.403701524205398E+05,      /* I = 66 */
(PID.TID 0000.0001)                 1.716197227386011E+05,      /* I = 67 */
(PID.TID 0000.0001)                 1.950254041626018E+05,      /* I = 68 */
(PID.TID 0000.0001)                 2.138410773065497E+05,      /* I = 69 */
(PID.TID 0000.0001)                 2.295958105911512E+05,      /* I = 70 */
(PID.TID 0000.0001)                 2.430829951739083E+05,      /* I = 71 */
(PID.TID 0000.0001)                 2.547526806712889E+05,      /* I = 72 */
(PID.TID 0000.0001)                 2.648750305193301E+05,      /* I = 73 */
(PID.TID 0000.0001)                 2.736173771018112E+05,      /* I = 74 */
(PID.TID 0000.0001)                 2.810845823202647E+05,      /* I = 75 */
(PID.TID 0000.0001)                 2.873420591008078E+05,      /* I = 76 */
(PID.TID 0000.0001)                 2.924298293668651E+05,      /* I = 77 */
(PID.TID 0000.0001)                 2.963715635865306E+05,      /* I = 78 */
(PID.TID 0000.0001)                 2.991805843171258E+05,      /* I = 79 */
(PID.TID 0000.0001)                 3.008638765647886E+05,      /* I = 80 */
(PID.TID 0000.0001)                 3.014246674484008E+05,      /* I = 81 */
(PID.TID 0000.0001)                 3.008638765647886E+05,      /* I = 82 */
(PID.TID 0000.0001)                 2.991805843171258E+05,      /* I = 83 */
(PID.TID 0000.0001)                 2.963715635865306E+05,      /* I = 84 */
(PID.TID 0000.0001)                 2.924298293668651E+05,      /* I = 85 */
(PID.TID 0000.0001)                 2.873420591008078E+05,      /* I = 86 */
(PID.TID 0000.0001)                 2.810845823202647E+05,      /* I = 87 */
(PID.TID 0000.0001)                 2.736173771018112E+05,      /* I = 88 */
(PID.TID 0000.0001)                 2.648750305193301E+05,      /* I = 89 */
(PID.TID 0000.0001)                 2.547526806712889E+05,      /* I = 90 */
(PID.TID 0000.0001)                 2.430829951739083E+05,      /* I = 91 */
(PID.TID 0000.0001)                 2.295958105911512E+05,      /* I = 92 */
(PID.TID 0000.0001)                 2.138410773065497E+05,      /* I = 93 */
(PID.TID 0000.0001)                 1.950254041626018E+05,      /* I = 94 */
(PID.TID 0000.0001)                 1.716197227386011E+05,      /* I = 95 */
(PID.TID 0000.0001)                 1.403701524205398E+05,      /* I = 96 */
(PID.TID 0000.0001)                 1.009837800879055E+05,      /* I = 97 */
(PID.TID 0000.0001)                 1.403701524205398E+05,      /* I = 98 */
(PID.TID 0000.0001)                 1.716197227386011E+05,      /* I = 99 */
(PID.TID 0000.0001)                 1.950254041626018E+05,      /* I =100 */
(PID.TID 0000.0001)                 2.138410773065497E+05,      /* I =101 */
(PID.TID 0000.0001)                 2.295958105911512E+05,      /* I =102 */
(PID.TID 0000.0001)                 2.430829951739083E+05,      /* I =103 */
(PID.TID 0000.0001)                 2.547526806712889E+05,      /* I =104 */
(PID.TID 0000.0001)                 2.648750305193301E+05,      /* I =105 */
(PID.TID 0000.0001)                 2.736173771018112E+05,      /* I =106 */
(PID.TID 0000.0001)                 2.810845823202647E+05,      /* I =107 */
(PID.TID 0000.0001)                 2.873420591008078E+05,      /* I =108 */
(PID.TID 0000.0001)                 2.924298293668651E+05,      /* I =109 */
(PID.TID 0000.0001)                 2.963715635865306E+05,      /* I =110 */
(PID.TID 0000.0001)                 2.991805843171258E+05,      /* I =111 */
(PID.TID 0000.0001)                 3.008638765647886E+05,      /* I =112 */
(PID.TID 0000.0001)                 3.014246674484008E+05,      /* I =113 */
(PID.TID 0000.0001)                 3.008638765647886E+05,      /* I =114 */
(PID.TID 0000.0001)                 2.991805843171258E+05,      /* I =115 */
(PID.TID 0000.0001)                 2.963715635865306E+05,      /* I =116 */
(PID.TID 0000.0001)                 2.924298293668651E+05,      /* I =117 */
(PID.TID 0000.0001)                 2.873420591008078E+05,      /* I =118 */
(PID.TID 0000.0001)                 2.810845823202647E+05,      /* I =119 */
(PID.TID 0000.0001)                 2.736173771018112E+05,      /* I =120 */
(PID.TID 0000.0001)                 2.648750305193301E+05,      /* I =121 */
(PID.TID 0000.0001)                 2.547526806712889E+05,      /* I =122 */
(PID.TID 0000.0001)                 2.430829951739083E+05,      /* I =123 */
(PID.TID 0000.0001)                 2.295958105911512E+05,      /* I =124 */
(PID.TID 0000.0001)                 2.138410773065497E+05,      /* I =125 */
(PID.TID 0000.0001)                 1.950254041626018E+05,      /* I =126 */
(PID.TID 0000.0001)                 1.716197227386011E+05,      /* I =127 */
(PID.TID 0000.0001)                 1.403701524205398E+05,      /* I =128 */
(PID.TID 0000.0001)                 1.009837800879055E+05,      /* I =129 */
(PID.TID 0000.0001)                 1.403701524205398E+05,      /* I =130 */
(PID.TID 0000.0001)                 1.716197227386011E+05,      /* I =131 */
(PID.TID 0000.0001)                 1.950254041626018E+05,      /* I =132 */
(PID.TID 0000.0001)                 2.138410773065497E+05,      /* I =133 */
(PID.TID 0000.0001)                 2.295958105911512E+05,      /* I =134 */
(PID.TID 0000.0001)                 2.430829951739083E+05,      /* I =135 */
(PID.TID 0000.0001)                 2.547526806712889E+05,      /* I =136 */
(PID.TID 0000.0001)                 2.648750305193301E+05,      /* I =137 */
(PID.TID 0000.0001)                 2.736173771018112E+05,      /* I =138 */
(PID.TID 0000.0001)                 2.810845823202647E+05,      /* I =139 */
(PID.TID 0000.0001)                 2.873420591008078E+05,      /* I =140 */
(PID.TID 0000.0001)                 2.924298293668651E+05,      /* I =141 */
(PID.TID 0000.0001)                 2.963715635865306E+05,      /* I =142 */
(PID.TID 0000.0001)                 2.991805843171258E+05,      /* I =143 */
(PID.TID 0000.0001)                 3.008638765647886E+05,      /* I =144 */
(PID.TID 0000.0001)                 3.014246674484008E+05,      /* I =145 */
(PID.TID 0000.0001)                 3.008638765647886E+05,      /* I =146 */
(PID.TID 0000.0001)                 2.991805843171258E+05,      /* I =147 */
(PID.TID 0000.0001)                 2.963715635865306E+05,      /* I =148 */
(PID.TID 0000.0001)                 2.924298293668651E+05,      /* I =149 */
(PID.TID 0000.0001)                 2.873420591008078E+05,      /* I =150 */
(PID.TID 0000.0001)                 2.810845823202647E+05,      /* I =151 */
(PID.TID 0000.0001)                 2.736173771018112E+05,      /* I =152 */
(PID.TID 0000.0001)                 2.648750305193301E+05,      /* I =153 */
(PID.TID 0000.0001)                 2.547526806712889E+05,      /* I =154 */
(PID.TID 0000.0001)                 2.430829951739083E+05,      /* I =155 */
(PID.TID 0000.0001)                 2.295958105911512E+05,      /* I =156 */
(PID.TID 0000.0001)                 2.138410773065497E+05,      /* I =157 */
(PID.TID 0000.0001)                 1.950254041626018E+05,      /* I =158 */
(PID.TID 0000.0001)                 1.716197227386011E+05,      /* I =159 */
(PID.TID 0000.0001)                 1.403701524205398E+05,      /* I =160 */
(PID.TID 0000.0001)                 1.009837800879055E+05,      /* I =161 */
(PID.TID 0000.0001)                 1.403701524205398E+05,      /* I =162 */
(PID.TID 0000.0001)                 1.716197227386011E+05,      /* I =163 */
(PID.TID 0000.0001)                 1.950254041626018E+05,      /* I =164 */
(PID.TID 0000.0001)                 2.138410773065497E+05,      /* I =165 */
(PID.TID 0000.0001)                 2.295958105911512E+05,      /* I =166 */
(PID.TID 0000.0001)                 2.430829951739083E+05,      /* I =167 */
(PID.TID 0000.0001)                 2.547526806712889E+05,      /* I =168 */
(PID.TID 0000.0001)                 2.648750305193301E+05,      /* I =169 */
(PID.TID 0000.0001)                 2.736173771018112E+05,      /* I =170 */
(PID.TID 0000.0001)                 2.810845823202647E+05,      /* I =171 */
(PID.TID 0000.0001)                 2.873420591008078E+05,      /* I =172 */
(PID.TID 0000.0001)                 2.924298293668651E+05,      /* I =173 */
(PID.TID 0000.0001)                 2.963715635865306E+05,      /* I =174 */
(PID.TID 0000.0001)                 2.991805843171258E+05,      /* I =175 */
(PID.TID 0000.0001)                 3.008638765647886E+05,      /* I =176 */
(PID.TID 0000.0001)                 3.014246674484008E+05,      /* I =177 */
(PID.TID 0000.0001)                 3.008638765647886E+05,      /* I =178 */
(PID.TID 0000.0001)                 2.991805843171258E+05,      /* I =179 */
(PID.TID 0000.0001)                 2.963715635865306E+05,      /* I =180 */
(PID.TID 0000.0001)                 2.924298293668651E+05,      /* I =181 */
(PID.TID 0000.0001)                 2.873420591008078E+05,      /* I =182 */
(PID.TID 0000.0001)                 2.810845823202647E+05,      /* I =183 */
(PID.TID 0000.0001)                 2.736173771018112E+05,      /* I =184 */
(PID.TID 0000.0001)                 2.648750305193301E+05,      /* I =185 */
(PID.TID 0000.0001)                 2.547526806712889E+05,      /* I =186 */
(PID.TID 0000.0001)                 2.430829951739083E+05,      /* I =187 */
(PID.TID 0000.0001)                 2.295958105911512E+05,      /* I =188 */
(PID.TID 0000.0001)                 2.138410773065497E+05,      /* I =189 */
(PID.TID 0000.0001)                 1.950254041626018E+05,      /* I =190 */
(PID.TID 0000.0001)                 1.716197227386011E+05,      /* I =191 */
(PID.TID 0000.0001)                 1.403701524205398E+05       /* I =192 */
(PID.TID 0000.0001)     ;
(PID.TID 0000.0001) dyG =  /* dyG(1,:,1,:) ( units: m ) */
(PID.TID 0000.0001)                 1.009837800879055E+05,      /* J =  1 */
(PID.TID 0000.0001)                 1.534505834330338E+05,      /* J =  2 */
(PID.TID 0000.0001)                 1.823321598773926E+05,      /* J =  3 */
(PID.TID 0000.0001)                 2.038999045536999E+05,      /* J =  4 */
(PID.TID 0000.0001)                 2.213884732245467E+05,      /* J =  5 */
(PID.TID 0000.0001)                 2.361211699596122E+05,      /* J =  6 */
(PID.TID 0000.0001)                 2.487693460283865E+05,      /* J =  7 */
(PID.TID 0000.0001)                 2.597126963772147E+05,      /* J =  8 */
(PID.TID 0000.0001)                 2.691790288994575E+05,      /* J =  9 */
(PID.TID 0000.0001)                 2.773091043277394E+05,      /* J = 10 */
(PID.TID 0000.0001)                 2.841906470085516E+05,      /* J = 11 */
(PID.TID 0000.0001)                 2.898778860929753E+05,      /* J = 12 */
(PID.TID 0000.0001)                 2.944035815526416E+05,      /* J = 13 */
(PID.TID 0000.0001)                 2.977867909042096E+05,      /* J = 14 */
(PID.TID 0000.0001)                 3.000380090330854E+05,      /* J = 15 */
(PID.TID 0000.0001)     2 @  3.011625828699101E+05,             /* J = 16: 17 */
(PID.TID 0000.0001)                 3.000380090330854E+05,      /* J = 18 */
(PID.TID 0000.0001)                 2.977867909042096E+05,      /* J = 19 */
(PID.TID 0000.0001)                 2.944035815526416E+05,      /* J = 20 */
(PID.TID 0000.0001)                 2.898778860929753E+05,      /* J = 21 */
(PID.TID 0000.0001)                 2.841906470085516E+05,      /* J = 22 */
(PID.TID 0000.0001)                 2.773091043277394E+05,      /* J = 23 */
(PID.TID 0000.0001)                 2.691790288994575E+05,      /* J = 24 */
(PID.TID 0000.0001)                 2.597126963772147E+05,      /* J = 25 */
(PID.TID 0000.0001)                 2.487693460283865E+05,      /* J = 26 */
(PID.TID 0000.0001)                 2.361211699596122E+05,      /* J = 27 */
(PID.TID 0000.0001)                 2.213884732245467E+05,      /* J = 28 */
(PID.TID 0000.0001)                 2.038999045536999E+05,      /* J = 29 */
(PID.TID 0000.0001)                 1.823321598773926E+05,      /* J = 30 */
(PID.TID 0000.0001)                 1.534505834330338E+05,      /* J = 31 */
(PID.TID 0000.0001)                 1.009837800879055E+05       /* J = 32 */
(PID.TID 0000.0001)     ;
(PID.TID 0000.0001) dxC =  /* dxC(:,1,:,1) ( units: m ) */
(PID.TID 0000.0001)                 1.114203141013064E+05,      /* I =  1 */
(PID.TID 0000.0001)                 1.391343389937106E+05,      /* I =  2 */
(PID.TID 0000.0001)                 1.709574999026266E+05,      /* I =  3 */
(PID.TID 0000.0001)                 1.946503699269892E+05,      /* I =  4 */
(PID.TID 0000.0001)                 2.135964483342134E+05,      /* I =  5 */
(PID.TID 0000.0001)                 2.294195678257306E+05,      /* I =  6 */
(PID.TID 0000.0001)                 2.429464709770498E+05,      /* I =  7 */
(PID.TID 0000.0001)                 2.546408290696998E+05,      /* I =  8 */
(PID.TID 0000.0001)                 2.647791839299727E+05,      /* I =  9 */
(PID.TID 0000.0001)                 2.735321911346108E+05,      /* I = 10 */
(PID.TID 0000.0001)                 2.810065951609633E+05,      /* I = 11 */
(PID.TID 0000.0001)                 2.872689479506990E+05,      /* I = 12 */
(PID.TID 0000.0001)                 2.923599955312932E+05,      /* I = 13 */
(PID.TID 0000.0001)                 2.963038832565530E+05,      /* I = 14 */
(PID.TID 0000.0001)                 2.991142470004740E+05,      /* I = 15 */
(PID.TID 0000.0001)                 3.007982711627968E+05,      /* I = 16 */
(PID.TID 0000.0001)                 3.013593857228136E+05,      /* I = 17 */
(PID.TID 0000.0001)                 3.007982711627968E+05,      /* I = 18 */
(PID.TID 0000.0001)                 2.991142470004740E+05,      /* I = 19 */
(PID.TID 0000.0001)                 2.963038832565530E+05,      /* I = 20 */
(PID.TID 0000.0001)                 2.923599955312932E+05,      /* I = 21 */
(PID.TID 0000.0001)                 2.872689479506990E+05,      /* I = 22 */
(PID.TID 0000.0001)                 2.810065951609633E+05,      /* I = 23 */
(PID.TID 0000.0001)                 2.735321911346108E+05,      /* I = 24 */
(PID.TID 0000.0001)                 2.647791839299727E+05,      /* I = 25 */
(PID.TID 0000.0001)                 2.546408290696998E+05,      /* I = 26 */
(PID.TID 0000.0001)                 2.429464709770498E+05,      /* I = 27 */
(PID.TID 0000.0001)                 2.294195678257306E+05,      /* I = 28 */
(PID.TID 0000.0001)                 2.135964483342134E+05,      /* I = 29 */
(PID.TID 0000.0001)                 1.946503699269892E+05,      /* I = 30 */
(PID.TID 0000.0001)                 1.709574999026266E+05,      /* I = 31 */
(PID.TID 0000.0001)                 1.391343389937106E+05,      /* I = 32 */
(PID.TID 0000.0001)                 1.114203141013064E+05,      /* I = 33 */
(PID.TID 0000.0001)                 1.391343389937106E+05,      /* I = 34 */
(PID.TID 0000.0001)                 1.709574999026266E+05,      /* I = 35 */
(PID.TID 0000.0001)                 1.946503699269892E+05,      /* I = 36 */
(PID.TID 0000.0001)                 2.135964483342134E+05,      /* I = 37 */
(PID.TID 0000.0001)                 2.294195678257306E+05,      /* I = 38 */
(PID.TID 0000.0001)                 2.429464709770498E+05,      /* I = 39 */
(PID.TID 0000.0001)                 2.546408290696998E+05,      /* I = 40 */
(PID.TID 0000.0001)                 2.647791839299727E+05,      /* I = 41 */
(PID.TID 0000.0001)                 2.735321911346108E+05,      /* I = 42 */
(PID.TID 0000.0001)                 2.810065951609633E+05,      /* I = 43 */
(PID.TID 0000.0001)                 2.872689479506990E+05,      /* I = 44 */
(PID.TID 0000.0001)                 2.923599955312932E+05,      /* I = 45 */
(PID.TID 0000.0001)                 2.963038832565530E+05,      /* I = 46 */
(PID.TID 0000.0001)                 2.991142470004740E+05,      /* I = 47 */
(PID.TID 0000.0001)                 3.007982711627968E+05,      /* I = 48 */
(PID.TID 0000.0001)                 3.013593857228136E+05,      /* I = 49 */
(PID.TID 0000.0001)                 3.007982711627968E+05,      /* I = 50 */
(PID.TID 0000.0001)                 2.991142470004740E+05,      /* I = 51 */
(PID.TID 0000.0001)                 2.963038832565530E+05,      /* I = 52 */
(PID.TID 0000.0001)                 2.923599955312932E+05,      /* I = 53 */
(PID.TID 0000.0001)                 2.872689479506990E+05,      /* I = 54 */
(PID.TID 0000.0001)                 2.810065951609633E+05,      /* I = 55 */
(PID.TID 0000.0001)                 2.735321911346108E+05,      /* I = 56 */
(PID.TID 0000.0001)                 2.647791839299727E+05,      /* I = 57 */
(PID.TID 0000.0001)                 2.546408290696998E+05,      /* I = 58 */
(PID.TID 0000.0001)                 2.429464709770498E+05,      /* I = 59 */
(PID.TID 0000.0001)                 2.294195678257306E+05,      /* I = 60 */
(PID.TID 0000.0001)                 2.135964483342134E+05,      /* I = 61 */
(PID.TID 0000.0001)                 1.946503699269892E+05,      /* I = 62 */
(PID.TID 0000.0001)                 1.709574999026266E+05,      /* I = 63 */
(PID.TID 0000.0001)                 1.391343389937106E+05,      /* I = 64 */
(PID.TID 0000.0001)                 1.114203141013064E+05,      /* I = 65 */
(PID.TID 0000.0001)                 1.391343389937106E+05,      /* I = 66 */
(PID.TID 0000.0001)                 1.709574999026266E+05,      /* I = 67 */
(PID.TID 0000.0001)                 1.946503699269892E+05,      /* I = 68 */
(PID.TID 0000.0001)                 2.135964483342134E+05,      /* I = 69 */
(PID.TID 0000.0001)                 2.294195678257306E+05,      /* I = 70 */
(PID.TID 0000.0001)                 2.429464709770498E+05,      /* I = 71 */
(PID.TID 0000.0001)                 2.546408290696998E+05,      /* I = 72 */
(PID.TID 0000.0001)                 2.647791839299727E+05,      /* I = 73 */
(PID.TID 0000.0001)                 2.735321911346108E+05,      /* I = 74 */
(PID.TID 0000.0001)                 2.810065951609633E+05,      /* I = 75 */
(PID.TID 0000.0001)                 2.872689479506990E+05,      /* I = 76 */
(PID.TID 0000.0001)                 2.923599955312932E+05,      /* I = 77 */
(PID.TID 0000.0001)                 2.963038832565530E+05,      /* I = 78 */
(PID.TID 0000.0001)                 2.991142470004740E+05,      /* I = 79 */
(PID.TID 0000.0001)                 3.007982711627968E+05,      /* I = 80 */
(PID.TID 0000.0001)                 3.013593857228136E+05,      /* I = 81 */
(PID.TID 0000.0001)                 3.007982711627968E+05,      /* I = 82 */
(PID.TID 0000.0001)                 2.991142470004740E+05,      /* I = 83 */
(PID.TID 0000.0001)                 2.963038832565530E+05,      /* I = 84 */
(PID.TID 0000.0001)                 2.923599955312932E+05,      /* I = 85 */
(PID.TID 0000.0001)                 2.872689479506990E+05,      /* I = 86 */
(PID.TID 0000.0001)                 2.810065951609633E+05,      /* I = 87 */
(PID.TID 0000.0001)                 2.735321911346108E+05,      /* I = 88 */
(PID.TID 0000.0001)                 2.647791839299727E+05,      /* I = 89 */
(PID.TID 0000.0001)                 2.546408290696998E+05,      /* I = 90 */
(PID.TID 0000.0001)                 2.429464709770498E+05,      /* I = 91 */
(PID.TID 0000.0001)                 2.294195678257306E+05,      /* I = 92 */
(PID.TID 0000.0001)                 2.135964483342134E+05,      /* I = 93 */
(PID.TID 0000.0001)                 1.946503699269892E+05,      /* I = 94 */
(PID.TID 0000.0001)                 1.709574999026266E+05,      /* I = 95 */
(PID.TID 0000.0001)                 1.391343389937106E+05,      /* I = 96 */
(PID.TID 0000.0001)                 1.114203141013064E+05,      /* I = 97 */
(PID.TID 0000.0001)                 1.391343389937106E+05,      /* I = 98 */
(PID.TID 0000.0001)                 1.709574999026266E+05,      /* I = 99 */
(PID.TID 0000.0001)                 1.946503699269892E+05,      /* I =100 */
(PID.TID 0000.0001)                 2.135964483342134E+05,      /* I =101 */
(PID.TID 0000.0001)                 2.294195678257306E+05,      /* I =102 */
(PID.TID 0000.0001)                 2.429464709770498E+05,      /* I =103 */
(PID.TID 0000.0001)                 2.546408290696998E+05,      /* I =104 */
(PID.TID 0000.0001)                 2.647791839299727E+05,      /* I =105 */
(PID.TID 0000.0001)                 2.735321911346108E+05,      /* I =106 */
(PID.TID 0000.0001)                 2.810065951609633E+05,      /* I =107 */
(PID.TID 0000.0001)                 2.872689479506990E+05,      /* I =108 */
(PID.TID 0000.0001)                 2.923599955312932E+05,      /* I =109 */
(PID.TID 0000.0001)                 2.963038832565530E+05,      /* I =110 */
(PID.TID 0000.0001)                 2.991142470004740E+05,      /* I =111 */
(PID.TID 0000.0001)                 3.007982711627968E+05,      /* I =112 */
(PID.TID 0000.0001)                 3.013593857228136E+05,      /* I =113 */
(PID.TID 0000.0001)                 3.007982711627968E+05,      /* I =114 */
(PID.TID 0000.0001)                 2.991142470004740E+05,      /* I =115 */
(PID.TID 0000.0001)                 2.963038832565530E+05,      /* I =116 */
(PID.TID 0000.0001)                 2.923599955312932E+05,      /* I =117 */
(PID.TID 0000.0001)                 2.872689479506990E+05,      /* I =118 */
(PID.TID 0000.0001)                 2.810065951609633E+05,      /* I =119 */
(PID.TID 0000.0001)                 2.735321911346108E+05,      /* I =120 */
(PID.TID 0000.0001)                 2.647791839299727E+05,      /* I =121 */
(PID.TID 0000.0001)                 2.546408290696998E+05,      /* I =122 */
(PID.TID 0000.0001)                 2.429464709770498E+05,      /* I =123 */
(PID.TID 0000.0001)                 2.294195678257306E+05,      /* I =124 */
(PID.TID 0000.0001)                 2.135964483342134E+05,      /* I =125 */
(PID.TID 0000.0001)                 1.946503699269892E+05,      /* I =126 */
(PID.TID 0000.0001)                 1.709574999026266E+05,      /* I =127 */
(PID.TID 0000.0001)                 1.391343389937106E+05,      /* I =128 */
(PID.TID 0000.0001)                 1.114203141013064E+05,      /* I =129 */
(PID.TID 0000.0001)                 1.391343389937106E+05,      /* I =130 */
(PID.TID 0000.0001)                 1.709574999026266E+05,      /* I =131 */
(PID.TID 0000.0001)                 1.946503699269892E+05,      /* I =132 */
(PID.TID 0000.0001)                 2.135964483342134E+05,      /* I =133 */
(PID.TID 0000.0001)                 2.294195678257306E+05,      /* I =134 */
(PID.TID 0000.0001)                 2.429464709770498E+05,      /* I =135 */
(PID.TID 0000.0001)                 2.546408290696998E+05,      /* I =136 */
(PID.TID 0000.0001)                 2.647791839299727E+05,      /* I =137 */
(PID.TID 0000.0001)                 2.735321911346108E+05,      /* I =138 */
(PID.TID 0000.0001)                 2.810065951609633E+05,      /* I =139 */
(PID.TID 0000.0001)                 2.872689479506990E+05,      /* I =140 */
(PID.TID 0000.0001)                 2.923599955312932E+05,      /* I =141 */
(PID.TID 0000.0001)                 2.963038832565530E+05,      /* I =142 */
(PID.TID 0000.0001)                 2.991142470004740E+05,      /* I =143 */
(PID.TID 0000.0001)                 3.007982711627968E+05,      /* I =144 */
(PID.TID 0000.0001)                 3.013593857228136E+05,      /* I =145 */
(PID.TID 0000.0001)                 3.007982711627968E+05,      /* I =146 */
(PID.TID 0000.0001)                 2.991142470004740E+05,      /* I =147 */
(PID.TID 0000.0001)                 2.963038832565530E+05,      /* I =148 */
(PID.TID 0000.0001)                 2.923599955312932E+05,      /* I =149 */
(PID.TID 0000.0001)                 2.872689479506990E+05,      /* I =150 */
(PID.TID 0000.0001)                 2.810065951609633E+05,      /* I =151 */
(PID.TID 0000.0001)                 2.735321911346108E+05,      /* I =152 */
(PID.TID 0000.0001)                 2.647791839299727E+05,      /* I =153 */
(PID.TID 0000.0001)                 2.546408290696998E+05,      /* I =154 */
(PID.TID 0000.0001)                 2.429464709770498E+05,      /* I =155 */
(PID.TID 0000.0001)                 2.294195678257306E+05,      /* I =156 */
(PID.TID 0000.0001)                 2.135964483342134E+05,      /* I =157 */
(PID.TID 0000.0001)                 1.946503699269892E+05,      /* I =158 */
(PID.TID 0000.0001)                 1.709574999026266E+05,      /* I =159 */
(PID.TID 0000.0001)                 1.391343389937106E+05,      /* I =160 */
(PID.TID 0000.0001)                 1.114203141013064E+05,      /* I =161 */
(PID.TID 0000.0001)                 1.391343389937106E+05,      /* I =162 */
(PID.TID 0000.0001)                 1.709574999026266E+05,      /* I =163 */
(PID.TID 0000.0001)                 1.946503699269892E+05,      /* I =164 */
(PID.TID 0000.0001)                 2.135964483342134E+05,      /* I =165 */
(PID.TID 0000.0001)                 2.294195678257306E+05,      /* I =166 */
(PID.TID 0000.0001)                 2.429464709770498E+05,      /* I =167 */
(PID.TID 0000.0001)                 2.546408290696998E+05,      /* I =168 */
(PID.TID 0000.0001)                 2.647791839299727E+05,      /* I =169 */
(PID.TID 0000.0001)                 2.735321911346108E+05,      /* I =170 */
(PID.TID 0000.0001)                 2.810065951609633E+05,      /* I =171 */
(PID.TID 0000.0001)                 2.872689479506990E+05,      /* I =172 */
(PID.TID 0000.0001)                 2.923599955312932E+05,      /* I =173 */
(PID.TID 0000.0001)                 2.963038832565530E+05,      /* I =174 */
(PID.TID 0000.0001)                 2.991142470004740E+05,      /* I =175 */
(PID.TID 0000.0001)                 3.007982711627968E+05,      /* I =176 */
(PID.TID 0000.0001)                 3.013593857228136E+05,      /* I =177 */
(PID.TID 0000.0001)                 3.007982711627968E+05,      /* I =178 */
(PID.TID 0000.0001)                 2.991142470004740E+05,      /* I =179 */
(PID.TID 0000.0001)                 2.963038832565530E+05,      /* I =180 */
(PID.TID 0000.0001)                 2.923599955312932E+05,      /* I =181 */
(PID.TID 0000.0001)                 2.872689479506990E+05,      /* I =182 */
(PID.TID 0000.0001)                 2.810065951609633E+05,      /* I =183 */
(PID.TID 0000.0001)                 2.735321911346108E+05,      /* I =184 */
(PID.TID 0000.0001)                 2.647791839299727E+05,      /* I =185 */
(PID.TID 0000.0001)                 2.546408290696998E+05,      /* I =186 */
(PID.TID 0000.0001)                 2.429464709770498E+05,      /* I =187 */
(PID.TID 0000.0001)                 2.294195678257306E+05,      /* I =188 */
(PID.TID 0000.0001)                 2.135964483342134E+05,      /* I =189 */
(PID.TID 0000.0001)                 1.946503699269892E+05,      /* I =190 */
(PID.TID 0000.0001)                 1.709574999026266E+05,      /* I =191 */
(PID.TID 0000.0001)                 1.391343389937106E+05       /* I =192 */
(PID.TID 0000.0001)     ;
(PID.TID 0000.0001) dxC =  /* dxC(1,:,1,:) ( units: m ) */
(PID.TID 0000.0001)                 1.114203141013064E+05,      /* J =  1 */
(PID.TID 0000.0001)                 1.549545757850771E+05,      /* J =  2 */
(PID.TID 0000.0001)                 1.829777599966776E+05,      /* J =  3 */
(PID.TID 0000.0001)                 2.042717761866506E+05,      /* J =  4 */
(PID.TID 0000.0001)                 2.216367828252819E+05,      /* J =  5 */
(PID.TID 0000.0001)                 2.363029564123586E+05,      /* J =  6 */
(PID.TID 0000.0001)                 2.489113743322025E+05,      /* J =  7 */
(PID.TID 0000.0001)                 2.598293319150326E+05,      /* J =  8 */
(PID.TID 0000.0001)                 2.692787333338535E+05,      /* J =  9 */
(PID.TID 0000.0001)                 2.773972106720365E+05,      /* J = 10 */
(PID.TID 0000.0001)                 2.842706922224557E+05,      /* J = 11 */
(PID.TID 0000.0001)                 2.899523122489403E+05,      /* J = 12 */
(PID.TID 0000.0001)                 2.944741346384699E+05,      /* J = 13 */
(PID.TID 0000.0001)                 2.978547649292580E+05,      /* J = 14 */
(PID.TID 0000.0001)                 3.001044073506459E+05,      /* J = 15 */
(PID.TID 0000.0001)     2 @  3.012281885409289E+05,             /* J = 16: 17 */
(PID.TID 0000.0001)                 3.001044073506459E+05,      /* J = 18 */
(PID.TID 0000.0001)                 2.978547649292580E+05,      /* J = 19 */
(PID.TID 0000.0001)                 2.944741346384699E+05,      /* J = 20 */
(PID.TID 0000.0001)                 2.899523122489403E+05,      /* J = 21 */
(PID.TID 0000.0001)                 2.842706922224557E+05,      /* J = 22 */
(PID.TID 0000.0001)                 2.773972106720365E+05,      /* J = 23 */
(PID.TID 0000.0001)                 2.692787333338535E+05,      /* J = 24 */
(PID.TID 0000.0001)                 2.598293319150326E+05,      /* J = 25 */
(PID.TID 0000.0001)                 2.489113743322025E+05,      /* J = 26 */
(PID.TID 0000.0001)                 2.363029564123586E+05,      /* J = 27 */
(PID.TID 0000.0001)                 2.216367828252819E+05,      /* J = 28 */
(PID.TID 0000.0001)                 2.042717761866506E+05,      /* J = 29 */
(PID.TID 0000.0001)                 1.829777599966776E+05,      /* J = 30 */
(PID.TID 0000.0001)                 1.549545757850771E+05,      /* J = 31 */
(PID.TID 0000.0001)                 1.114203141013064E+05       /* J = 32 */
(PID.TID 0000.0001)     ;
(PID.TID 0000.0001) dyC =  /* dyC(:,1,:,1) ( units: m ) */
(PID.TID 0000.0001)                 1.114203141013064E+05,      /* I =  1 */
(PID.TID 0000.0001)                 1.549545757850771E+05,      /* I =  2 */
(PID.TID 0000.0001)                 1.829777599966776E+05,      /* I =  3 */
(PID.TID 0000.0001)                 2.042717761866506E+05,      /* I =  4 */
(PID.TID 0000.0001)                 2.216367828252819E+05,      /* I =  5 */
(PID.TID 0000.0001)                 2.363029564123586E+05,      /* I =  6 */
(PID.TID 0000.0001)                 2.489113743322025E+05,      /* I =  7 */
(PID.TID 0000.0001)                 2.598293319150326E+05,      /* I =  8 */
(PID.TID 0000.0001)                 2.692787333338535E+05,      /* I =  9 */
(PID.TID 0000.0001)                 2.773972106720365E+05,      /* I = 10 */
(PID.TID 0000.0001)                 2.842706922224557E+05,      /* I = 11 */
(PID.TID 0000.0001)                 2.899523122489403E+05,      /* I = 12 */
(PID.TID 0000.0001)                 2.944741346384699E+05,      /* I = 13 */
(PID.TID 0000.0001)                 2.978547649292580E+05,      /* I = 14 */
(PID.TID 0000.0001)                 3.001044073506459E+05,      /* I = 15 */
(PID.TID 0000.0001)     2 @  3.012281885409289E+05,             /* I = 16: 17 */
(PID.TID 0000.0001)                 3.001044073506459E+05,      /* I = 18 */
(PID.TID 0000.0001)                 2.978547649292580E+05,      /* I = 19 */
(PID.TID 0000.0001)                 2.944741346384699E+05,      /* I = 20 */
(PID.TID 0000.0001)                 2.899523122489403E+05,      /* I = 21 */
(PID.TID 0000.0001)                 2.842706922224557E+05,      /* I = 22 */
(PID.TID 0000.0001)                 2.773972106720365E+05,      /* I = 23 */
(PID.TID 0000.0001)                 2.692787333338535E+05,      /* I = 24 */
(PID.TID 0000.0001)                 2.598293319150326E+05,      /* I = 25 */
(PID.TID 0000.0001)                 2.489113743322025E+05,      /* I = 26 */
(PID.TID 0000.0001)                 2.363029564123586E+05,      /* I = 27 */
(PID.TID 0000.0001)                 2.216367828252819E+05,      /* I = 28 */
(PID.TID 0000.0001)                 2.042717761866506E+05,      /* I = 29 */
(PID.TID 0000.0001)                 1.829777599966776E+05,      /* I = 30 */
(PID.TID 0000.0001)                 1.549545757850771E+05,      /* I = 31 */
(PID.TID 0000.0001)     2 @  1.114203141013064E+05,             /* I = 32: 33 */
(PID.TID 0000.0001)                 1.549545757850771E+05,      /* I = 34 */
(PID.TID 0000.0001)                 1.829777599966776E+05,      /* I = 35 */
(PID.TID 0000.0001)                 2.042717761866506E+05,      /* I = 36 */
(PID.TID 0000.0001)                 2.216367828252819E+05,      /* I = 37 */
(PID.TID 0000.0001)                 2.363029564123586E+05,      /* I = 38 */
(PID.TID 0000.0001)                 2.489113743322025E+05,      /* I = 39 */
(PID.TID 0000.0001)                 2.598293319150326E+05,      /* I = 40 */
(PID.TID 0000.0001)                 2.692787333338535E+05,      /* I = 41 */
(PID.TID 0000.0001)                 2.773972106720365E+05,      /* I = 42 */
(PID.TID 0000.0001)                 2.842706922224557E+05,      /* I = 43 */
(PID.TID 0000.0001)                 2.899523122489403E+05,      /* I = 44 */
(PID.TID 0000.0001)                 2.944741346384699E+05,      /* I = 45 */
(PID.TID 0000.0001)                 2.978547649292580E+05,      /* I = 46 */
(PID.TID 0000.0001)                 3.001044073506459E+05,      /* I = 47 */
(PID.TID 0000.0001)     2 @  3.012281885409289E+05,             /* I = 48: 49 */
(PID.TID 0000.0001)                 3.001044073506459E+05,      /* I = 50 */
(PID.TID 0000.0001)                 2.978547649292580E+05,      /* I = 51 */
(PID.TID 0000.0001)                 2.944741346384699E+05,      /* I = 52 */
(PID.TID 0000.0001)                 2.899523122489403E+05,      /* I = 53 */
(PID.TID 0000.0001)                 2.842706922224557E+05,      /* I = 54 */
(PID.TID 0000.0001)                 2.773972106720365E+05,      /* I = 55 */
(PID.TID 0000.0001)                 2.692787333338535E+05,      /* I = 56 */
(PID.TID 0000.0001)                 2.598293319150326E+05,      /* I = 57 */
(PID.TID 0000.0001)                 2.489113743322025E+05,      /* I = 58 */
(PID.TID 0000.0001)                 2.363029564123586E+05,      /* I = 59 */
(PID.TID 0000.0001)                 2.216367828252819E+05,      /* I = 60 */
(PID.TID 0000.0001)                 2.042717761866506E+05,      /* I = 61 */
(PID.TID 0000.0001)                 1.829777599966776E+05,      /* I = 62 */
(PID.TID 0000.0001)                 1.549545757850771E+05,      /* I = 63 */
(PID.TID 0000.0001)     2 @  1.114203141013064E+05,             /* I = 64: 65 */
(PID.TID 0000.0001)                 1.549545757850771E+05,      /* I = 66 */
(PID.TID 0000.0001)                 1.829777599966776E+05,      /* I = 67 */
(PID.TID 0000.0001)                 2.042717761866506E+05,      /* I = 68 */
(PID.TID 0000.0001)                 2.216367828252819E+05,      /* I = 69 */
(PID.TID 0000.0001)                 2.363029564123586E+05,      /* I = 70 */
(PID.TID 0000.0001)                 2.489113743322025E+05,      /* I = 71 */
(PID.TID 0000.0001)                 2.598293319150326E+05,      /* I = 72 */
(PID.TID 0000.0001)                 2.692787333338535E+05,      /* I = 73 */
(PID.TID 0000.0001)                 2.773972106720365E+05,      /* I = 74 */
(PID.TID 0000.0001)                 2.842706922224557E+05,      /* I = 75 */
(PID.TID 0000.0001)                 2.899523122489403E+05,      /* I = 76 */
(PID.TID 0000.0001)                 2.944741346384699E+05,      /* I = 77 */
(PID.TID 0000.0001)                 2.978547649292580E+05,      /* I = 78 */
(PID.TID 0000.0001)                 3.001044073506459E+05,      /* I = 79 */
(PID.TID 0000.0001)     2 @  3.012281885409289E+05,             /* I = 80: 81 */
(PID.TID 0000.0001)                 3.001044073506459E+05,      /* I = 82 */
(PID.TID 0000.0001)                 2.978547649292580E+05,      /* I = 83 */
(PID.TID 0000.0001)                 2.944741346384699E+05,      /* I = 84 */
(PID.TID 0000.0001)                 2.899523122489403E+05,      /* I = 85 */
(PID.TID 0000.0001)                 2.842706922224557E+05,      /* I = 86 */
(PID.TID 0000.0001)                 2.773972106720365E+05,      /* I = 87 */
(PID.TID 0000.0001)                 2.692787333338535E+05,      /* I = 88 */
(PID.TID 0000.0001)                 2.598293319150326E+05,      /* I = 89 */
(PID.TID 0000.0001)                 2.489113743322025E+05,      /* I = 90 */
(PID.TID 0000.0001)                 2.363029564123586E+05,      /* I = 91 */
(PID.TID 0000.0001)                 2.216367828252819E+05,      /* I = 92 */
(PID.TID 0000.0001)                 2.042717761866506E+05,      /* I = 93 */
(PID.TID 0000.0001)                 1.829777599966776E+05,      /* I = 94 */
(PID.TID 0000.0001)                 1.549545757850771E+05,      /* I = 95 */
(PID.TID 0000.0001)     2 @  1.114203141013064E+05,             /* I = 96: 97 */
(PID.TID 0000.0001)                 1.549545757850771E+05,      /* I = 98 */
(PID.TID 0000.0001)                 1.829777599966776E+05,      /* I = 99 */
(PID.TID 0000.0001)                 2.042717761866506E+05,      /* I =100 */
(PID.TID 0000.0001)                 2.216367828252819E+05,      /* I =101 */
(PID.TID 0000.0001)                 2.363029564123586E+05,      /* I =102 */
(PID.TID 0000.0001)                 2.489113743322025E+05,      /* I =103 */
(PID.TID 0000.0001)                 2.598293319150326E+05,      /* I =104 */
(PID.TID 0000.0001)                 2.692787333338535E+05,      /* I =105 */
(PID.TID 0000.0001)                 2.773972106720365E+05,      /* I =106 */
(PID.TID 0000.0001)                 2.842706922224557E+05,      /* I =107 */
(PID.TID 0000.0001)                 2.899523122489403E+05,      /* I =108 */
(PID.TID 0000.0001)                 2.944741346384699E+05,      /* I =109 */
(PID.TID 0000.0001)                 2.978547649292580E+05,      /* I =110 */
(PID.TID 0000.0001)                 3.001044073506459E+05,      /* I =111 */
(PID.TID 0000.0001)     2 @  3.012281885409289E+05,             /* I =112:113 */
(PID.TID 0000.0001)                 3.001044073506459E+05,      /* I =114 */
(PID.TID 0000.0001)                 2.978547649292580E+05,      /* I =115 */
(PID.TID 0000.0001)                 2.944741346384699E+05,      /* I =116 */
(PID.TID 0000.0001)                 2.899523122489403E+05,      /* I =117 */
(PID.TID 0000.0001)                 2.842706922224557E+05,      /* I =118 */
(PID.TID 0000.0001)                 2.773972106720365E+05,      /* I =119 */
(PID.TID 0000.0001)                 2.692787333338535E+05,      /* I =120 */
(PID.TID 0000.0001)                 2.598293319150326E+05,      /* I =121 */
(PID.TID 0000.0001)                 2.489113743322025E+05,      /* I =122 */
(PID.TID 0000.0001)                 2.363029564123586E+05,      /* I =123 */
(PID.TID 0000.0001)                 2.216367828252819E+05,      /* I =124 */
(PID.TID 0000.0001)                 2.042717761866506E+05,      /* I =125 */
(PID.TID 0000.0001)                 1.829777599966776E+05,      /* I =126 */
(PID.TID 0000.0001)                 1.549545757850771E+05,      /* I =127 */
(PID.TID 0000.0001)     2 @  1.114203141013064E+05,             /* I =128:129 */
(PID.TID 0000.0001)                 1.549545757850771E+05,      /* I =130 */
(PID.TID 0000.0001)                 1.829777599966776E+05,      /* I =131 */
(PID.TID 0000.0001)                 2.042717761866506E+05,      /* I =132 */
(PID.TID 0000.0001)                 2.216367828252819E+05,      /* I =133 */
(PID.TID 0000.0001)                 2.363029564123586E+05,      /* I =134 */
(PID.TID 0000.0001)                 2.489113743322025E+05,      /* I =135 */
(PID.TID 0000.0001)                 2.598293319150326E+05,      /* I =136 */
(PID.TID 0000.0001)                 2.692787333338535E+05,      /* I =137 */
(PID.TID 0000.0001)                 2.773972106720365E+05,      /* I =138 */
(PID.TID 0000.0001)                 2.842706922224557E+05,      /* I =139 */
(PID.TID 0000.0001)                 2.899523122489403E+05,      /* I =140 */
(PID.TID 0000.0001)                 2.944741346384699E+05,      /* I =141 */
(PID.TID 0000.0001)                 2.978547649292580E+05,      /* I =142 */
(PID.TID 0000.0001)                 3.001044073506459E+05,      /* I =143 */
(PID.TID 0000.0001)     2 @  3.012281885409289E+05,             /* I =144:145 */
(PID.TID 0000.0001)                 3.001044073506459E+05,      /* I =146 */
(PID.TID 0000.0001)                 2.978547649292580E+05,      /* I =147 */
(PID.TID 0000.0001)                 2.944741346384699E+05,      /* I =148 */
(PID.TID 0000.0001)                 2.899523122489403E+05,      /* I =149 */
(PID.TID 0000.0001)                 2.842706922224557E+05,      /* I =150 */
(PID.TID 0000.0001)                 2.773972106720365E+05,      /* I =151 */
(PID.TID 0000.0001)                 2.692787333338535E+05,      /* I =152 */
(PID.TID 0000.0001)                 2.598293319150326E+05,      /* I =153 */
(PID.TID 0000.0001)                 2.489113743322025E+05,      /* I =154 */
(PID.TID 0000.0001)                 2.363029564123586E+05,      /* I =155 */
(PID.TID 0000.0001)                 2.216367828252819E+05,      /* I =156 */
(PID.TID 0000.0001)                 2.042717761866506E+05,      /* I =157 */
(PID.TID 0000.0001)                 1.829777599966776E+05,      /* I =158 */
(PID.TID 0000.0001)                 1.549545757850771E+05,      /* I =159 */
(PID.TID 0000.0001)     2 @  1.114203141013064E+05,             /* I =160:161 */
(PID.TID 0000.0001)                 1.549545757850771E+05,      /* I =162 */
(PID.TID 0000.0001)                 1.829777599966776E+05,      /* I =163 */
(PID.TID 0000.0001)                 2.042717761866506E+05,      /* I =164 */
(PID.TID 0000.0001)                 2.216367828252819E+05,      /* I =165 */
(PID.TID 0000.0001)                 2.363029564123586E+05,      /* I =166 */
(PID.TID 0000.0001)                 2.489113743322025E+05,      /* I =167 */
(PID.TID 0000.0001)                 2.598293319150326E+05,      /* I =168 */
(PID.TID 0000.0001)                 2.692787333338535E+05,      /* I =169 */
(PID.TID 0000.0001)                 2.773972106720365E+05,      /* I =170 */
(PID.TID 0000.0001)                 2.842706922224557E+05,      /* I =171 */
(PID.TID 0000.0001)                 2.899523122489403E+05,      /* I =172 */
(PID.TID 0000.0001)                 2.944741346384699E+05,      /* I =173 */
(PID.TID 0000.0001)                 2.978547649292580E+05,      /* I =174 */
(PID.TID 0000.0001)                 3.001044073506459E+05,      /* I =175 */
(PID.TID 0000.0001)     2 @  3.012281885409289E+05,             /* I =176:177 */
(PID.TID 0000.0001)                 3.001044073506459E+05,      /* I =178 */
(PID.TID 0000.0001)                 2.978547649292580E+05,      /* I =179 */
(PID.TID 0000.0001)                 2.944741346384699E+05,      /* I =180 */
(PID.TID 0000.0001)                 2.899523122489403E+05,      /* I =181 */
(PID.TID 0000.0001)                 2.842706922224557E+05,      /* I =182 */
(PID.TID 0000.0001)                 2.773972106720365E+05,      /* I =183 */
(PID.TID 0000.0001)                 2.692787333338535E+05,      /* I =184 */
(PID.TID 0000.0001)                 2.598293319150326E+05,      /* I =185 */
(PID.TID 0000.0001)                 2.489113743322025E+05,      /* I =186 */
(PID.TID 0000.0001)                 2.363029564123586E+05,      /* I =187 */
(PID.TID 0000.0001)                 2.216367828252819E+05,      /* I =188 */
(PID.TID 0000.0001)                 2.042717761866506E+05,      /* I =189 */
(PID.TID 0000.0001)                 1.829777599966776E+05,      /* I =190 */
(PID.TID 0000.0001)                 1.549545757850771E+05,      /* I =191 */
(PID.TID 0000.0001)                 1.114203141013064E+05       /* I =192 */
(PID.TID 0000.0001)     ;
(PID.TID 0000.0001) dyC =  /* dyC(1,:,1,:) ( units: m ) */
(PID.TID 0000.0001)                 1.114203141013064E+05,      /* J =  1 */
(PID.TID 0000.0001)                 1.391343389937106E+05,      /* J =  2 */
(PID.TID 0000.0001)                 1.709574999026266E+05,      /* J =  3 */
(PID.TID 0000.0001)                 1.946503699269892E+05,      /* J =  4 */
(PID.TID 0000.0001)                 2.135964483342134E+05,      /* J =  5 */
(PID.TID 0000.0001)                 2.294195678257306E+05,      /* J =  6 */
(PID.TID 0000.0001)                 2.429464709770498E+05,      /* J =  7 */
(PID.TID 0000.0001)                 2.546408290696998E+05,      /* J =  8 */
(PID.TID 0000.0001)                 2.647791839299727E+05,      /* J =  9 */
(PID.TID 0000.0001)                 2.735321911346108E+05,      /* J = 10 */
(PID.TID 0000.0001)                 2.810065951609633E+05,      /* J = 11 */
(PID.TID 0000.0001)                 2.872689479506990E+05,      /* J = 12 */
(PID.TID 0000.0001)                 2.923599955312932E+05,      /* J = 13 */
(PID.TID 0000.0001)                 2.963038832565530E+05,      /* J = 14 */
(PID.TID 0000.0001)                 2.991142470004740E+05,      /* J = 15 */
(PID.TID 0000.0001)                 3.007982711627968E+05,      /* J = 16 */
(PID.TID 0000.0001)                 3.013593857228136E+05,      /* J = 17 */
(PID.TID 0000.0001)                 3.007982711627968E+05,      /* J = 18 */
(PID.TID 0000.0001)                 2.991142470004740E+05,      /* J = 19 */
(PID.TID 0000.0001)                 2.963038832565530E+05,      /* J = 20 */
(PID.TID 0000.0001)                 2.923599955312932E+05,      /* J = 21 */
(PID.TID 0000.0001)                 2.872689479506990E+05,      /* J = 22 */
(PID.TID 0000.0001)                 2.810065951609633E+05,      /* J = 23 */
(PID.TID 0000.0001)                 2.735321911346108E+05,      /* J = 24 */
(PID.TID 0000.0001)                 2.647791839299727E+05,      /* J = 25 */
(PID.TID 0000.0001)                 2.546408290696998E+05,      /* J = 26 */
(PID.TID 0000.0001)                 2.429464709770498E+05,      /* J = 27 */
(PID.TID 0000.0001)                 2.294195678257306E+05,      /* J = 28 */
(PID.TID 0000.0001)                 2.135964483342134E+05,      /* J = 29 */
(PID.TID 0000.0001)                 1.946503699269892E+05,      /* J = 30 */
(PID.TID 0000.0001)                 1.709574999026266E+05,      /* J = 31 */
(PID.TID 0000.0001)                 1.391343389937106E+05       /* J = 32 */
(PID.TID 0000.0001)     ;
(PID.TID 0000.0001) dxV =  /* dxV(:,1,:,1) ( units: m ) */
(PID.TID 0000.0001)                 8.015229982413632E+04,      /* I =  1 */
(PID.TID 0000.0001)                 1.333130744933864E+05,      /* I =  2 */
(PID.TID 0000.0001)                 1.691744868129062E+05,      /* I =  3 */
(PID.TID 0000.0001)                 1.937548202849060E+05,      /* I =  4 */
(PID.TID 0000.0001)                 2.130490056267208E+05,      /* I =  5 */
(PID.TID 0000.0001)                 2.290479919481738E+05,      /* I =  6 */
(PID.TID 0000.0001)                 2.426774358027003E+05,      /* I =  7 */
(PID.TID 0000.0001)                 2.544372984215561E+05,      /* I =  8 */
(PID.TID 0000.0001)                 2.646201463834826E+05,      /* I =  9 */
(PID.TID 0000.0001)                 2.734046499619031E+05,      /* I = 10 */
(PID.TID 0000.0001)                 2.809019351693761E+05,      /* I = 11 */
(PID.TID 0000.0001)                 2.871811105274442E+05,      /* I = 12 */
(PID.TID 0000.0001)                 2.922844849381675E+05,      /* I = 13 */
(PID.TID 0000.0001)                 2.962371870847826E+05,      /* I = 14 */
(PID.TID 0000.0001)                 2.990534755671296E+05,      /* I = 15 */
(PID.TID 0000.0001)                 3.007409169495504E+05,      /* I = 16 */
(PID.TID 0000.0001)                 3.013031486919771E+05,      /* I = 17 */
(PID.TID 0000.0001)                 3.007409169495504E+05,      /* I = 18 */
(PID.TID 0000.0001)                 2.990534755671296E+05,      /* I = 19 */
(PID.TID 0000.0001)                 2.962371870847826E+05,      /* I = 20 */
(PID.TID 0000.0001)                 2.922844849381675E+05,      /* I = 21 */
(PID.TID 0000.0001)                 2.871811105274442E+05,      /* I = 22 */
(PID.TID 0000.0001)                 2.809019351693761E+05,      /* I = 23 */
(PID.TID 0000.0001)                 2.734046499619031E+05,      /* I = 24 */
(PID.TID 0000.0001)                 2.646201463834826E+05,      /* I = 25 */
(PID.TID 0000.0001)                 2.544372984215561E+05,      /* I = 26 */
(PID.TID 0000.0001)                 2.426774358027003E+05,      /* I = 27 */
(PID.TID 0000.0001)                 2.290479919481738E+05,      /* I = 28 */
(PID.TID 0000.0001)                 2.130490056267208E+05,      /* I = 29 */
(PID.TID 0000.0001)                 1.937548202849060E+05,      /* I = 30 */
(PID.TID 0000.0001)                 1.691744868129062E+05,      /* I = 31 */
(PID.TID 0000.0001)                 1.333130744933864E+05,      /* I = 32 */
(PID.TID 0000.0001)                 8.015229982413632E+04,      /* I = 33 */
(PID.TID 0000.0001)                 1.333130744933864E+05,      /* I = 34 */
(PID.TID 0000.0001)                 1.691744868129062E+05,      /* I = 35 */
(PID.TID 0000.0001)                 1.937548202849060E+05,      /* I = 36 */
(PID.TID 0000.0001)                 2.130490056267208E+05,      /* I = 37 */
(PID.TID 0000.0001)                 2.290479919481738E+05,      /* I = 38 */
(PID.TID 0000.0001)                 2.426774358027003E+05,      /* I = 39 */
(PID.TID 0000.0001)                 2.544372984215561E+05,      /* I = 40 */
(PID.TID 0000.0001)                 2.646201463834826E+05,      /* I = 41 */
(PID.TID 0000.0001)                 2.734046499619031E+05,      /* I = 42 */
(PID.TID 0000.0001)                 2.809019351693761E+05,      /* I = 43 */
(PID.TID 0000.0001)                 2.871811105274442E+05,      /* I = 44 */
(PID.TID 0000.0001)                 2.922844849381675E+05,      /* I = 45 */
(PID.TID 0000.0001)                 2.962371870847826E+05,      /* I = 46 */
(PID.TID 0000.0001)                 2.990534755671296E+05,      /* I = 47 */
(PID.TID 0000.0001)                 3.007409169495504E+05,      /* I = 48 */
(PID.TID 0000.0001)                 3.013031486919771E+05,      /* I = 49 */
(PID.TID 0000.0001)                 3.007409169495504E+05,      /* I = 50 */
(PID.TID 0000.0001)                 2.990534755671296E+05,      /* I = 51 */
(PID.TID 0000.0001)                 2.962371870847826E+05,      /* I = 52 */
(PID.TID 0000.0001)                 2.922844849381675E+05,      /* I = 53 */
(PID.TID 0000.0001)                 2.871811105274442E+05,      /* I = 54 */
(PID.TID 0000.0001)                 2.809019351693761E+05,      /* I = 55 */
(PID.TID 0000.0001)                 2.734046499619031E+05,      /* I = 56 */
(PID.TID 0000.0001)                 2.646201463834826E+05,      /* I = 57 */
(PID.TID 0000.0001)                 2.544372984215561E+05,      /* I = 58 */
(PID.TID 0000.0001)                 2.426774358027003E+05,      /* I = 59 */
(PID.TID 0000.0001)                 2.290479919481738E+05,      /* I = 60 */
(PID.TID 0000.0001)                 2.130490056267208E+05,      /* I = 61 */
(PID.TID 0000.0001)                 1.937548202849060E+05,      /* I = 62 */
(PID.TID 0000.0001)                 1.691744868129062E+05,      /* I = 63 */
(PID.TID 0000.0001)                 1.333130744933864E+05,      /* I = 64 */
(PID.TID 0000.0001)                 8.015229982413632E+04,      /* I = 65 */
(PID.TID 0000.0001)                 1.333130744933864E+05,      /* I = 66 */
(PID.TID 0000.0001)                 1.691744868129062E+05,      /* I = 67 */
(PID.TID 0000.0001)                 1.937548202849060E+05,      /* I = 68 */
(PID.TID 0000.0001)                 2.130490056267208E+05,      /* I = 69 */
(PID.TID 0000.0001)                 2.290479919481738E+05,      /* I = 70 */
(PID.TID 0000.0001)                 2.426774358027003E+05,      /* I = 71 */
(PID.TID 0000.0001)                 2.544372984215561E+05,      /* I = 72 */
(PID.TID 0000.0001)                 2.646201463834826E+05,      /* I = 73 */
(PID.TID 0000.0001)                 2.734046499619031E+05,      /* I = 74 */
(PID.TID 0000.0001)                 2.809019351693761E+05,      /* I = 75 */
(PID.TID 0000.0001)                 2.871811105274442E+05,      /* I = 76 */
(PID.TID 0000.0001)                 2.922844849381675E+05,      /* I = 77 */
(PID.TID 0000.0001)                 2.962371870847826E+05,      /* I = 78 */
(PID.TID 0000.0001)                 2.990534755671296E+05,      /* I = 79 */
(PID.TID 0000.0001)                 3.007409169495504E+05,      /* I = 80 */
(PID.TID 0000.0001)                 3.013031486919771E+05,      /* I = 81 */
(PID.TID 0000.0001)                 3.007409169495504E+05,      /* I = 82 */
(PID.TID 0000.0001)                 2.990534755671296E+05,      /* I = 83 */
(PID.TID 0000.0001)                 2.962371870847826E+05,      /* I = 84 */
(PID.TID 0000.0001)                 2.922844849381675E+05,      /* I = 85 */
(PID.TID 0000.0001)                 2.871811105274442E+05,      /* I = 86 */
(PID.TID 0000.0001)                 2.809019351693761E+05,      /* I = 87 */
(PID.TID 0000.0001)                 2.734046499619031E+05,      /* I = 88 */
(PID.TID 0000.0001)                 2.646201463834826E+05,      /* I = 89 */
(PID.TID 0000.0001)                 2.544372984215561E+05,      /* I = 90 */
(PID.TID 0000.0001)                 2.426774358027003E+05,      /* I = 91 */
(PID.TID 0000.0001)                 2.290479919481738E+05,      /* I = 92 */
(PID.TID 0000.0001)                 2.130490056267208E+05,      /* I = 93 */
(PID.TID 0000.0001)                 1.937548202849060E+05,      /* I = 94 */
(PID.TID 0000.0001)                 1.691744868129062E+05,      /* I = 95 */
(PID.TID 0000.0001)                 1.333130744933864E+05,      /* I = 96 */
(PID.TID 0000.0001)                 8.015229982413632E+04,      /* I = 97 */
(PID.TID 0000.0001)                 1.333130744933864E+05,      /* I = 98 */
(PID.TID 0000.0001)                 1.691744868129062E+05,      /* I = 99 */
(PID.TID 0000.0001)                 1.937548202849060E+05,      /* I =100 */
(PID.TID 0000.0001)                 2.130490056267208E+05,      /* I =101 */
(PID.TID 0000.0001)                 2.290479919481738E+05,      /* I =102 */
(PID.TID 0000.0001)                 2.426774358027003E+05,      /* I =103 */
(PID.TID 0000.0001)                 2.544372984215561E+05,      /* I =104 */
(PID.TID 0000.0001)                 2.646201463834826E+05,      /* I =105 */
(PID.TID 0000.0001)                 2.734046499619031E+05,      /* I =106 */
(PID.TID 0000.0001)                 2.809019351693761E+05,      /* I =107 */
(PID.TID 0000.0001)                 2.871811105274442E+05,      /* I =108 */
(PID.TID 0000.0001)                 2.922844849381675E+05,      /* I =109 */
(PID.TID 0000.0001)                 2.962371870847826E+05,      /* I =110 */
(PID.TID 0000.0001)                 2.990534755671296E+05,      /* I =111 */
(PID.TID 0000.0001)                 3.007409169495504E+05,      /* I =112 */
(PID.TID 0000.0001)                 3.013031486919771E+05,      /* I =113 */
(PID.TID 0000.0001)                 3.007409169495504E+05,      /* I =114 */
(PID.TID 0000.0001)                 2.990534755671296E+05,      /* I =115 */
(PID.TID 0000.0001)                 2.962371870847826E+05,      /* I =116 */
(PID.TID 0000.0001)                 2.922844849381675E+05,      /* I =117 */
(PID.TID 0000.0001)                 2.871811105274442E+05,      /* I =118 */
(PID.TID 0000.0001)                 2.809019351693761E+05,      /* I =119 */
(PID.TID 0000.0001)                 2.734046499619031E+05,      /* I =120 */
(PID.TID 0000.0001)                 2.646201463834826E+05,      /* I =121 */
(PID.TID 0000.0001)                 2.544372984215561E+05,      /* I =122 */
(PID.TID 0000.0001)                 2.426774358027003E+05,      /* I =123 */
(PID.TID 0000.0001)                 2.290479919481738E+05,      /* I =124 */
(PID.TID 0000.0001)                 2.130490056267208E+05,      /* I =125 */
(PID.TID 0000.0001)                 1.937548202849060E+05,      /* I =126 */
(PID.TID 0000.0001)                 1.691744868129062E+05,      /* I =127 */
(PID.TID 0000.0001)                 1.333130744933864E+05,      /* I =128 */
(PID.TID 0000.0001)                 8.015229982413632E+04,      /* I =129 */
(PID.TID 0000.0001)                 1.333130744933864E+05,      /* I =130 */
(PID.TID 0000.0001)                 1.691744868129062E+05,      /* I =131 */
(PID.TID 0000.0001)                 1.937548202849060E+05,      /* I =132 */
(PID.TID 0000.0001)                 2.130490056267208E+05,      /* I =133 */
(PID.TID 0000.0001)                 2.290479919481738E+05,      /* I =134 */
(PID.TID 0000.0001)                 2.426774358027003E+05,      /* I =135 */
(PID.TID 0000.0001)                 2.544372984215561E+05,      /* I =136 */
(PID.TID 0000.0001)                 2.646201463834826E+05,      /* I =137 */
(PID.TID 0000.0001)                 2.734046499619031E+05,      /* I =138 */
(PID.TID 0000.0001)                 2.809019351693761E+05,      /* I =139 */
(PID.TID 0000.0001)                 2.871811105274442E+05,      /* I =140 */
(PID.TID 0000.0001)                 2.922844849381675E+05,      /* I =141 */
(PID.TID 0000.0001)                 2.962371870847826E+05,      /* I =142 */
(PID.TID 0000.0001)                 2.990534755671296E+05,      /* I =143 */
(PID.TID 0000.0001)                 3.007409169495504E+05,      /* I =144 */
(PID.TID 0000.0001)                 3.013031486919771E+05,      /* I =145 */
(PID.TID 0000.0001)                 3.007409169495504E+05,      /* I =146 */
(PID.TID 0000.0001)                 2.990534755671296E+05,      /* I =147 */
(PID.TID 0000.0001)                 2.962371870847826E+05,      /* I =148 */
(PID.TID 0000.0001)                 2.922844849381675E+05,      /* I =149 */
(PID.TID 0000.0001)                 2.871811105274442E+05,      /* I =150 */
(PID.TID 0000.0001)                 2.809019351693761E+05,      /* I =151 */
(PID.TID 0000.0001)                 2.734046499619031E+05,      /* I =152 */
(PID.TID 0000.0001)                 2.646201463834826E+05,      /* I =153 */
(PID.TID 0000.0001)                 2.544372984215561E+05,      /* I =154 */
(PID.TID 0000.0001)                 2.426774358027003E+05,      /* I =155 */
(PID.TID 0000.0001)                 2.290479919481738E+05,      /* I =156 */
(PID.TID 0000.0001)                 2.130490056267208E+05,      /* I =157 */
(PID.TID 0000.0001)                 1.937548202849060E+05,      /* I =158 */
(PID.TID 0000.0001)                 1.691744868129062E+05,      /* I =159 */
(PID.TID 0000.0001)                 1.333130744933864E+05,      /* I =160 */
(PID.TID 0000.0001)                 8.015229982413632E+04,      /* I =161 */
(PID.TID 0000.0001)                 1.333130744933864E+05,      /* I =162 */
(PID.TID 0000.0001)                 1.691744868129062E+05,      /* I =163 */
(PID.TID 0000.0001)                 1.937548202849060E+05,      /* I =164 */
(PID.TID 0000.0001)                 2.130490056267208E+05,      /* I =165 */
(PID.TID 0000.0001)                 2.290479919481738E+05,      /* I =166 */
(PID.TID 0000.0001)                 2.426774358027003E+05,      /* I =167 */
(PID.TID 0000.0001)                 2.544372984215561E+05,      /* I =168 */
(PID.TID 0000.0001)                 2.646201463834826E+05,      /* I =169 */
(PID.TID 0000.0001)                 2.734046499619031E+05,      /* I =170 */
(PID.TID 0000.0001)                 2.809019351693761E+05,      /* I =171 */
(PID.TID 0000.0001)                 2.871811105274442E+05,      /* I =172 */
(PID.TID 0000.0001)                 2.922844849381675E+05,      /* I =173 */
(PID.TID 0000.0001)                 2.962371870847826E+05,      /* I =174 */
(PID.TID 0000.0001)                 2.990534755671296E+05,      /* I =175 */
(PID.TID 0000.0001)                 3.007409169495504E+05,      /* I =176 */
(PID.TID 0000.0001)                 3.013031486919771E+05,      /* I =177 */
(PID.TID 0000.0001)                 3.007409169495504E+05,      /* I =178 */
(PID.TID 0000.0001)                 2.990534755671296E+05,      /* I =179 */
(PID.TID 0000.0001)                 2.962371870847826E+05,      /* I =180 */
(PID.TID 0000.0001)                 2.922844849381675E+05,      /* I =181 */
(PID.TID 0000.0001)                 2.871811105274442E+05,      /* I =182 */
(PID.TID 0000.0001)                 2.809019351693761E+05,      /* I =183 */
(PID.TID 0000.0001)                 2.734046499619031E+05,      /* I =184 */
(PID.TID 0000.0001)                 2.646201463834826E+05,      /* I =185 */
(PID.TID 0000.0001)                 2.544372984215561E+05,      /* I =186 */
(PID.TID 0000.0001)                 2.426774358027003E+05,      /* I =187 */
(PID.TID 0000.0001)                 2.290479919481738E+05,      /* I =188 */
(PID.TID 0000.0001)                 2.130490056267208E+05,      /* I =189 */
(PID.TID 0000.0001)                 1.937548202849060E+05,      /* I =190 */
(PID.TID 0000.0001)                 1.691744868129062E+05,      /* I =191 */
(PID.TID 0000.0001)                 1.333130744933864E+05       /* I =192 */
(PID.TID 0000.0001)     ;
(PID.TID 0000.0001) dxV =  /* dxV(1,:,1,:) ( units: m ) */
(PID.TID 0000.0001)                 8.015229982413632E+04,      /* J =  1 */
(PID.TID 0000.0001)                 1.362652340208229E+05,      /* J =  2 */
(PID.TID 0000.0001)                 1.701080315742101E+05,      /* J =  3 */
(PID.TID 0000.0001)                 1.942331448101592E+05,      /* J =  4 */
(PID.TID 0000.0001)                 2.133486626971531E+05,      /* J =  5 */
(PID.TID 0000.0001)                 2.292584591272880E+05,      /* J =  6 */
(PID.TID 0000.0001)                 2.428369969078989E+05,      /* J =  7 */
(PID.TID 0000.0001)                 2.545652950875683E+05,      /* J =  8 */
(PID.TID 0000.0001)                 2.647274964828301E+05,      /* J =  9 */
(PID.TID 0000.0001)                 2.734980225206389E+05,      /* J = 10 */
(PID.TID 0000.0001)                 2.809856491525217E+05,      /* J = 11 */
(PID.TID 0000.0001)                 2.872580915202295E+05,      /* J = 12 */
(PID.TID 0000.0001)                 2.923567890694162E+05,      /* J = 13 */
(PID.TID 0000.0001)                 2.963063101754721E+05,      /* J = 14 */
(PID.TID 0000.0001)                 2.991205495886625E+05,      /* J = 15 */
(PID.TID 0000.0001)                 3.008068453676764E+05,      /* J = 16 */
(PID.TID 0000.0001)                 3.013686170436881E+05,      /* J = 17 */
(PID.TID 0000.0001)                 3.008068453676764E+05,      /* J = 18 */
(PID.TID 0000.0001)                 2.991205495886625E+05,      /* J = 19 */
(PID.TID 0000.0001)                 2.963063101754721E+05,      /* J = 20 */
(PID.TID 0000.0001)                 2.923567890694162E+05,      /* J = 21 */
(PID.TID 0000.0001)                 2.872580915202295E+05,      /* J = 22 */
(PID.TID 0000.0001)                 2.809856491525217E+05,      /* J = 23 */
(PID.TID 0000.0001)                 2.734980225206389E+05,      /* J = 24 */
(PID.TID 0000.0001)                 2.647274964828301E+05,      /* J = 25 */
(PID.TID 0000.0001)                 2.545652950875683E+05,      /* J = 26 */
(PID.TID 0000.0001)                 2.428369969078989E+05,      /* J = 27 */
(PID.TID 0000.0001)                 2.292584591272880E+05,      /* J = 28 */
(PID.TID 0000.0001)                 2.133486626971531E+05,      /* J = 29 */
(PID.TID 0000.0001)                 1.942331448101592E+05,      /* J = 30 */
(PID.TID 0000.0001)                 1.701080315742101E+05,      /* J = 31 */
(PID.TID 0000.0001)                 1.362652340208229E+05       /* J = 32 */
(PID.TID 0000.0001)     ;
(PID.TID 0000.0001) dyU =  /* dyU(:,1,:,1) ( units: m ) */
(PID.TID 0000.0001)                 8.015229982413632E+04,      /* I =  1 */
(PID.TID 0000.0001)                 1.362652340208229E+05,      /* I =  2 */
(PID.TID 0000.0001)                 1.701080315742101E+05,      /* I =  3 */
(PID.TID 0000.0001)                 1.942331448101592E+05,      /* I =  4 */
(PID.TID 0000.0001)                 2.133486626971531E+05,      /* I =  5 */
(PID.TID 0000.0001)                 2.292584591272880E+05,      /* I =  6 */
(PID.TID 0000.0001)                 2.428369969078989E+05,      /* I =  7 */
(PID.TID 0000.0001)                 2.545652950875683E+05,      /* I =  8 */
(PID.TID 0000.0001)                 2.647274964828301E+05,      /* I =  9 */
(PID.TID 0000.0001)                 2.734980225206389E+05,      /* I = 10 */
(PID.TID 0000.0001)                 2.809856491525217E+05,      /* I = 11 */
(PID.TID 0000.0001)                 2.872580915202295E+05,      /* I = 12 */
(PID.TID 0000.0001)                 2.923567890694162E+05,      /* I = 13 */
(PID.TID 0000.0001)                 2.963063101754721E+05,      /* I = 14 */
(PID.TID 0000.0001)                 2.991205495886625E+05,      /* I = 15 */
(PID.TID 0000.0001)                 3.008068453676764E+05,      /* I = 16 */
(PID.TID 0000.0001)                 3.013686170436881E+05,      /* I = 17 */
(PID.TID 0000.0001)                 3.008068453676764E+05,      /* I = 18 */
(PID.TID 0000.0001)                 2.991205495886625E+05,      /* I = 19 */
(PID.TID 0000.0001)                 2.963063101754721E+05,      /* I = 20 */
(PID.TID 0000.0001)                 2.923567890694162E+05,      /* I = 21 */
(PID.TID 0000.0001)                 2.872580915202295E+05,      /* I = 22 */
(PID.TID 0000.0001)                 2.809856491525217E+05,      /* I = 23 */
(PID.TID 0000.0001)                 2.734980225206389E+05,      /* I = 24 */
(PID.TID 0000.0001)                 2.647274964828301E+05,      /* I = 25 */
(PID.TID 0000.0001)                 2.545652950875683E+05,      /* I = 26 */
(PID.TID 0000.0001)                 2.428369969078989E+05,      /* I = 27 */
(PID.TID 0000.0001)                 2.292584591272880E+05,      /* I = 28 */
(PID.TID 0000.0001)                 2.133486626971531E+05,      /* I = 29 */
(PID.TID 0000.0001)                 1.942331448101592E+05,      /* I = 30 */
(PID.TID 0000.0001)                 1.701080315742101E+05,      /* I = 31 */
(PID.TID 0000.0001)                 1.362652340208229E+05,      /* I = 32 */
(PID.TID 0000.0001)                 8.015229982413632E+04,      /* I = 33 */
(PID.TID 0000.0001)                 1.362652340208229E+05,      /* I = 34 */
(PID.TID 0000.0001)                 1.701080315742101E+05,      /* I = 35 */
(PID.TID 0000.0001)                 1.942331448101592E+05,      /* I = 36 */
(PID.TID 0000.0001)                 2.133486626971531E+05,      /* I = 37 */
(PID.TID 0000.0001)                 2.292584591272880E+05,      /* I = 38 */
(PID.TID 0000.0001)                 2.428369969078989E+05,      /* I = 39 */
(PID.TID 0000.0001)                 2.545652950875683E+05,      /* I = 40 */
(PID.TID 0000.0001)                 2.647274964828301E+05,      /* I = 41 */
(PID.TID 0000.0001)                 2.734980225206389E+05,      /* I = 42 */
(PID.TID 0000.0001)                 2.809856491525217E+05,      /* I = 43 */
(PID.TID 0000.0001)                 2.872580915202295E+05,      /* I = 44 */
(PID.TID 0000.0001)                 2.923567890694162E+05,      /* I = 45 */
(PID.TID 0000.0001)                 2.963063101754721E+05,      /* I = 46 */
(PID.TID 0000.0001)                 2.991205495886625E+05,      /* I = 47 */
(PID.TID 0000.0001)                 3.008068453676764E+05,      /* I = 48 */
(PID.TID 0000.0001)                 3.013686170436881E+05,      /* I = 49 */
(PID.TID 0000.0001)                 3.008068453676764E+05,      /* I = 50 */
(PID.TID 0000.0001)                 2.991205495886625E+05,      /* I = 51 */
(PID.TID 0000.0001)                 2.963063101754721E+05,      /* I = 52 */
(PID.TID 0000.0001)                 2.923567890694162E+05,      /* I = 53 */
(PID.TID 0000.0001)                 2.872580915202295E+05,      /* I = 54 */
(PID.TID 0000.0001)                 2.809856491525217E+05,      /* I = 55 */
(PID.TID 0000.0001)                 2.734980225206389E+05,      /* I = 56 */
(PID.TID 0000.0001)                 2.647274964828301E+05,      /* I = 57 */
(PID.TID 0000.0001)                 2.545652950875683E+05,      /* I = 58 */
(PID.TID 0000.0001)                 2.428369969078989E+05,      /* I = 59 */
(PID.TID 0000.0001)                 2.292584591272880E+05,      /* I = 60 */
(PID.TID 0000.0001)                 2.133486626971531E+05,      /* I = 61 */
(PID.TID 0000.0001)                 1.942331448101592E+05,      /* I = 62 */
(PID.TID 0000.0001)                 1.701080315742101E+05,      /* I = 63 */
(PID.TID 0000.0001)                 1.362652340208229E+05,      /* I = 64 */
(PID.TID 0000.0001)                 8.015229982413632E+04,      /* I = 65 */
(PID.TID 0000.0001)                 1.362652340208229E+05,      /* I = 66 */
(PID.TID 0000.0001)                 1.701080315742101E+05,      /* I = 67 */
(PID.TID 0000.0001)                 1.942331448101592E+05,      /* I = 68 */
(PID.TID 0000.0001)                 2.133486626971531E+05,      /* I = 69 */
(PID.TID 0000.0001)                 2.292584591272880E+05,      /* I = 70 */
(PID.TID 0000.0001)                 2.428369969078989E+05,      /* I = 71 */
(PID.TID 0000.0001)                 2.545652950875683E+05,      /* I = 72 */
(PID.TID 0000.0001)                 2.647274964828301E+05,      /* I = 73 */
(PID.TID 0000.0001)                 2.734980225206389E+05,      /* I = 74 */
(PID.TID 0000.0001)                 2.809856491525217E+05,      /* I = 75 */
(PID.TID 0000.0001)                 2.872580915202295E+05,      /* I = 76 */
(PID.TID 0000.0001)                 2.923567890694162E+05,      /* I = 77 */
(PID.TID 0000.0001)                 2.963063101754721E+05,      /* I = 78 */
(PID.TID 0000.0001)                 2.991205495886625E+05,      /* I = 79 */
(PID.TID 0000.0001)                 3.008068453676764E+05,      /* I = 80 */
(PID.TID 0000.0001)                 3.013686170436881E+05,      /* I = 81 */
(PID.TID 0000.0001)                 3.008068453676764E+05,      /* I = 82 */
(PID.TID 0000.0001)                 2.991205495886625E+05,      /* I = 83 */
(PID.TID 0000.0001)                 2.963063101754721E+05,      /* I = 84 */
(PID.TID 0000.0001)                 2.923567890694162E+05,      /* I = 85 */
(PID.TID 0000.0001)                 2.872580915202295E+05,      /* I = 86 */
(PID.TID 0000.0001)                 2.809856491525217E+05,      /* I = 87 */
(PID.TID 0000.0001)                 2.734980225206389E+05,      /* I = 88 */
(PID.TID 0000.0001)                 2.647274964828301E+05,      /* I = 89 */
(PID.TID 0000.0001)                 2.545652950875683E+05,      /* I = 90 */
(PID.TID 0000.0001)                 2.428369969078989E+05,      /* I = 91 */
(PID.TID 0000.0001)                 2.292584591272880E+05,      /* I = 92 */
(PID.TID 0000.0001)                 2.133486626971531E+05,      /* I = 93 */
(PID.TID 0000.0001)                 1.942331448101592E+05,      /* I = 94 */
(PID.TID 0000.0001)                 1.701080315742101E+05,      /* I = 95 */
(PID.TID 0000.0001)                 1.362652340208229E+05,      /* I = 96 */
(PID.TID 0000.0001)                 8.015229982413632E+04,      /* I = 97 */
(PID.TID 0000.0001)                 1.362652340208229E+05,      /* I = 98 */
(PID.TID 0000.0001)                 1.701080315742101E+05,      /* I = 99 */
(PID.TID 0000.0001)                 1.942331448101592E+05,      /* I =100 */
(PID.TID 0000.0001)                 2.133486626971531E+05,      /* I =101 */
(PID.TID 0000.0001)                 2.292584591272880E+05,      /* I =102 */
(PID.TID 0000.0001)                 2.428369969078989E+05,      /* I =103 */
(PID.TID 0000.0001)                 2.545652950875683E+05,      /* I =104 */
(PID.TID 0000.0001)                 2.647274964828301E+05,      /* I =105 */
(PID.TID 0000.0001)                 2.734980225206389E+05,      /* I =106 */
(PID.TID 0000.0001)                 2.809856491525217E+05,      /* I =107 */
(PID.TID 0000.0001)                 2.872580915202295E+05,      /* I =108 */
(PID.TID 0000.0001)                 2.923567890694162E+05,      /* I =109 */
(PID.TID 0000.0001)                 2.963063101754721E+05,      /* I =110 */
(PID.TID 0000.0001)                 2.991205495886625E+05,      /* I =111 */
(PID.TID 0000.0001)                 3.008068453676764E+05,      /* I =112 */
(PID.TID 0000.0001)                 3.013686170436881E+05,      /* I =113 */
(PID.TID 0000.0001)                 3.008068453676764E+05,      /* I =114 */
(PID.TID 0000.0001)                 2.991205495886625E+05,      /* I =115 */
(PID.TID 0000.0001)                 2.963063101754721E+05,      /* I =116 */
(PID.TID 0000.0001)                 2.923567890694162E+05,      /* I =117 */
(PID.TID 0000.0001)                 2.872580915202295E+05,      /* I =118 */
(PID.TID 0000.0001)                 2.809856491525217E+05,      /* I =119 */
(PID.TID 0000.0001)                 2.734980225206389E+05,      /* I =120 */
(PID.TID 0000.0001)                 2.647274964828301E+05,      /* I =121 */
(PID.TID 0000.0001)                 2.545652950875683E+05,      /* I =122 */
(PID.TID 0000.0001)                 2.428369969078989E+05,      /* I =123 */
(PID.TID 0000.0001)                 2.292584591272880E+05,      /* I =124 */
(PID.TID 0000.0001)                 2.133486626971531E+05,      /* I =125 */
(PID.TID 0000.0001)                 1.942331448101592E+05,      /* I =126 */
(PID.TID 0000.0001)                 1.701080315742101E+05,      /* I =127 */
(PID.TID 0000.0001)                 1.362652340208229E+05,      /* I =128 */
(PID.TID 0000.0001)                 8.015229982413632E+04,      /* I =129 */
(PID.TID 0000.0001)                 1.362652340208229E+05,      /* I =130 */
(PID.TID 0000.0001)                 1.701080315742101E+05,      /* I =131 */
(PID.TID 0000.0001)                 1.942331448101592E+05,      /* I =132 */
(PID.TID 0000.0001)                 2.133486626971531E+05,      /* I =133 */
(PID.TID 0000.0001)                 2.292584591272880E+05,      /* I =134 */
(PID.TID 0000.0001)                 2.428369969078989E+05,      /* I =135 */
(PID.TID 0000.0001)                 2.545652950875683E+05,      /* I =136 */
(PID.TID 0000.0001)                 2.647274964828301E+05,      /* I =137 */
(PID.TID 0000.0001)                 2.734980225206389E+05,      /* I =138 */
(PID.TID 0000.0001)                 2.809856491525217E+05,      /* I =139 */
(PID.TID 0000.0001)                 2.872580915202295E+05,      /* I =140 */
(PID.TID 0000.0001)                 2.923567890694162E+05,      /* I =141 */
(PID.TID 0000.0001)                 2.963063101754721E+05,      /* I =142 */
(PID.TID 0000.0001)                 2.991205495886625E+05,      /* I =143 */
(PID.TID 0000.0001)                 3.008068453676764E+05,      /* I =144 */
(PID.TID 0000.0001)                 3.013686170436881E+05,      /* I =145 */
(PID.TID 0000.0001)                 3.008068453676764E+05,      /* I =146 */
(PID.TID 0000.0001)                 2.991205495886625E+05,      /* I =147 */
(PID.TID 0000.0001)                 2.963063101754721E+05,      /* I =148 */
(PID.TID 0000.0001)                 2.923567890694162E+05,      /* I =149 */
(PID.TID 0000.0001)                 2.872580915202295E+05,      /* I =150 */
(PID.TID 0000.0001)                 2.809856491525217E+05,      /* I =151 */
(PID.TID 0000.0001)                 2.734980225206389E+05,      /* I =152 */
(PID.TID 0000.0001)                 2.647274964828301E+05,      /* I =153 */
(PID.TID 0000.0001)                 2.545652950875683E+05,      /* I =154 */
(PID.TID 0000.0001)                 2.428369969078989E+05,      /* I =155 */
(PID.TID 0000.0001)                 2.292584591272880E+05,      /* I =156 */
(PID.TID 0000.0001)                 2.133486626971531E+05,      /* I =157 */
(PID.TID 0000.0001)                 1.942331448101592E+05,      /* I =158 */
(PID.TID 0000.0001)                 1.701080315742101E+05,      /* I =159 */
(PID.TID 0000.0001)                 1.362652340208229E+05,      /* I =160 */
(PID.TID 0000.0001)                 8.015229982413632E+04,      /* I =161 */
(PID.TID 0000.0001)                 1.362652340208229E+05,      /* I =162 */
(PID.TID 0000.0001)                 1.701080315742101E+05,      /* I =163 */
(PID.TID 0000.0001)                 1.942331448101592E+05,      /* I =164 */
(PID.TID 0000.0001)                 2.133486626971531E+05,      /* I =165 */
(PID.TID 0000.0001)                 2.292584591272880E+05,      /* I =166 */
(PID.TID 0000.0001)                 2.428369969078989E+05,      /* I =167 */
(PID.TID 0000.0001)                 2.545652950875683E+05,      /* I =168 */
(PID.TID 0000.0001)                 2.647274964828301E+05,      /* I =169 */
(PID.TID 0000.0001)                 2.734980225206389E+05,      /* I =170 */
(PID.TID 0000.0001)                 2.809856491525217E+05,      /* I =171 */
(PID.TID 0000.0001)                 2.872580915202295E+05,      /* I =172 */
(PID.TID 0000.0001)                 2.923567890694162E+05,      /* I =173 */
(PID.TID 0000.0001)                 2.963063101754721E+05,      /* I =174 */
(PID.TID 0000.0001)                 2.991205495886625E+05,      /* I =175 */
(PID.TID 0000.0001)                 3.008068453676764E+05,      /* I =176 */
(PID.TID 0000.0001)                 3.013686170436881E+05,      /* I =177 */
(PID.TID 0000.0001)                 3.008068453676764E+05,      /* I =178 */
(PID.TID 0000.0001)                 2.991205495886625E+05,      /* I =179 */
(PID.TID 0000.0001)                 2.963063101754721E+05,      /* I =180 */
(PID.TID 0000.0001)                 2.923567890694162E+05,      /* I =181 */
(PID.TID 0000.0001)                 2.872580915202295E+05,      /* I =182 */
(PID.TID 0000.0001)                 2.809856491525217E+05,      /* I =183 */
(PID.TID 0000.0001)                 2.734980225206389E+05,      /* I =184 */
(PID.TID 0000.0001)                 2.647274964828301E+05,      /* I =185 */
(PID.TID 0000.0001)                 2.545652950875683E+05,      /* I =186 */
(PID.TID 0000.0001)                 2.428369969078989E+05,      /* I =187 */
(PID.TID 0000.0001)                 2.292584591272880E+05,      /* I =188 */
(PID.TID 0000.0001)                 2.133486626971531E+05,      /* I =189 */
(PID.TID 0000.0001)                 1.942331448101592E+05,      /* I =190 */
(PID.TID 0000.0001)                 1.701080315742101E+05,      /* I =191 */
(PID.TID 0000.0001)                 1.362652340208229E+05       /* I =192 */
(PID.TID 0000.0001)     ;
(PID.TID 0000.0001) dyU =  /* dyU(1,:,1,:) ( units: m ) */
(PID.TID 0000.0001)                 8.015229982413632E+04,      /* J =  1 */
(PID.TID 0000.0001)                 1.333130744933864E+05,      /* J =  2 */
(PID.TID 0000.0001)                 1.691744868129062E+05,      /* J =  3 */
(PID.TID 0000.0001)                 1.937548202849060E+05,      /* J =  4 */
(PID.TID 0000.0001)                 2.130490056267208E+05,      /* J =  5 */
(PID.TID 0000.0001)                 2.290479919481738E+05,      /* J =  6 */
(PID.TID 0000.0001)                 2.426774358027003E+05,      /* J =  7 */
(PID.TID 0000.0001)                 2.544372984215561E+05,      /* J =  8 */
(PID.TID 0000.0001)                 2.646201463834826E+05,      /* J =  9 */
(PID.TID 0000.0001)                 2.734046499619031E+05,      /* J = 10 */
(PID.TID 0000.0001)                 2.809019351693761E+05,      /* J = 11 */
(PID.TID 0000.0001)                 2.871811105274442E+05,      /* J = 12 */
(PID.TID 0000.0001)                 2.922844849381675E+05,      /* J = 13 */
(PID.TID 0000.0001)                 2.962371870847826E+05,      /* J = 14 */
(PID.TID 0000.0001)                 2.990534755671296E+05,      /* J = 15 */
(PID.TID 0000.0001)                 3.007409169495504E+05,      /* J = 16 */
(PID.TID 0000.0001)                 3.013031486919771E+05,      /* J = 17 */
(PID.TID 0000.0001)                 3.007409169495504E+05,      /* J = 18 */
(PID.TID 0000.0001)                 2.990534755671296E+05,      /* J = 19 */
(PID.TID 0000.0001)                 2.962371870847826E+05,      /* J = 20 */
(PID.TID 0000.0001)                 2.922844849381675E+05,      /* J = 21 */
(PID.TID 0000.0001)                 2.871811105274442E+05,      /* J = 22 */
(PID.TID 0000.0001)                 2.809019351693761E+05,      /* J = 23 */
(PID.TID 0000.0001)                 2.734046499619031E+05,      /* J = 24 */
(PID.TID 0000.0001)                 2.646201463834826E+05,      /* J = 25 */
(PID.TID 0000.0001)                 2.544372984215561E+05,      /* J = 26 */
(PID.TID 0000.0001)                 2.426774358027003E+05,      /* J = 27 */
(PID.TID 0000.0001)                 2.290479919481738E+05,      /* J = 28 */
(PID.TID 0000.0001)                 2.130490056267208E+05,      /* J = 29 */
(PID.TID 0000.0001)                 1.937548202849060E+05,      /* J = 30 */
(PID.TID 0000.0001)                 1.691744868129062E+05,      /* J = 31 */
(PID.TID 0000.0001)                 1.333130744933864E+05       /* J = 32 */
(PID.TID 0000.0001)     ;
(PID.TID 0000.0001) rA  =  /* rA (:,1,:,1) ( units: m^2 ) */
(PID.TID 0000.0001)                 1.401900702255611E+10,      /* I =  1 */
(PID.TID 0000.0001)                 2.459906945574446E+10,      /* I =  2 */
(PID.TID 0000.0001)                 3.378518544307869E+10,      /* I =  3 */
(PID.TID 0000.0001)                 4.192037169898667E+10,      /* I =  4 */
(PID.TID 0000.0001)                 4.925938996118163E+10,      /* I =  5 */
(PID.TID 0000.0001)                 5.594154126607553E+10,      /* I =  6 */
(PID.TID 0000.0001)                 6.203683527772523E+10,      /* I =  7 */
(PID.TID 0000.0001)                 6.757541173817516E+10,      /* I =  8 */
(PID.TID 0000.0001)                 7.256353271748119E+10,      /* I =  9 */
(PID.TID 0000.0001)                 7.699293007098555E+10,      /* I = 10 */
(PID.TID 0000.0001)                 8.084683449728902E+10,      /* I = 11 */
(PID.TID 0000.0001)                 8.410423102796223E+10,      /* I = 12 */
(PID.TID 0000.0001)                 8.674306976737517E+10,      /* I = 13 */
(PID.TID 0000.0001)                 8.874277443041928E+10,      /* I = 14 */
(PID.TID 0000.0001)                 9.008620045350865E+10,      /* I = 15 */
(PID.TID 0000.0001)                 9.076111290418457E+10,      /* I = 16 */
(PID.TID 0000.0001)                 9.076111290422060E+10,      /* I = 17 */
(PID.TID 0000.0001)                 9.008620045354469E+10,      /* I = 18 */
(PID.TID 0000.0001)                 8.874277443041928E+10,      /* I = 19 */
(PID.TID 0000.0001)                 8.674306976741121E+10,      /* I = 20 */
(PID.TID 0000.0001)                 8.410423102799828E+10,      /* I = 21 */
(PID.TID 0000.0001)                 8.084683449728902E+10,      /* I = 22 */
(PID.TID 0000.0001)                 7.699293007098555E+10,      /* I = 23 */
(PID.TID 0000.0001)                 7.256353271748119E+10,      /* I = 24 */
(PID.TID 0000.0001)                 6.757541173817516E+10,      /* I = 25 */
(PID.TID 0000.0001)                 6.203683527772523E+10,      /* I = 26 */
(PID.TID 0000.0001)                 5.594154126611156E+10,      /* I = 27 */
(PID.TID 0000.0001)                 4.925938996118163E+10,      /* I = 28 */
(PID.TID 0000.0001)                 4.192037169898667E+10,      /* I = 29 */
(PID.TID 0000.0001)                 3.378518544304265E+10,      /* I = 30 */
(PID.TID 0000.0001)                 2.459906945574446E+10,      /* I = 31 */
(PID.TID 0000.0001)                 1.401900702259215E+10,      /* I = 32 */
(PID.TID 0000.0001)                 1.401900702255611E+10,      /* I = 33 */
(PID.TID 0000.0001)                 2.459906945574446E+10,      /* I = 34 */
(PID.TID 0000.0001)                 3.378518544307869E+10,      /* I = 35 */
(PID.TID 0000.0001)                 4.192037169898667E+10,      /* I = 36 */
(PID.TID 0000.0001)                 4.925938996118163E+10,      /* I = 37 */
(PID.TID 0000.0001)                 5.594154126607553E+10,      /* I = 38 */
(PID.TID 0000.0001)                 6.203683527772523E+10,      /* I = 39 */
(PID.TID 0000.0001)                 6.757541173817516E+10,      /* I = 40 */
(PID.TID 0000.0001)                 7.256353271748119E+10,      /* I = 41 */
(PID.TID 0000.0001)                 7.699293007098555E+10,      /* I = 42 */
(PID.TID 0000.0001)                 8.084683449728902E+10,      /* I = 43 */
(PID.TID 0000.0001)                 8.410423102796223E+10,      /* I = 44 */
(PID.TID 0000.0001)                 8.674306976737517E+10,      /* I = 45 */
(PID.TID 0000.0001)                 8.874277443041928E+10,      /* I = 46 */
(PID.TID 0000.0001)                 9.008620045350865E+10,      /* I = 47 */
(PID.TID 0000.0001)                 9.076111290418457E+10,      /* I = 48 */
(PID.TID 0000.0001)                 9.076111290422060E+10,      /* I = 49 */
(PID.TID 0000.0001)                 9.008620045354469E+10,      /* I = 50 */
(PID.TID 0000.0001)                 8.874277443041928E+10,      /* I = 51 */
(PID.TID 0000.0001)                 8.674306976741121E+10,      /* I = 52 */
(PID.TID 0000.0001)                 8.410423102799828E+10,      /* I = 53 */
(PID.TID 0000.0001)                 8.084683449728902E+10,      /* I = 54 */
(PID.TID 0000.0001)                 7.699293007098555E+10,      /* I = 55 */
(PID.TID 0000.0001)                 7.256353271748119E+10,      /* I = 56 */
(PID.TID 0000.0001)                 6.757541173817516E+10,      /* I = 57 */
(PID.TID 0000.0001)                 6.203683527772523E+10,      /* I = 58 */
(PID.TID 0000.0001)                 5.594154126611156E+10,      /* I = 59 */
(PID.TID 0000.0001)                 4.925938996118163E+10,      /* I = 60 */
(PID.TID 0000.0001)                 4.192037169898667E+10,      /* I = 61 */
(PID.TID 0000.0001)                 3.378518544304265E+10,      /* I = 62 */
(PID.TID 0000.0001)                 2.459906945574446E+10,      /* I = 63 */
(PID.TID 0000.0001)                 1.401900702259215E+10,      /* I = 64 */
(PID.TID 0000.0001)                 1.401900702255611E+10,      /* I = 65 */
(PID.TID 0000.0001)                 2.459906945574446E+10,      /* I = 66 */
(PID.TID 0000.0001)                 3.378518544307869E+10,      /* I = 67 */
(PID.TID 0000.0001)                 4.192037169898667E+10,      /* I = 68 */
(PID.TID 0000.0001)                 4.925938996118163E+10,      /* I = 69 */
(PID.TID 0000.0001)                 5.594154126607553E+10,      /* I = 70 */
(PID.TID 0000.0001)                 6.203683527772523E+10,      /* I = 71 */
(PID.TID 0000.0001)                 6.757541173817516E+10,      /* I = 72 */
(PID.TID 0000.0001)                 7.256353271748119E+10,      /* I = 73 */
(PID.TID 0000.0001)                 7.699293007098555E+10,      /* I = 74 */
(PID.TID 0000.0001)                 8.084683449728902E+10,      /* I = 75 */
(PID.TID 0000.0001)                 8.410423102796223E+10,      /* I = 76 */
(PID.TID 0000.0001)                 8.674306976737517E+10,      /* I = 77 */
(PID.TID 0000.0001)                 8.874277443041928E+10,      /* I = 78 */
(PID.TID 0000.0001)                 9.008620045350865E+10,      /* I = 79 */
(PID.TID 0000.0001)                 9.076111290418457E+10,      /* I = 80 */
(PID.TID 0000.0001)                 9.076111290422060E+10,      /* I = 81 */
(PID.TID 0000.0001)                 9.008620045354469E+10,      /* I = 82 */
(PID.TID 0000.0001)                 8.874277443041928E+10,      /* I = 83 */
(PID.TID 0000.0001)                 8.674306976741121E+10,      /* I = 84 */
(PID.TID 0000.0001)                 8.410423102799828E+10,      /* I = 85 */
(PID.TID 0000.0001)                 8.084683449728902E+10,      /* I = 86 */
(PID.TID 0000.0001)                 7.699293007098555E+10,      /* I = 87 */
(PID.TID 0000.0001)                 7.256353271748119E+10,      /* I = 88 */
(PID.TID 0000.0001)                 6.757541173817516E+10,      /* I = 89 */
(PID.TID 0000.0001)                 6.203683527772523E+10,      /* I = 90 */
(PID.TID 0000.0001)                 5.594154126611156E+10,      /* I = 91 */
(PID.TID 0000.0001)                 4.925938996118163E+10,      /* I = 92 */
(PID.TID 0000.0001)                 4.192037169898667E+10,      /* I = 93 */
(PID.TID 0000.0001)                 3.378518544304265E+10,      /* I = 94 */
(PID.TID 0000.0001)                 2.459906945574446E+10,      /* I = 95 */
(PID.TID 0000.0001)                 1.401900702259215E+10,      /* I = 96 */
(PID.TID 0000.0001)                 1.401900702255611E+10,      /* I = 97 */
(PID.TID 0000.0001)                 2.459906945574446E+10,      /* I = 98 */
(PID.TID 0000.0001)                 3.378518544307869E+10,      /* I = 99 */
(PID.TID 0000.0001)                 4.192037169898667E+10,      /* I =100 */
(PID.TID 0000.0001)                 4.925938996118163E+10,      /* I =101 */
(PID.TID 0000.0001)                 5.594154126607553E+10,      /* I =102 */
(PID.TID 0000.0001)                 6.203683527772523E+10,      /* I =103 */
(PID.TID 0000.0001)                 6.757541173817516E+10,      /* I =104 */
(PID.TID 0000.0001)                 7.256353271748119E+10,      /* I =105 */
(PID.TID 0000.0001)                 7.699293007098555E+10,      /* I =106 */
(PID.TID 0000.0001)                 8.084683449728902E+10,      /* I =107 */
(PID.TID 0000.0001)                 8.410423102796223E+10,      /* I =108 */
(PID.TID 0000.0001)                 8.674306976737517E+10,      /* I =109 */
(PID.TID 0000.0001)                 8.874277443041928E+10,      /* I =110 */
(PID.TID 0000.0001)                 9.008620045350865E+10,      /* I =111 */
(PID.TID 0000.0001)                 9.076111290418457E+10,      /* I =112 */
(PID.TID 0000.0001)                 9.076111290422060E+10,      /* I =113 */
(PID.TID 0000.0001)                 9.008620045354469E+10,      /* I =114 */
(PID.TID 0000.0001)                 8.874277443041928E+10,      /* I =115 */
(PID.TID 0000.0001)                 8.674306976741121E+10,      /* I =116 */
(PID.TID 0000.0001)                 8.410423102799828E+10,      /* I =117 */
(PID.TID 0000.0001)                 8.084683449728902E+10,      /* I =118 */
(PID.TID 0000.0001)                 7.699293007098555E+10,      /* I =119 */
(PID.TID 0000.0001)                 7.256353271748119E+10,      /* I =120 */
(PID.TID 0000.0001)                 6.757541173817516E+10,      /* I =121 */
(PID.TID 0000.0001)                 6.203683527772523E+10,      /* I =122 */
(PID.TID 0000.0001)                 5.594154126611156E+10,      /* I =123 */
(PID.TID 0000.0001)                 4.925938996118163E+10,      /* I =124 */
(PID.TID 0000.0001)                 4.192037169898667E+10,      /* I =125 */
(PID.TID 0000.0001)                 3.378518544304265E+10,      /* I =126 */
(PID.TID 0000.0001)                 2.459906945574446E+10,      /* I =127 */
(PID.TID 0000.0001)                 1.401900702259215E+10,      /* I =128 */
(PID.TID 0000.0001)                 1.401900702255611E+10,      /* I =129 */
(PID.TID 0000.0001)                 2.459906945574446E+10,      /* I =130 */
(PID.TID 0000.0001)                 3.378518544307869E+10,      /* I =131 */
(PID.TID 0000.0001)                 4.192037169898667E+10,      /* I =132 */
(PID.TID 0000.0001)                 4.925938996118163E+10,      /* I =133 */
(PID.TID 0000.0001)                 5.594154126607553E+10,      /* I =134 */
(PID.TID 0000.0001)                 6.203683527772523E+10,      /* I =135 */
(PID.TID 0000.0001)                 6.757541173817516E+10,      /* I =136 */
(PID.TID 0000.0001)                 7.256353271748119E+10,      /* I =137 */
(PID.TID 0000.0001)                 7.699293007098555E+10,      /* I =138 */
(PID.TID 0000.0001)                 8.084683449728902E+10,      /* I =139 */
(PID.TID 0000.0001)                 8.410423102796223E+10,      /* I =140 */
(PID.TID 0000.0001)                 8.674306976737517E+10,      /* I =141 */
(PID.TID 0000.0001)                 8.874277443041928E+10,      /* I =142 */
(PID.TID 0000.0001)                 9.008620045350865E+10,      /* I =143 */
(PID.TID 0000.0001)                 9.076111290418457E+10,      /* I =144 */
(PID.TID 0000.0001)                 9.076111290422060E+10,      /* I =145 */
(PID.TID 0000.0001)                 9.008620045354469E+10,      /* I =146 */
(PID.TID 0000.0001)                 8.874277443041928E+10,      /* I =147 */
(PID.TID 0000.0001)                 8.674306976741121E+10,      /* I =148 */
(PID.TID 0000.0001)                 8.410423102799828E+10,      /* I =149 */
(PID.TID 0000.0001)                 8.084683449728902E+10,      /* I =150 */
(PID.TID 0000.0001)                 7.699293007098555E+10,      /* I =151 */
(PID.TID 0000.0001)                 7.256353271748119E+10,      /* I =152 */
(PID.TID 0000.0001)                 6.757541173817516E+10,      /* I =153 */
(PID.TID 0000.0001)                 6.203683527772523E+10,      /* I =154 */
(PID.TID 0000.0001)                 5.594154126611156E+10,      /* I =155 */
(PID.TID 0000.0001)                 4.925938996118163E+10,      /* I =156 */
(PID.TID 0000.0001)                 4.192037169898667E+10,      /* I =157 */
(PID.TID 0000.0001)                 3.378518544304265E+10,      /* I =158 */
(PID.TID 0000.0001)                 2.459906945574446E+10,      /* I =159 */
(PID.TID 0000.0001)                 1.401900702259215E+10,      /* I =160 */
(PID.TID 0000.0001)                 1.401900702255611E+10,      /* I =161 */
(PID.TID 0000.0001)                 2.459906945574446E+10,      /* I =162 */
(PID.TID 0000.0001)                 3.378518544307869E+10,      /* I =163 */
(PID.TID 0000.0001)                 4.192037169898667E+10,      /* I =164 */
(PID.TID 0000.0001)                 4.925938996118163E+10,      /* I =165 */
(PID.TID 0000.0001)                 5.594154126607553E+10,      /* I =166 */
(PID.TID 0000.0001)                 6.203683527772523E+10,      /* I =167 */
(PID.TID 0000.0001)                 6.757541173817516E+10,      /* I =168 */
(PID.TID 0000.0001)                 7.256353271748119E+10,      /* I =169 */
(PID.TID 0000.0001)                 7.699293007098555E+10,      /* I =170 */
(PID.TID 0000.0001)                 8.084683449728902E+10,      /* I =171 */
(PID.TID 0000.0001)                 8.410423102796223E+10,      /* I =172 */
(PID.TID 0000.0001)                 8.674306976737517E+10,      /* I =173 */
(PID.TID 0000.0001)                 8.874277443041928E+10,      /* I =174 */
(PID.TID 0000.0001)                 9.008620045350865E+10,      /* I =175 */
(PID.TID 0000.0001)                 9.076111290418457E+10,      /* I =176 */
(PID.TID 0000.0001)                 9.076111290422060E+10,      /* I =177 */
(PID.TID 0000.0001)                 9.008620045354469E+10,      /* I =178 */
(PID.TID 0000.0001)                 8.874277443041928E+10,      /* I =179 */
(PID.TID 0000.0001)                 8.674306976741121E+10,      /* I =180 */
(PID.TID 0000.0001)                 8.410423102799828E+10,      /* I =181 */
(PID.TID 0000.0001)                 8.084683449728902E+10,      /* I =182 */
(PID.TID 0000.0001)                 7.699293007098555E+10,      /* I =183 */
(PID.TID 0000.0001)                 7.256353271748119E+10,      /* I =184 */
(PID.TID 0000.0001)                 6.757541173817516E+10,      /* I =185 */
(PID.TID 0000.0001)                 6.203683527772523E+10,      /* I =186 */
(PID.TID 0000.0001)                 5.594154126611156E+10,      /* I =187 */
(PID.TID 0000.0001)                 4.925938996118163E+10,      /* I =188 */
(PID.TID 0000.0001)                 4.192037169898667E+10,      /* I =189 */
(PID.TID 0000.0001)                 3.378518544304265E+10,      /* I =190 */
(PID.TID 0000.0001)                 2.459906945574446E+10,      /* I =191 */
(PID.TID 0000.0001)                 1.401900702259215E+10       /* I =192 */
(PID.TID 0000.0001)     ;
(PID.TID 0000.0001) rA  =  /* rA (1,:,1,:) ( units: m^2 ) */
(PID.TID 0000.0001)                 1.401900702255611E+10,      /* J =  1 */
(PID.TID 0000.0001)                 2.459906945574446E+10,      /* J =  2 */
(PID.TID 0000.0001)                 3.378518544307869E+10,      /* J =  3 */
(PID.TID 0000.0001)                 4.192037169898667E+10,      /* J =  4 */
(PID.TID 0000.0001)                 4.925938996118163E+10,      /* J =  5 */
(PID.TID 0000.0001)                 5.594154126607553E+10,      /* J =  6 */
(PID.TID 0000.0001)                 6.203683527776127E+10,      /* J =  7 */
(PID.TID 0000.0001)                 6.757541173817516E+10,      /* J =  8 */
(PID.TID 0000.0001)                 7.256353271748119E+10,      /* J =  9 */
(PID.TID 0000.0001)                 7.699293007098555E+10,      /* J = 10 */
(PID.TID 0000.0001)                 8.084683449728902E+10,      /* J = 11 */
(PID.TID 0000.0001)                 8.410423102799828E+10,      /* J = 12 */
(PID.TID 0000.0001)                 8.674306976737517E+10,      /* J = 13 */
(PID.TID 0000.0001)                 8.874277443041928E+10,      /* J = 14 */
(PID.TID 0000.0001)                 9.008620045350865E+10,      /* J = 15 */
(PID.TID 0000.0001)                 9.076111290418457E+10,      /* J = 16 */
(PID.TID 0000.0001)                 9.076111290422060E+10,      /* J = 17 */
(PID.TID 0000.0001)                 9.008620045354469E+10,      /* J = 18 */
(PID.TID 0000.0001)                 8.874277443041928E+10,      /* J = 19 */
(PID.TID 0000.0001)                 8.674306976737517E+10,      /* J = 20 */
(PID.TID 0000.0001)                 8.410423102799828E+10,      /* J = 21 */
(PID.TID 0000.0001)                 8.084683449728902E+10,      /* J = 22 */
(PID.TID 0000.0001)                 7.699293007098555E+10,      /* J = 23 */
(PID.TID 0000.0001)                 7.256353271748119E+10,      /* J = 24 */
(PID.TID 0000.0001)                 6.757541173817516E+10,      /* J = 25 */
(PID.TID 0000.0001)                 6.203683527772523E+10,      /* J = 26 */
(PID.TID 0000.0001)                 5.594154126607553E+10,      /* J = 27 */
(PID.TID 0000.0001)                 4.925938996118163E+10,      /* J = 28 */
(PID.TID 0000.0001)                 4.192037169898667E+10,      /* J = 29 */
(PID.TID 0000.0001)                 3.378518544307869E+10,      /* J = 30 */
(PID.TID 0000.0001)                 2.459906945574446E+10,      /* J = 31 */
(PID.TID 0000.0001)                 1.401900702259215E+10       /* J = 32 */
(PID.TID 0000.0001)     ;
(PID.TID 0000.0001) rAw =  /* rAw(:,1,:,1) ( units: m^2 ) */
(PID.TID 0000.0001)                 1.216690346714270E+10,      /* I =  1 */
(PID.TID 0000.0001)                 1.974052138506315E+10,      /* I =  2 */
(PID.TID 0000.0001)                 2.943712825252015E+10,      /* I =  3 */
(PID.TID 0000.0001)                 3.801790263324359E+10,      /* I =  4 */
(PID.TID 0000.0001)                 4.571243814189866E+10,      /* I =  5 */
(PID.TID 0000.0001)                 5.269930713599979E+10,      /* I =  6 */
(PID.TID 0000.0001)                 5.907428494299063E+10,      /* I =  7 */
(PID.TID 0000.0001)                 6.488320895111514E+10,      /* I =  8 */
(PID.TID 0000.0001)                 7.014205907741882E+10,      /* I =  9 */
(PID.TID 0000.0001)                 7.484854821847499E+10,      /* I = 10 */
(PID.TID 0000.0001)                 7.898934631431560E+10,      /* I = 11 */
(PID.TID 0000.0001)                 8.254500894894537E+10,      /* I = 12 */
(PID.TID 0000.0001)                 8.549360686473492E+10,      /* I = 13 */
(PID.TID 0000.0001)                 8.781353403175085E+10,      /* I = 14 */
(PID.TID 0000.0001)                 8.948571540392021E+10,      /* I = 15 */
(PID.TID 0000.0001)                 9.049530583086168E+10,      /* I = 16 */
(PID.TID 0000.0001)                 9.083293515008307E+10,      /* I = 17 */
(PID.TID 0000.0001)                 9.049530583087070E+10,      /* I = 18 */
(PID.TID 0000.0001)                 8.948571540391121E+10,      /* I = 19 */
(PID.TID 0000.0001)                 8.781353403174185E+10,      /* I = 20 */
(PID.TID 0000.0001)                 8.549360686467184E+10,      /* I = 21 */
(PID.TID 0000.0001)                 8.254500894890933E+10,      /* I = 22 */
(PID.TID 0000.0001)                 7.898934631434262E+10,      /* I = 23 */
(PID.TID 0000.0001)                 7.484854821844795E+10,      /* I = 24 */
(PID.TID 0000.0001)                 7.014205907742783E+10,      /* I = 25 */
(PID.TID 0000.0001)                 6.488320895111514E+10,      /* I = 26 */
(PID.TID 0000.0001)                 5.907428494299063E+10,      /* I = 27 */
(PID.TID 0000.0001)                 5.269930713599078E+10,      /* I = 28 */
(PID.TID 0000.0001)                 4.571243814190767E+10,      /* I = 29 */
(PID.TID 0000.0001)                 3.801790263325260E+10,      /* I = 30 */
(PID.TID 0000.0001)                 2.943712825251114E+10,      /* I = 31 */
(PID.TID 0000.0001)                 1.974052138509018E+10,      /* I = 32 */
(PID.TID 0000.0001)                 1.216690346714270E+10,      /* I = 33 */
(PID.TID 0000.0001)                 1.974052138506315E+10,      /* I = 34 */
(PID.TID 0000.0001)                 2.943712825252015E+10,      /* I = 35 */
(PID.TID 0000.0001)                 3.801790263324359E+10,      /* I = 36 */
(PID.TID 0000.0001)                 4.571243814189866E+10,      /* I = 37 */
(PID.TID 0000.0001)                 5.269930713599979E+10,      /* I = 38 */
(PID.TID 0000.0001)                 5.907428494299063E+10,      /* I = 39 */
(PID.TID 0000.0001)                 6.488320895111514E+10,      /* I = 40 */
(PID.TID 0000.0001)                 7.014205907741882E+10,      /* I = 41 */
(PID.TID 0000.0001)                 7.484854821847499E+10,      /* I = 42 */
(PID.TID 0000.0001)                 7.898934631431560E+10,      /* I = 43 */
(PID.TID 0000.0001)                 8.254500894894537E+10,      /* I = 44 */
(PID.TID 0000.0001)                 8.549360686473492E+10,      /* I = 45 */
(PID.TID 0000.0001)                 8.781353403175085E+10,      /* I = 46 */
(PID.TID 0000.0001)                 8.948571540392021E+10,      /* I = 47 */
(PID.TID 0000.0001)                 9.049530583086168E+10,      /* I = 48 */
(PID.TID 0000.0001)                 9.083293515008307E+10,      /* I = 49 */
(PID.TID 0000.0001)                 9.049530583087070E+10,      /* I = 50 */
(PID.TID 0000.0001)                 8.948571540391121E+10,      /* I = 51 */
(PID.TID 0000.0001)                 8.781353403174185E+10,      /* I = 52 */
(PID.TID 0000.0001)                 8.549360686467184E+10,      /* I = 53 */
(PID.TID 0000.0001)                 8.254500894890933E+10,      /* I = 54 */
(PID.TID 0000.0001)                 7.898934631434262E+10,      /* I = 55 */
(PID.TID 0000.0001)                 7.484854821844795E+10,      /* I = 56 */
(PID.TID 0000.0001)                 7.014205907742783E+10,      /* I = 57 */
(PID.TID 0000.0001)                 6.488320895111514E+10,      /* I = 58 */
(PID.TID 0000.0001)                 5.907428494299063E+10,      /* I = 59 */
(PID.TID 0000.0001)                 5.269930713599078E+10,      /* I = 60 */
(PID.TID 0000.0001)                 4.571243814190767E+10,      /* I = 61 */
(PID.TID 0000.0001)                 3.801790263325260E+10,      /* I = 62 */
(PID.TID 0000.0001)                 2.943712825251114E+10,      /* I = 63 */
(PID.TID 0000.0001)                 1.974052138509018E+10,      /* I = 64 */
(PID.TID 0000.0001)                 1.216690346714270E+10,      /* I = 65 */
(PID.TID 0000.0001)                 1.974052138506315E+10,      /* I = 66 */
(PID.TID 0000.0001)                 2.943712825252015E+10,      /* I = 67 */
(PID.TID 0000.0001)                 3.801790263324359E+10,      /* I = 68 */
(PID.TID 0000.0001)                 4.571243814189866E+10,      /* I = 69 */
(PID.TID 0000.0001)                 5.269930713599979E+10,      /* I = 70 */
(PID.TID 0000.0001)                 5.907428494299063E+10,      /* I = 71 */
(PID.TID 0000.0001)                 6.488320895111514E+10,      /* I = 72 */
(PID.TID 0000.0001)                 7.014205907741882E+10,      /* I = 73 */
(PID.TID 0000.0001)                 7.484854821847499E+10,      /* I = 74 */
(PID.TID 0000.0001)                 7.898934631431560E+10,      /* I = 75 */
(PID.TID 0000.0001)                 8.254500894894537E+10,      /* I = 76 */
(PID.TID 0000.0001)                 8.549360686473492E+10,      /* I = 77 */
(PID.TID 0000.0001)                 8.781353403175085E+10,      /* I = 78 */
(PID.TID 0000.0001)                 8.948571540392021E+10,      /* I = 79 */
(PID.TID 0000.0001)                 9.049530583086168E+10,      /* I = 80 */
(PID.TID 0000.0001)                 9.083293515008307E+10,      /* I = 81 */
(PID.TID 0000.0001)                 9.049530583087070E+10,      /* I = 82 */
(PID.TID 0000.0001)                 8.948571540391121E+10,      /* I = 83 */
(PID.TID 0000.0001)                 8.781353403174185E+10,      /* I = 84 */
(PID.TID 0000.0001)                 8.549360686467184E+10,      /* I = 85 */
(PID.TID 0000.0001)                 8.254500894890933E+10,      /* I = 86 */
(PID.TID 0000.0001)                 7.898934631434262E+10,      /* I = 87 */
(PID.TID 0000.0001)                 7.484854821844795E+10,      /* I = 88 */
(PID.TID 0000.0001)                 7.014205907742783E+10,      /* I = 89 */
(PID.TID 0000.0001)                 6.488320895111514E+10,      /* I = 90 */
(PID.TID 0000.0001)                 5.907428494299063E+10,      /* I = 91 */
(PID.TID 0000.0001)                 5.269930713599078E+10,      /* I = 92 */
(PID.TID 0000.0001)                 4.571243814190767E+10,      /* I = 93 */
(PID.TID 0000.0001)                 3.801790263325260E+10,      /* I = 94 */
(PID.TID 0000.0001)                 2.943712825251114E+10,      /* I = 95 */
(PID.TID 0000.0001)                 1.974052138509018E+10,      /* I = 96 */
(PID.TID 0000.0001)                 1.216690346714270E+10,      /* I = 97 */
(PID.TID 0000.0001)                 1.974052138506315E+10,      /* I = 98 */
(PID.TID 0000.0001)                 2.943712825252015E+10,      /* I = 99 */
(PID.TID 0000.0001)                 3.801790263324359E+10,      /* I =100 */
(PID.TID 0000.0001)                 4.571243814189866E+10,      /* I =101 */
(PID.TID 0000.0001)                 5.269930713599979E+10,      /* I =102 */
(PID.TID 0000.0001)                 5.907428494299063E+10,      /* I =103 */
(PID.TID 0000.0001)                 6.488320895111514E+10,      /* I =104 */
(PID.TID 0000.0001)                 7.014205907741882E+10,      /* I =105 */
(PID.TID 0000.0001)                 7.484854821847499E+10,      /* I =106 */
(PID.TID 0000.0001)                 7.898934631431560E+10,      /* I =107 */
(PID.TID 0000.0001)                 8.254500894894537E+10,      /* I =108 */
(PID.TID 0000.0001)                 8.549360686473492E+10,      /* I =109 */
(PID.TID 0000.0001)                 8.781353403175085E+10,      /* I =110 */
(PID.TID 0000.0001)                 8.948571540392021E+10,      /* I =111 */
(PID.TID 0000.0001)                 9.049530583086168E+10,      /* I =112 */
(PID.TID 0000.0001)                 9.083293515008307E+10,      /* I =113 */
(PID.TID 0000.0001)                 9.049530583087070E+10,      /* I =114 */
(PID.TID 0000.0001)                 8.948571540391121E+10,      /* I =115 */
(PID.TID 0000.0001)                 8.781353403174185E+10,      /* I =116 */
(PID.TID 0000.0001)                 8.549360686467184E+10,      /* I =117 */
(PID.TID 0000.0001)                 8.254500894890933E+10,      /* I =118 */
(PID.TID 0000.0001)                 7.898934631434262E+10,      /* I =119 */
(PID.TID 0000.0001)                 7.484854821844795E+10,      /* I =120 */
(PID.TID 0000.0001)                 7.014205907742783E+10,      /* I =121 */
(PID.TID 0000.0001)                 6.488320895111514E+10,      /* I =122 */
(PID.TID 0000.0001)                 5.907428494299063E+10,      /* I =123 */
(PID.TID 0000.0001)                 5.269930713599078E+10,      /* I =124 */
(PID.TID 0000.0001)                 4.571243814190767E+10,      /* I =125 */
(PID.TID 0000.0001)                 3.801790263325260E+10,      /* I =126 */
(PID.TID 0000.0001)                 2.943712825251114E+10,      /* I =127 */
(PID.TID 0000.0001)                 1.974052138509018E+10,      /* I =128 */
(PID.TID 0000.0001)                 1.216690346714270E+10,      /* I =129 */
(PID.TID 0000.0001)                 1.974052138506315E+10,      /* I =130 */
(PID.TID 0000.0001)                 2.943712825252015E+10,      /* I =131 */
(PID.TID 0000.0001)                 3.801790263324359E+10,      /* I =132 */
(PID.TID 0000.0001)                 4.571243814189866E+10,      /* I =133 */
(PID.TID 0000.0001)                 5.269930713599979E+10,      /* I =134 */
(PID.TID 0000.0001)                 5.907428494299063E+10,      /* I =135 */
(PID.TID 0000.0001)                 6.488320895111514E+10,      /* I =136 */
(PID.TID 0000.0001)                 7.014205907741882E+10,      /* I =137 */
(PID.TID 0000.0001)                 7.484854821847499E+10,      /* I =138 */
(PID.TID 0000.0001)                 7.898934631431560E+10,      /* I =139 */
(PID.TID 0000.0001)                 8.254500894894537E+10,      /* I =140 */
(PID.TID 0000.0001)                 8.549360686473492E+10,      /* I =141 */
(PID.TID 0000.0001)                 8.781353403175085E+10,      /* I =142 */
(PID.TID 0000.0001)                 8.948571540392021E+10,      /* I =143 */
(PID.TID 0000.0001)                 9.049530583086168E+10,      /* I =144 */
(PID.TID 0000.0001)                 9.083293515008307E+10,      /* I =145 */
(PID.TID 0000.0001)                 9.049530583087070E+10,      /* I =146 */
(PID.TID 0000.0001)                 8.948571540391121E+10,      /* I =147 */
(PID.TID 0000.0001)                 8.781353403174185E+10,      /* I =148 */
(PID.TID 0000.0001)                 8.549360686467184E+10,      /* I =149 */
(PID.TID 0000.0001)                 8.254500894890933E+10,      /* I =150 */
(PID.TID 0000.0001)                 7.898934631434262E+10,      /* I =151 */
(PID.TID 0000.0001)                 7.484854821844795E+10,      /* I =152 */
(PID.TID 0000.0001)                 7.014205907742783E+10,      /* I =153 */
(PID.TID 0000.0001)                 6.488320895111514E+10,      /* I =154 */
(PID.TID 0000.0001)                 5.907428494299063E+10,      /* I =155 */
(PID.TID 0000.0001)                 5.269930713599078E+10,      /* I =156 */
(PID.TID 0000.0001)                 4.571243814190767E+10,      /* I =157 */
(PID.TID 0000.0001)                 3.801790263325260E+10,      /* I =158 */
(PID.TID 0000.0001)                 2.943712825251114E+10,      /* I =159 */
(PID.TID 0000.0001)                 1.974052138509018E+10,      /* I =160 */
(PID.TID 0000.0001)                 1.216690346714270E+10,      /* I =161 */
(PID.TID 0000.0001)                 1.974052138506315E+10,      /* I =162 */
(PID.TID 0000.0001)                 2.943712825252015E+10,      /* I =163 */
(PID.TID 0000.0001)                 3.801790263324359E+10,      /* I =164 */
(PID.TID 0000.0001)                 4.571243814189866E+10,      /* I =165 */
(PID.TID 0000.0001)                 5.269930713599979E+10,      /* I =166 */
(PID.TID 0000.0001)                 5.907428494299063E+10,      /* I =167 */
(PID.TID 0000.0001)                 6.488320895111514E+10,      /* I =168 */
(PID.TID 0000.0001)                 7.014205907741882E+10,      /* I =169 */
(PID.TID 0000.0001)                 7.484854821847499E+10,      /* I =170 */
(PID.TID 0000.0001)                 7.898934631431560E+10,      /* I =171 */
(PID.TID 0000.0001)                 8.254500894894537E+10,      /* I =172 */
(PID.TID 0000.0001)                 8.549360686473492E+10,      /* I =173 */
(PID.TID 0000.0001)                 8.781353403175085E+10,      /* I =174 */
(PID.TID 0000.0001)                 8.948571540392021E+10,      /* I =175 */
(PID.TID 0000.0001)                 9.049530583086168E+10,      /* I =176 */
(PID.TID 0000.0001)                 9.083293515008307E+10,      /* I =177 */
(PID.TID 0000.0001)                 9.049530583087070E+10,      /* I =178 */
(PID.TID 0000.0001)                 8.948571540391121E+10,      /* I =179 */
(PID.TID 0000.0001)                 8.781353403174185E+10,      /* I =180 */
(PID.TID 0000.0001)                 8.549360686467184E+10,      /* I =181 */
(PID.TID 0000.0001)                 8.254500894890933E+10,      /* I =182 */
(PID.TID 0000.0001)                 7.898934631434262E+10,      /* I =183 */
(PID.TID 0000.0001)                 7.484854821844795E+10,      /* I =184 */
(PID.TID 0000.0001)                 7.014205907742783E+10,      /* I =185 */
(PID.TID 0000.0001)                 6.488320895111514E+10,      /* I =186 */
(PID.TID 0000.0001)                 5.907428494299063E+10,      /* I =187 */
(PID.TID 0000.0001)                 5.269930713599078E+10,      /* I =188 */
(PID.TID 0000.0001)                 4.571243814190767E+10,      /* I =189 */
(PID.TID 0000.0001)                 3.801790263325260E+10,      /* I =190 */
(PID.TID 0000.0001)                 2.943712825251114E+10,      /* I =191 */
(PID.TID 0000.0001)                 1.974052138509018E+10       /* I =192 */
(PID.TID 0000.0001)     ;
(PID.TID 0000.0001) rAw =  /* rAw(1,:,1,:) ( units: m^2 ) */
(PID.TID 0000.0001)                 1.216690346714270E+10,      /* J =  1 */
(PID.TID 0000.0001)                 2.390126200743558E+10,      /* J =  2 */
(PID.TID 0000.0001)                 3.341968103208270E+10,      /* J =  3 */
(PID.TID 0000.0001)                 4.168532893152940E+10,      /* J =  4 */
(PID.TID 0000.0001)                 4.909074590409593E+10,      /* J =  5 */
(PID.TID 0000.0001)                 5.581203765722643E+10,      /* J =  6 */
(PID.TID 0000.0001)                 6.193257577506788E+10,      /* J =  7 */
(PID.TID 0000.0001)                 6.748840226738273E+10,      /* J =  8 */
(PID.TID 0000.0001)                 7.248875782324815E+10,      /* J =  9 */
(PID.TID 0000.0001)                 7.692702995909871E+10,      /* J = 10 */
(PID.TID 0000.0001)                 8.078743937057304E+10,      /* J = 11 */
(PID.TID 0000.0001)                 8.404959656062837E+10,      /* J = 12 */
(PID.TID 0000.0001)                 8.669186205742538E+10,      /* J = 13 */
(PID.TID 0000.0001)                 8.869393350723613E+10,      /* J = 14 */
(PID.TID 0000.0001)                 9.003884657168852E+10,      /* J = 15 */
(PID.TID 0000.0001)     2 @  9.071447638299399E+10,             /* J = 16: 17 */
(PID.TID 0000.0001)                 9.003884657168852E+10,      /* J = 18 */
(PID.TID 0000.0001)                 8.869393350723613E+10,      /* J = 19 */
(PID.TID 0000.0001)                 8.669186205742538E+10,      /* J = 20 */
(PID.TID 0000.0001)                 8.404959656062837E+10,      /* J = 21 */
(PID.TID 0000.0001)                 8.078743937057304E+10,      /* J = 22 */
(PID.TID 0000.0001)                 7.692702995909871E+10,      /* J = 23 */
(PID.TID 0000.0001)                 7.248875782324815E+10,      /* J = 24 */
(PID.TID 0000.0001)                 6.748840226738273E+10,      /* J = 25 */
(PID.TID 0000.0001)                 6.193257577506788E+10,      /* J = 26 */
(PID.TID 0000.0001)                 5.581203765722643E+10,      /* J = 27 */
(PID.TID 0000.0001)                 4.909074590409593E+10,      /* J = 28 */
(PID.TID 0000.0001)                 4.168532893152940E+10,      /* J = 29 */
(PID.TID 0000.0001)                 3.341968103208270E+10,      /* J = 30 */
(PID.TID 0000.0001)                 2.390126200743558E+10,      /* J = 31 */
(PID.TID 0000.0001)                 1.216690346714270E+10       /* J = 32 */
(PID.TID 0000.0001)     ;
(PID.TID 0000.0001) rAs =  /* rAs(:,1,:,1) ( units: m^2 ) */
(PID.TID 0000.0001)                 1.216690346714270E+10,      /* I =  1 */
(PID.TID 0000.0001)                 2.390126200743558E+10,      /* I =  2 */
(PID.TID 0000.0001)                 3.341968103208270E+10,      /* I =  3 */
(PID.TID 0000.0001)                 4.168532893152940E+10,      /* I =  4 */
(PID.TID 0000.0001)                 4.909074590409593E+10,      /* I =  5 */
(PID.TID 0000.0001)                 5.581203765722643E+10,      /* I =  6 */
(PID.TID 0000.0001)                 6.193257577506788E+10,      /* I =  7 */
(PID.TID 0000.0001)                 6.748840226738273E+10,      /* I =  8 */
(PID.TID 0000.0001)                 7.248875782324815E+10,      /* I =  9 */
(PID.TID 0000.0001)                 7.692702995909871E+10,      /* I = 10 */
(PID.TID 0000.0001)                 8.078743937057304E+10,      /* I = 11 */
(PID.TID 0000.0001)                 8.404959656062837E+10,      /* I = 12 */
(PID.TID 0000.0001)                 8.669186205742538E+10,      /* I = 13 */
(PID.TID 0000.0001)                 8.869393350723613E+10,      /* I = 14 */
(PID.TID 0000.0001)                 9.003884657168852E+10,      /* I = 15 */
(PID.TID 0000.0001)     2 @  9.071447638299399E+10,             /* I = 16: 17 */
(PID.TID 0000.0001)                 9.003884657168852E+10,      /* I = 18 */
(PID.TID 0000.0001)                 8.869393350723613E+10,      /* I = 19 */
(PID.TID 0000.0001)                 8.669186205742538E+10,      /* I = 20 */
(PID.TID 0000.0001)                 8.404959656062837E+10,      /* I = 21 */
(PID.TID 0000.0001)                 8.078743937057304E+10,      /* I = 22 */
(PID.TID 0000.0001)                 7.692702995909871E+10,      /* I = 23 */
(PID.TID 0000.0001)                 7.248875782324815E+10,      /* I = 24 */
(PID.TID 0000.0001)                 6.748840226738273E+10,      /* I = 25 */
(PID.TID 0000.0001)                 6.193257577506788E+10,      /* I = 26 */
(PID.TID 0000.0001)                 5.581203765722643E+10,      /* I = 27 */
(PID.TID 0000.0001)                 4.909074590409593E+10,      /* I = 28 */
(PID.TID 0000.0001)                 4.168532893152940E+10,      /* I = 29 */
(PID.TID 0000.0001)                 3.341968103208270E+10,      /* I = 30 */
(PID.TID 0000.0001)                 2.390126200743558E+10,      /* I = 31 */
(PID.TID 0000.0001)     2 @  1.216690346714270E+10,             /* I = 32: 33 */
(PID.TID 0000.0001)                 2.390126200743558E+10,      /* I = 34 */
(PID.TID 0000.0001)                 3.341968103208270E+10,      /* I = 35 */
(PID.TID 0000.0001)                 4.168532893152940E+10,      /* I = 36 */
(PID.TID 0000.0001)                 4.909074590409593E+10,      /* I = 37 */
(PID.TID 0000.0001)                 5.581203765722643E+10,      /* I = 38 */
(PID.TID 0000.0001)                 6.193257577506788E+10,      /* I = 39 */
(PID.TID 0000.0001)                 6.748840226738273E+10,      /* I = 40 */
(PID.TID 0000.0001)                 7.248875782324815E+10,      /* I = 41 */
(PID.TID 0000.0001)                 7.692702995909871E+10,      /* I = 42 */
(PID.TID 0000.0001)                 8.078743937057304E+10,      /* I = 43 */
(PID.TID 0000.0001)                 8.404959656062837E+10,      /* I = 44 */
(PID.TID 0000.0001)                 8.669186205742538E+10,      /* I = 45 */
(PID.TID 0000.0001)                 8.869393350723613E+10,      /* I = 46 */
(PID.TID 0000.0001)                 9.003884657168852E+10,      /* I = 47 */
(PID.TID 0000.0001)     2 @  9.071447638299399E+10,             /* I = 48: 49 */
(PID.TID 0000.0001)                 9.003884657168852E+10,      /* I = 50 */
(PID.TID 0000.0001)                 8.869393350723613E+10,      /* I = 51 */
(PID.TID 0000.0001)                 8.669186205742538E+10,      /* I = 52 */
(PID.TID 0000.0001)                 8.404959656062837E+10,      /* I = 53 */
(PID.TID 0000.0001)                 8.078743937057304E+10,      /* I = 54 */
(PID.TID 0000.0001)                 7.692702995909871E+10,      /* I = 55 */
(PID.TID 0000.0001)                 7.248875782324815E+10,      /* I = 56 */
(PID.TID 0000.0001)                 6.748840226738273E+10,      /* I = 57 */
(PID.TID 0000.0001)                 6.193257577506788E+10,      /* I = 58 */
(PID.TID 0000.0001)                 5.581203765722643E+10,      /* I = 59 */
(PID.TID 0000.0001)                 4.909074590409593E+10,      /* I = 60 */
(PID.TID 0000.0001)                 4.168532893152940E+10,      /* I = 61 */
(PID.TID 0000.0001)                 3.341968103208270E+10,      /* I = 62 */
(PID.TID 0000.0001)                 2.390126200743558E+10,      /* I = 63 */
(PID.TID 0000.0001)     2 @  1.216690346714270E+10,             /* I = 64: 65 */
(PID.TID 0000.0001)                 2.390126200743558E+10,      /* I = 66 */
(PID.TID 0000.0001)                 3.341968103208270E+10,      /* I = 67 */
(PID.TID 0000.0001)                 4.168532893152940E+10,      /* I = 68 */
(PID.TID 0000.0001)                 4.909074590409593E+10,      /* I = 69 */
(PID.TID 0000.0001)                 5.581203765722643E+10,      /* I = 70 */
(PID.TID 0000.0001)                 6.193257577506788E+10,      /* I = 71 */
(PID.TID 0000.0001)                 6.748840226738273E+10,      /* I = 72 */
(PID.TID 0000.0001)                 7.248875782324815E+10,      /* I = 73 */
(PID.TID 0000.0001)                 7.692702995909871E+10,      /* I = 74 */
(PID.TID 0000.0001)                 8.078743937057304E+10,      /* I = 75 */
(PID.TID 0000.0001)                 8.404959656062837E+10,      /* I = 76 */
(PID.TID 0000.0001)                 8.669186205742538E+10,      /* I = 77 */
(PID.TID 0000.0001)                 8.869393350723613E+10,      /* I = 78 */
(PID.TID 0000.0001)                 9.003884657168852E+10,      /* I = 79 */
(PID.TID 0000.0001)     2 @  9.071447638299399E+10,             /* I = 80: 81 */
(PID.TID 0000.0001)                 9.003884657168852E+10,      /* I = 82 */
(PID.TID 0000.0001)                 8.869393350723613E+10,      /* I = 83 */
(PID.TID 0000.0001)                 8.669186205742538E+10,      /* I = 84 */
(PID.TID 0000.0001)                 8.404959656062837E+10,      /* I = 85 */
(PID.TID 0000.0001)                 8.078743937057304E+10,      /* I = 86 */
(PID.TID 0000.0001)                 7.692702995909871E+10,      /* I = 87 */
(PID.TID 0000.0001)                 7.248875782324815E+10,      /* I = 88 */
(PID.TID 0000.0001)                 6.748840226738273E+10,      /* I = 89 */
(PID.TID 0000.0001)                 6.193257577506788E+10,      /* I = 90 */
(PID.TID 0000.0001)                 5.581203765722643E+10,      /* I = 91 */
(PID.TID 0000.0001)                 4.909074590409593E+10,      /* I = 92 */
(PID.TID 0000.0001)                 4.168532893152940E+10,      /* I = 93 */
(PID.TID 0000.0001)                 3.341968103208270E+10,      /* I = 94 */
(PID.TID 0000.0001)                 2.390126200743558E+10,      /* I = 95 */
(PID.TID 0000.0001)     2 @  1.216690346714270E+10,             /* I = 96: 97 */
(PID.TID 0000.0001)                 2.390126200743558E+10,      /* I = 98 */
(PID.TID 0000.0001)                 3.341968103208270E+10,      /* I = 99 */
(PID.TID 0000.0001)                 4.168532893152940E+10,      /* I =100 */
(PID.TID 0000.0001)                 4.909074590409593E+10,      /* I =101 */
(PID.TID 0000.0001)                 5.581203765722643E+10,      /* I =102 */
(PID.TID 0000.0001)                 6.193257577506788E+10,      /* I =103 */
(PID.TID 0000.0001)                 6.748840226738273E+10,      /* I =104 */
(PID.TID 0000.0001)                 7.248875782324815E+10,      /* I =105 */
(PID.TID 0000.0001)                 7.692702995909871E+10,      /* I =106 */
(PID.TID 0000.0001)                 8.078743937057304E+10,      /* I =107 */
(PID.TID 0000.0001)                 8.404959656062837E+10,      /* I =108 */
(PID.TID 0000.0001)                 8.669186205742538E+10,      /* I =109 */
(PID.TID 0000.0001)                 8.869393350723613E+10,      /* I =110 */
(PID.TID 0000.0001)                 9.003884657168852E+10,      /* I =111 */
(PID.TID 0000.0001)     2 @  9.071447638299399E+10,             /* I =112:113 */
(PID.TID 0000.0001)                 9.003884657168852E+10,      /* I =114 */
(PID.TID 0000.0001)                 8.869393350723613E+10,      /* I =115 */
(PID.TID 0000.0001)                 8.669186205742538E+10,      /* I =116 */
(PID.TID 0000.0001)                 8.404959656062837E+10,      /* I =117 */
(PID.TID 0000.0001)                 8.078743937057304E+10,      /* I =118 */
(PID.TID 0000.0001)                 7.692702995909871E+10,      /* I =119 */
(PID.TID 0000.0001)                 7.248875782324815E+10,      /* I =120 */
(PID.TID 0000.0001)                 6.748840226738273E+10,      /* I =121 */
(PID.TID 0000.0001)                 6.193257577506788E+10,      /* I =122 */
(PID.TID 0000.0001)                 5.581203765722643E+10,      /* I =123 */
(PID.TID 0000.0001)                 4.909074590409593E+10,      /* I =124 */
(PID.TID 0000.0001)                 4.168532893152940E+10,      /* I =125 */
(PID.TID 0000.0001)                 3.341968103208270E+10,      /* I =126 */
(PID.TID 0000.0001)                 2.390126200743558E+10,      /* I =127 */
(PID.TID 0000.0001)     2 @  1.216690346714270E+10,             /* I =128:129 */
(PID.TID 0000.0001)                 2.390126200743558E+10,      /* I =130 */
(PID.TID 0000.0001)                 3.341968103208270E+10,      /* I =131 */
(PID.TID 0000.0001)                 4.168532893152940E+10,      /* I =132 */
(PID.TID 0000.0001)                 4.909074590409593E+10,      /* I =133 */
(PID.TID 0000.0001)                 5.581203765722643E+10,      /* I =134 */
(PID.TID 0000.0001)                 6.193257577506788E+10,      /* I =135 */
(PID.TID 0000.0001)                 6.748840226738273E+10,      /* I =136 */
(PID.TID 0000.0001)                 7.248875782324815E+10,      /* I =137 */
(PID.TID 0000.0001)                 7.692702995909871E+10,      /* I =138 */
(PID.TID 0000.0001)                 8.078743937057304E+10,      /* I =139 */
(PID.TID 0000.0001)                 8.404959656062837E+10,      /* I =140 */
(PID.TID 0000.0001)                 8.669186205742538E+10,      /* I =141 */
(PID.TID 0000.0001)                 8.869393350723613E+10,      /* I =142 */
(PID.TID 0000.0001)                 9.003884657168852E+10,      /* I =143 */
(PID.TID 0000.0001)     2 @  9.071447638299399E+10,             /* I =144:145 */
(PID.TID 0000.0001)                 9.003884657168852E+10,      /* I =146 */
(PID.TID 0000.0001)                 8.869393350723613E+10,      /* I =147 */
(PID.TID 0000.0001)                 8.669186205742538E+10,      /* I =148 */
(PID.TID 0000.0001)                 8.404959656062837E+10,      /* I =149 */
(PID.TID 0000.0001)                 8.078743937057304E+10,      /* I =150 */
(PID.TID 0000.0001)                 7.692702995909871E+10,      /* I =151 */
(PID.TID 0000.0001)                 7.248875782324815E+10,      /* I =152 */
(PID.TID 0000.0001)                 6.748840226738273E+10,      /* I =153 */
(PID.TID 0000.0001)                 6.193257577506788E+10,      /* I =154 */
(PID.TID 0000.0001)                 5.581203765722643E+10,      /* I =155 */
(PID.TID 0000.0001)                 4.909074590409593E+10,      /* I =156 */
(PID.TID 0000.0001)                 4.168532893152940E+10,      /* I =157 */
(PID.TID 0000.0001)                 3.341968103208270E+10,      /* I =158 */
(PID.TID 0000.0001)                 2.390126200743558E+10,      /* I =159 */
(PID.TID 0000.0001)     2 @  1.216690346714270E+10,             /* I =160:161 */
(PID.TID 0000.0001)                 2.390126200743558E+10,      /* I =162 */
(PID.TID 0000.0001)                 3.341968103208270E+10,      /* I =163 */
(PID.TID 0000.0001)                 4.168532893152940E+10,      /* I =164 */
(PID.TID 0000.0001)                 4.909074590409593E+10,      /* I =165 */
(PID.TID 0000.0001)                 5.581203765722643E+10,      /* I =166 */
(PID.TID 0000.0001)                 6.193257577506788E+10,      /* I =167 */
(PID.TID 0000.0001)                 6.748840226738273E+10,      /* I =168 */
(PID.TID 0000.0001)                 7.248875782324815E+10,      /* I =169 */
(PID.TID 0000.0001)                 7.692702995909871E+10,      /* I =170 */
(PID.TID 0000.0001)                 8.078743937057304E+10,      /* I =171 */
(PID.TID 0000.0001)                 8.404959656062837E+10,      /* I =172 */
(PID.TID 0000.0001)                 8.669186205742538E+10,      /* I =173 */
(PID.TID 0000.0001)                 8.869393350723613E+10,      /* I =174 */
(PID.TID 0000.0001)                 9.003884657168852E+10,      /* I =175 */
(PID.TID 0000.0001)     2 @  9.071447638299399E+10,             /* I =176:177 */
(PID.TID 0000.0001)                 9.003884657168852E+10,      /* I =178 */
(PID.TID 0000.0001)                 8.869393350723613E+10,      /* I =179 */
(PID.TID 0000.0001)                 8.669186205742538E+10,      /* I =180 */
(PID.TID 0000.0001)                 8.404959656062837E+10,      /* I =181 */
(PID.TID 0000.0001)                 8.078743937057304E+10,      /* I =182 */
(PID.TID 0000.0001)                 7.692702995909871E+10,      /* I =183 */
(PID.TID 0000.0001)                 7.248875782324815E+10,      /* I =184 */
(PID.TID 0000.0001)                 6.748840226738273E+10,      /* I =185 */
(PID.TID 0000.0001)                 6.193257577506788E+10,      /* I =186 */
(PID.TID 0000.0001)                 5.581203765722643E+10,      /* I =187 */
(PID.TID 0000.0001)                 4.909074590409593E+10,      /* I =188 */
(PID.TID 0000.0001)                 4.168532893152940E+10,      /* I =189 */
(PID.TID 0000.0001)                 3.341968103208270E+10,      /* I =190 */
(PID.TID 0000.0001)                 2.390126200743558E+10,      /* I =191 */
(PID.TID 0000.0001)                 1.216690346714270E+10       /* I =192 */
(PID.TID 0000.0001)     ;
(PID.TID 0000.0001) rAs =  /* rAs(1,:,1,:) ( units: m^2 ) */
(PID.TID 0000.0001)                 1.216690346714270E+10,      /* J =  1 */
(PID.TID 0000.0001)                 1.974052138506315E+10,      /* J =  2 */
(PID.TID 0000.0001)                 2.943712825252015E+10,      /* J =  3 */
(PID.TID 0000.0001)                 3.801790263324359E+10,      /* J =  4 */
(PID.TID 0000.0001)                 4.571243814189866E+10,      /* J =  5 */
(PID.TID 0000.0001)                 5.269930713599979E+10,      /* J =  6 */
(PID.TID 0000.0001)                 5.907428494299063E+10,      /* J =  7 */
(PID.TID 0000.0001)                 6.488320895111514E+10,      /* J =  8 */
(PID.TID 0000.0001)                 7.014205907741882E+10,      /* J =  9 */
(PID.TID 0000.0001)                 7.484854821847499E+10,      /* J = 10 */
(PID.TID 0000.0001)                 7.898934631431560E+10,      /* J = 11 */
(PID.TID 0000.0001)                 8.254500894894537E+10,      /* J = 12 */
(PID.TID 0000.0001)                 8.549360686473492E+10,      /* J = 13 */
(PID.TID 0000.0001)                 8.781353403175085E+10,      /* J = 14 */
(PID.TID 0000.0001)                 8.948571540392021E+10,      /* J = 15 */
(PID.TID 0000.0001)                 9.049530583086168E+10,      /* J = 16 */
(PID.TID 0000.0001)                 9.083293515008307E+10,      /* J = 17 */
(PID.TID 0000.0001)                 9.049530583087070E+10,      /* J = 18 */
(PID.TID 0000.0001)                 8.948571540391121E+10,      /* J = 19 */
(PID.TID 0000.0001)                 8.781353403174185E+10,      /* J = 20 */
(PID.TID 0000.0001)                 8.549360686467184E+10,      /* J = 21 */
(PID.TID 0000.0001)                 8.254500894890933E+10,      /* J = 22 */
(PID.TID 0000.0001)                 7.898934631434262E+10,      /* J = 23 */
(PID.TID 0000.0001)                 7.484854821844795E+10,      /* J = 24 */
(PID.TID 0000.0001)                 7.014205907742783E+10,      /* J = 25 */
(PID.TID 0000.0001)                 6.488320895111514E+10,      /* J = 26 */
(PID.TID 0000.0001)                 5.907428494299063E+10,      /* J = 27 */
(PID.TID 0000.0001)                 5.269930713599078E+10,      /* J = 28 */
(PID.TID 0000.0001)                 4.571243814190767E+10,      /* J = 29 */
(PID.TID 0000.0001)                 3.801790263325260E+10,      /* J = 30 */
(PID.TID 0000.0001)                 2.943712825251114E+10,      /* J = 31 */
(PID.TID 0000.0001)                 1.974052138509018E+10       /* J = 32 */
(PID.TID 0000.0001)     ;
(PID.TID 0000.0001) globalArea = /* Integrated horizontal Area (m^2) */
(PID.TID 0000.0001)                 3.638867375081598E+14
(PID.TID 0000.0001)     ;
(PID.TID 0000.0001) // =======================================================
(PID.TID 0000.0001) // End of Model config. summary
(PID.TID 0000.0001) // =======================================================
(PID.TID 0000.0001) 
(PID.TID 0000.0001)  MDS_READ_FIELD: opening global file: pickup.0000036000
(PID.TID 0000.0001)  MDS_READ_FIELD: opening global file: pickup.0000036000
(PID.TID 0000.0001)  MDS_READ_FIELD: opening global file: pickup.0000036000
(PID.TID 0000.0001)  MDS_READ_FIELD: opening global file: pickup.0000036000
(PID.TID 0000.0001)  MDS_READ_FIELD: opening global file: pickup.0000036000
(PID.TID 0000.0001)  MDS_READ_FIELD: opening global file: pickup.0000036000
(PID.TID 0000.0001)  MDS_READ_FIELD: opening global file: pickup.0000036000
(PID.TID 0000.0001)  MDS_READ_FIELD: opening global file: pickup.0000036000
(PID.TID 0000.0001)  MDS_READ_FIELD: opening global file: pickup.0000036000
(PID.TID 0000.0001)  MDS_READ_FIELD: opening global file: pickup.0000036000
(PID.TID 0000.0001)  MDS_READ_FIELD: opening global file: pickup.0000036000
(PID.TID 0000.0001)  MDS_READ_FIELD: opening global file: trenberth_taux.bin
(PID.TID 0000.0001)  MDS_READ_FIELD: opening global file: trenberth_tauy.bin
(PID.TID 0000.0001)  MDS_READ_FIELD: opening global file: lev_surfT_cs_12m.bin
(PID.TID 0000.0001)  MDS_READ_FIELD: opening global file: lev_surfS_cs_12m.bin
(PID.TID 0000.0001)  write diagnostics summary to file ioUnit:      6
Iter.Nb:     36000 ; Time(s):  3.1104000000000E+09
------------------------------------------------------------------------
2D/3D diagnostics: Number of lists:     6
------------------------------------------------------------------------
listId=   1 ; file name: surfDiag
 nFlds, nActive,       freq     &   phase        , nLev                 
  12  |  12  |1555200000.000000         0.000000 |   1
 levels:   1
 diag#| name   | ipt  | iMate| kLev| count | mate.C|                    
   23 |ETAN    |    1 |    0 |   1 |     0 |
   24 |ETANSQ  |    2 |    0 |   1 |     0 |
   25 |DETADT2 |    3 |    0 |   1 |     0 |
   67 |PHIBOT  |    4 |    0 |   1 |     0 |
   68 |PHIBOTSQ|    5 |    0 |   1 |     0 |
   72 |oceTAUX |    6 |    0 |   1 |     0 |
   73 |oceTAUY |    7 |    0 |   1 |     0 |
   85 |TFLUX   |    8 |    0 |   1 |     0 |
   86 |SFLUX   |    9 |    0 |   1 |     0 |
   80 |oceFreez|   10 |    0 |   1 |     0 |
   81 |TRELAX  |   11 |    0 |   1 |     0 |
   82 |SRELAX  |   12 |    0 |   1 |     0 |
------------------------------------------------------------------------
listId=   2 ; file name: dynDiag
 nFlds, nActive,       freq     &   phase        , nLev                 
  15  |  15  |1555200000.000000         0.000000 |  15
 levels:   1   2   3   4   5   6   7   8   9  10  11  12  13  14  15
 diag#| name   | ipt  | iMate| kLev| count | mate.C|                    
   30 |UVEL    |   13 |   28 |  15 |     0 |     0 |
   31 |VVEL    |   28 |   13 |  15 |     0 |     0 |
   32 |WVEL    |   43 |    0 |  15 |     0 |
   65 |PHIHYD  |   58 |    0 |  15 |     0 |
   44 |VVELMASS|   73 |   88 |  15 |     0 |     0 |
   43 |UVELMASS|   88 |   73 |  15 |     0 |     0 |
   38 |WVELSQ  |  103 |    0 |  15 |     0 |
   26 |THETA   |  118 |    0 |  15 |     0 |
   46 |UTHMASS |  133 |  148 |  15 |     0 |     0 |
   47 |VTHMASS |  148 |  133 |  15 |     0 |     0 |
   48 |WTHMASS |  163 |    0 |  15 |     0 |
   27 |SALT    |  178 |    0 |  15 |     0 |
   49 |USLTMASS|  193 |  208 |  15 |     0 |     0 |
   50 |VSLTMASS|  208 |  193 |  15 |     0 |     0 |
   51 |WSLTMASS|  223 |    0 |  15 |     0 |
------------------------------------------------------------------------
listId=   3 ; file name: thSIceDiag
 nFlds, nActive,       freq     &   phase        , nLev                 
  16  |  17  |1555200000.000000         0.000000 |   1
 levels:   1
 diag#| name   | ipt  | iMate| kLev| count | mate.C|                    
  187 |SI_Fract|  238 |    0 |   1 |    0(x12) |
  188 |SI_Thick|  250 |  238 |   1 |    0(x12) |
  189 |SI_SnowH|  262 |  238 |   1 |    0(x12) |
  190 |SI_Tsrf |  274 |  238 |   1 |    0(x12) |
  191 |SI_Tice1|  286 |  238 |   1 |    0(x12) |
  192 |SI_Tice2|  298 |  238 |   1 |    0(x12) |
  193 |SI_Qice1|  310 |  250 |   1 |    0(x12) |
  194 |SI_Qice2|  322 |  250 |   1 |    0(x12) |
  195 |SIsnwAge|  334 |    0 |   1 |    0(x12) |
  198 |SIsnwPrc|  346 |  358 |   1 |    0(x12) |
  197 |SIalbedo|  370 |  358 |   1 |    0(x12) |
  201 |SIflx2oc|  382 |    0 |   1 |    0(x12) |
  202 |SIfrw2oc|  394 |    0 |   1 |    0(x12) |
  203 |SIsaltFx|  406 |    0 |   1 |    0(x12) |
  199 |SIflxAtm|  418 |    0 |   1 |    0(x12) |
  200 |SIfrwAtm|  430 |    0 |   1 |    0(x12) |
  196 |SI_FrcFx|  358 |    0 |   1 |    0(x12) |
------------------------------------------------------------------------
listId=   4 ; file name: surfInst
 nFlds, nActive,       freq     &   phase        , nLev                 
   2  |   2  |   -777600.000000         0.000000 |   1
 levels:   1
 diag#| name   | ipt  | iMate| kLev| count | mate.C|                    
   23 |ETAN    |  442 |    0 |   1 |     0 |
   76 |oceFWflx|  443 |    0 |   1 |     0 |
------------------------------------------------------------------------
listId=   5 ; file name: etaInst
 nFlds, nActive,       freq     &   phase        , nLev                 
   1  |   1  |   -777600.000000     86400.000000 |   1
 levels:   1
 diag#| name   | ipt  | iMate| kLev| count | mate.C|                    
   23 |ETAN    |  444 |    0 |   1 |     0 |
------------------------------------------------------------------------
listId=   6 ; file name: dynInst
 nFlds, nActive,       freq     &   phase        , nLev                 
   2  |   2  |   -777600.000000         0.000000 |  15
 levels:   1   2   3   4   5   6   7   8   9  10  11  12  13  14  15
 diag#| name   | ipt  | iMate| kLev| count | mate.C|                    
   26 |THETA   |  445 |    0 |  15 |     0 |
   27 |SALT    |  460 |    0 |  15 |     0 |
------------------------------------------------------------------------
Global & Regional Statistics diagnostics: Number of lists:     4
------------------------------------------------------------------------
listId=   1 ; file name: dynStDiag
 nFlds, nActive,       freq     &   phase        |                      
   6  |   6  |    864000.000000         0.000000 |
 Regions:   0
 diag#| name   | ipt  | iMate|    Volume   |   mate-Vol. |              
   23 |ETAN    |    1 |    0 | 0.00000E+00 |
   24 |ETANSQ  |    2 |    0 | 0.00000E+00 |
   25 |DETADT2 |    3 |    0 | 0.00000E+00 |
   26 |THETA   |    4 |    0 | 0.00000E+00 |
   27 |SALT    |   19 |    0 | 0.00000E+00 |
   71 |CONVADJ |   34 |    0 | 0.00000E+00 |
------------------------------------------------------------------------
listId=   2 ; file name: surfStDiag
 nFlds, nActive,       freq     &   phase        |                      
  11  |  11  |    777600.000000     86400.000000 |
 Regions:   0
 diag#| name   | ipt  | iMate|    Volume   |   mate-Vol. |              
   72 |oceTAUX |   49 |    0 | 0.00000E+00 |
   73 |oceTAUY |   50 |    0 | 0.00000E+00 |
   81 |TRELAX  |   51 |    0 | 0.00000E+00 |
   82 |SRELAX  |   52 |    0 | 0.00000E+00 |
   83 |surForcT|   53 |    0 | 0.00000E+00 |
   84 |surForcS|   54 |    0 | 0.00000E+00 |
   85 |TFLUX   |   55 |    0 | 0.00000E+00 |
   86 |SFLUX   |   56 |    0 | 0.00000E+00 |
   78 |oceQnet |   57 |    0 | 0.00000E+00 |
   77 |oceSflux|   58 |    0 | 0.00000E+00 |
   76 |oceFWflx|   59 |    0 | 0.00000E+00 |
------------------------------------------------------------------------
listId=   3 ; file name: instStDiag
 nFlds, nActive,       freq     &   phase        |                      
   3  |   3  |   -777600.000000     86400.000000 |
 Regions:   0
 diag#| name   | ipt  | iMate|    Volume   |   mate-Vol. |              
   23 |ETAN    |   60 |    0 | 0.00000E+00 |
   26 |THETA   |   61 |    0 | 0.00000E+00 |
   27 |SALT    |   76 |    0 | 0.00000E+00 |
------------------------------------------------------------------------
listId=   4 ; file name: thSIceStDiag
 nFlds, nActive,       freq     &   phase        |                      
  16  |  17  |    864000.000000         0.000000 |
 Regions:   0  1  3
 diag#| name   | ipt  | iMate|    Volume   |   mate-Vol. |              
  187 |SI_Fract|   91 |    0 | 0.00000E+00 |
  188 |SI_Thick|   92 |   91 | 0.00000E+00 | 0.00000E+00 |
  189 |SI_SnowH|   93 |   91 | 0.00000E+00 | 0.00000E+00 |
  190 |SI_Tsrf |   94 |   91 | 0.00000E+00 | 0.00000E+00 |
  191 |SI_Tice1|   95 |   91 | 0.00000E+00 | 0.00000E+00 |
  192 |SI_Tice2|   96 |   91 | 0.00000E+00 | 0.00000E+00 |
  193 |SI_Qice1|   97 |   92 | 0.00000E+00 | 0.00000E+00 |
  194 |SI_Qice2|   98 |   92 | 0.00000E+00 | 0.00000E+00 |
  198 |SIsnwPrc|   99 |  100 | 0.00000E+00 | 0.00000E+00 |
  197 |SIalbedo|  101 |  100 | 0.00000E+00 | 0.00000E+00 |
  195 |SIsnwAge|  102 |    0 | 0.00000E+00 |
  201 |SIflx2oc|  103 |    0 | 0.00000E+00 |
  202 |SIfrw2oc|  104 |    0 | 0.00000E+00 |
  203 |SIsaltFx|  105 |    0 | 0.00000E+00 |
  199 |SIflxAtm|  106 |    0 | 0.00000E+00 |
  200 |SIfrwAtm|  107 |    0 | 0.00000E+00 |
  196 |SI_FrcFx|  100 |    0 | 0.00000E+00 |
------------------------------------------------------------------------
(PID.TID 0000.0001)  MDS_READ_FIELD: opening global file: pickup_ic.0000036000
(PID.TID 0000.0001)  MDS_READ_FIELD: opening global file: pickup_ic.0000036000
(PID.TID 0000.0001)  MDS_READ_FIELD: opening global file: pickup_ic.0000036000
(PID.TID 0000.0001)  MDS_READ_FIELD: opening global file: pickup_ic.0000036000
(PID.TID 0000.0001)  MDS_READ_FIELD: opening global file: pickup_ic.0000036000
(PID.TID 0000.0001)  MDS_READ_FIELD: opening global file: pickup_ic.0000036000
(PID.TID 0000.0001)  MDS_READ_FIELD: opening global file: pickup_ic.0000036000
(PID.TID 0000.0001)  MDS_READ_FIELD: opening global file: pickup_ic.0000036000
(PID.TID 0000.0001)  MDS_READ_FIELD: opening global file: pickup_ic.0000036000
(PID.TID 0000.0001) // =======================================================
(PID.TID 0000.0001) // Model current state
(PID.TID 0000.0001) // =======================================================
(PID.TID 0000.0001) 
(PID.TID 0000.0001) // =======================================================
(PID.TID 0000.0001) // Begin MONITOR dynamic field statistics
(PID.TID 0000.0001) // =======================================================
(PID.TID 0000.0001) %MON time_tsnumber                =                 36000
(PID.TID 0000.0001) %MON time_secondsf                =   3.1104000000000E+09
(PID.TID 0000.0001) %MON dynstat_eta_max              =   7.3500434503471E-01
(PID.TID 0000.0001) %MON dynstat_eta_min              =  -1.1986891348601E+01
(PID.TID 0000.0001) %MON dynstat_eta_mean             =  -5.8045564487853E-01
(PID.TID 0000.0001) %MON dynstat_eta_sd               =   1.6994311255501E+00
(PID.TID 0000.0001) %MON dynstat_eta_del2             =   9.6453306471101E-02
(PID.TID 0000.0001) %MON dynstat_uvel_max             =   1.7235154042170E-01
(PID.TID 0000.0001) %MON dynstat_uvel_min             =  -2.7145887709522E-01
(PID.TID 0000.0001) %MON dynstat_uvel_mean            =  -5.2887824837157E-04
(PID.TID 0000.0001) %MON dynstat_uvel_sd              =   1.2989468965472E-02
(PID.TID 0000.0001) %MON dynstat_uvel_del2            =   1.7920186340225E-03
(PID.TID 0000.0001) %MON dynstat_vvel_max             =   1.9306786753954E-01
(PID.TID 0000.0001) %MON dynstat_vvel_min             =  -2.1050631286072E-01
(PID.TID 0000.0001) %MON dynstat_vvel_mean            =  -4.2470116939793E-04
(PID.TID 0000.0001) %MON dynstat_vvel_sd              =   1.3472945317820E-02
(PID.TID 0000.0001) %MON dynstat_vvel_del2            =   1.8319026986974E-03
(PID.TID 0000.0001) %MON dynstat_wvel_max             =   8.3888727589247E-05
(PID.TID 0000.0001) %MON dynstat_wvel_min             =  -1.7681850941337E-04
(PID.TID 0000.0001) %MON dynstat_wvel_mean            =  -1.2631701181818E-09
(PID.TID 0000.0001) %MON dynstat_wvel_sd              =   4.6274614748344E-06
(PID.TID 0000.0001) %MON dynstat_wvel_del2            =   1.1378775396729E-06
(PID.TID 0000.0001) %MON dynstat_theta_max            =   3.0162021109834E+01
(PID.TID 0000.0001) %MON dynstat_theta_min            =  -5.5087736803077E+00
(PID.TID 0000.0001) %MON dynstat_theta_mean           =   3.5027154873320E+00
(PID.TID 0000.0001) %MON dynstat_theta_sd             =   4.7490175075967E+00
(PID.TID 0000.0001) %MON dynstat_theta_del2           =   9.5106365389722E-02
(PID.TID 0000.0001) %MON dynstat_salt_max             =   4.0815425249776E+01
(PID.TID 0000.0001) %MON dynstat_salt_min             =   1.8030178312691E+01
(PID.TID 0000.0001) %MON dynstat_salt_mean            =   3.4756092396968E+01
(PID.TID 0000.0001) %MON dynstat_salt_sd              =   5.1193688315107E-01
(PID.TID 0000.0001) %MON dynstat_salt_del2            =   2.0020089713970E-02
(PID.TID 0000.0001) %MON extforcing_qnet_max          =   0.0000000000000E+00
(PID.TID 0000.0001) %MON extforcing_qnet_min          =   0.0000000000000E+00
(PID.TID 0000.0001) %MON extforcing_qnet_mean         =   0.0000000000000E+00
(PID.TID 0000.0001) %MON extforcing_qnet_sd           =   0.0000000000000E+00
(PID.TID 0000.0001) %MON extforcing_qnet_del2         =   0.0000000000000E+00
(PID.TID 0000.0001) %MON extforcing_qsw_max           =   0.0000000000000E+00
(PID.TID 0000.0001) %MON extforcing_qsw_min           =   0.0000000000000E+00
(PID.TID 0000.0001) %MON extforcing_qsw_mean          =   0.0000000000000E+00
(PID.TID 0000.0001) %MON extforcing_qsw_sd            =   0.0000000000000E+00
(PID.TID 0000.0001) %MON extforcing_qsw_del2          =   0.0000000000000E+00
(PID.TID 0000.0001) %MON extforcing_empmr_max         =   0.0000000000000E+00
(PID.TID 0000.0001) %MON extforcing_empmr_min         =   0.0000000000000E+00
(PID.TID 0000.0001) %MON extforcing_empmr_mean        =   0.0000000000000E+00
(PID.TID 0000.0001) %MON extforcing_empmr_sd          =   0.0000000000000E+00
(PID.TID 0000.0001) %MON extforcing_empmr_del2        =   0.0000000000000E+00
(PID.TID 0000.0001) %MON extforcing_fu_max            =   2.4892781143428E-01
(PID.TID 0000.0001) %MON extforcing_fu_min            =  -2.1535754027523E-01
(PID.TID 0000.0001) %MON extforcing_fu_mean           =  -1.5044401616678E-03
(PID.TID 0000.0001) %MON extforcing_fu_sd             =   6.2251894339929E-02
(PID.TID 0000.0001) %MON extforcing_fu_del2           =   3.5863906188079E-03
(PID.TID 0000.0001) %MON extforcing_fv_max            =   2.9305960402537E-01
(PID.TID 0000.0001) %MON extforcing_fv_min            =  -3.3950131228473E-01
(PID.TID 0000.0001) %MON extforcing_fv_mean           =  -5.6789986032871E-03
(PID.TID 0000.0001) %MON extforcing_fv_sd             =   7.0480050409315E-02
(PID.TID 0000.0001) %MON extforcing_fv_del2           =   3.5172812437129E-03
(PID.TID 0000.0001) %MON advcfl_uvel_max              =   7.6990886762546E-02
(PID.TID 0000.0001) %MON advcfl_vvel_max              =   8.4155563479013E-02
(PID.TID 0000.0001) %MON advcfl_wvel_max              =   5.7649506465342E-02
(PID.TID 0000.0001) %MON advcfl_W_hf_max              =   1.3178433447991E-01
(PID.TID 0000.0001) %MON pe_b_mean                    =   4.2969665467446E-03
(PID.TID 0000.0001) %MON ke_max                       =   3.6920742855791E-02
(PID.TID 0000.0001) %MON ke_mean                      =   1.6194090277160E-04
(PID.TID 0000.0001) %MON ke_vol                       =   1.3395912415612E+18
(PID.TID 0000.0001) %MON vort_r_min                   =  -1.2103928619458E-06
(PID.TID 0000.0001) %MON vort_r_max                   =   1.3658356323918E-06
(PID.TID 0000.0001) %MON vort_a_mean                  =  -2.0493733748264E-05
(PID.TID 0000.0001) %MON vort_a_sd                    =   7.5054014221264E-05
(PID.TID 0000.0001) %MON vort_p_mean                  =  -2.4719485005016E-05
(PID.TID 0000.0001) %MON vort_p_sd                    =   1.2782267184684E-04
(PID.TID 0000.0001) %MON surfExpan_theta_mean         =   8.4664546923379E-08
(PID.TID 0000.0001) %MON surfExpan_salt_mean          =   2.0573162615946E-08
(PID.TID 0000.0001) // =======================================================
(PID.TID 0000.0001) // End MONITOR dynamic field statistics
(PID.TID 0000.0001) // =======================================================
(PID.TID 0000.0001) // =======================================================
(PID.TID 0000.0001) // Begin MONITOR Therm.SeaIce statistics
(PID.TID 0000.0001) // =======================================================
(PID.TID 0000.0001) %MON thSI_time_sec                =   3.1104000000000E+09
(PID.TID 0000.0001) %MON thSI_Ice_Area_G              =   2.4716044426698E+13
(PID.TID 0000.0001) %MON thSI_Ice_Area_S              =   1.2123515471256E+13
(PID.TID 0000.0001) %MON thSI_Ice_Area_N              =   1.2592528955442E+13
(PID.TID 0000.0001) %MON thSI_IceH_ave_G              =   4.5665991101486E+00
(PID.TID 0000.0001) %MON thSI_IceH_ave_S              =   5.6548113929333E+00
(PID.TID 0000.0001) %MON thSI_IceH_ave_N              =   3.5189177037341E+00
(PID.TID 0000.0001) %MON thSI_IceH_max_S              =   1.0000000000000E+01
(PID.TID 0000.0001) %MON thSI_IceH_max_N              =   1.0000000000000E+01
(PID.TID 0000.0001) %MON thSI_SnwH_ave_G              =   1.0642325960795E+00
(PID.TID 0000.0001) %MON thSI_SnwH_ave_S              =   1.8039252994821E+00
(PID.TID 0000.0001) %MON thSI_SnwH_ave_N              =   3.5209002603598E-01
(PID.TID 0000.0001) %MON thSI_SnwH_max_S              =   4.0920173287519E+00
(PID.TID 0000.0001) %MON thSI_SnwH_max_N              =   4.0933581672150E+00
(PID.TID 0000.0001) %MON thSI_TotEnerg_G              =  -3.7927617991529E+22
(PID.TID 0000.0001) %MON thSI_Tsrf_ave_G              =  -1.6644740861567E+01
(PID.TID 0000.0001) %MON thSI_Tsrf_ave_S              =  -1.2271804409750E-01
(PID.TID 0000.0001) %MON thSI_Tsrf_ave_N              =  -3.2551394715834E+01
(PID.TID 0000.0001) %MON thSI_Tsrf_min_S              =  -5.2879155123950E+00
(PID.TID 0000.0001) %MON thSI_Tsrf_min_N              =  -4.6099403861095E+01
(PID.TID 0000.0001) %MON thSI_Tsrf_max_S              =   0.0000000000000E+00
(PID.TID 0000.0001) %MON thSI_Tsrf_max_N              =  -1.7223298637424E+00
(PID.TID 0000.0001) %MON thSI_Tic1_ave_G              =  -8.3503593345479E+00
(PID.TID 0000.0001) %MON thSI_Tic1_ave_S              =  -5.1859254669298E+00
(PID.TID 0000.0001) %MON thSI_Tic1_ave_N              =  -1.3246125323351E+01
(PID.TID 0000.0001) %MON thSI_Tic1_min_S              =  -1.7372153208148E+01
(PID.TID 0000.0001) %MON thSI_Tic1_min_N              =  -2.0584120855350E+01
(PID.TID 0000.0001) %MON thSI_Tic1_max_S              =  -1.5363024655854E-01
(PID.TID 0000.0001) %MON thSI_Tic1_max_N              =  -5.8630083767312E-01
(PID.TID 0000.0001) %MON thSI_Tic2_ave_G              =  -3.7701031784537E+00
(PID.TID 0000.0001) %MON thSI_Tic2_ave_S              =  -3.1173552909385E+00
(PID.TID 0000.0001) %MON thSI_Tic2_ave_N              =  -4.7799839472262E+00
(PID.TID 0000.0001) %MON thSI_Tic2_min_S              =  -8.8326933331569E+00
(PID.TID 0000.0001) %MON thSI_Tic2_min_N              =  -7.3985906582730E+00
(PID.TID 0000.0001) %MON thSI_Tic2_max_S              =  -1.1778332319913E+00
(PID.TID 0000.0001) %MON thSI_Tic2_max_N              =  -1.1561961802541E+00
(PID.TID 0000.0001) // =======================================================
(PID.TID 0000.0001) // End MONITOR Therm.SeaIce statistics
(PID.TID 0000.0001) // =======================================================
S/R BULKF_FIELDS_LOAD: Reading new data:   12    1     36000  3.110400000000E+09
(PID.TID 0000.0001)  MDS_READ_FIELD: opening global file: ncep_tair_cs.bin
(PID.TID 0000.0001)  MDS_READ_FIELD: opening global file: ncep_tair_cs.bin
(PID.TID 0000.0001)  MDS_READ_FIELD: opening global file: ncep_qair_cs.bin
(PID.TID 0000.0001)  MDS_READ_FIELD: opening global file: ncep_qair_cs.bin
(PID.TID 0000.0001)  MDS_READ_FIELD: opening global file: ncep_downsolar_cs.bin
(PID.TID 0000.0001)  MDS_READ_FIELD: opening global file: ncep_downsolar_cs.bin
(PID.TID 0000.0001)  MDS_READ_FIELD: opening global file: ncep_downlw_cs.bin
(PID.TID 0000.0001)  MDS_READ_FIELD: opening global file: ncep_downlw_cs.bin
(PID.TID 0000.0001)  MDS_READ_FIELD: opening global file: ncep_windspeed_cs.bin
(PID.TID 0000.0001)  MDS_READ_FIELD: opening global file: ncep_windspeed_cs.bin
(PID.TID 0000.0001)  MDS_READ_FIELD: opening global file: ncep_pr_scal_cs.bin
(PID.TID 0000.0001)  MDS_READ_FIELD: opening global file: ncep_pr_scal_cs.bin
S/R EXTERNAL_FIELDS_LOAD: Reading new data:   12    1     36000  3.110400000000E+09
(PID.TID 0000.0001)  MDS_READ_FIELD: opening global file: trenberth_taux.bin
(PID.TID 0000.0001)  MDS_READ_FIELD: opening global file: trenberth_taux.bin
(PID.TID 0000.0001)  MDS_READ_FIELD: opening global file: trenberth_tauy.bin
(PID.TID 0000.0001)  MDS_READ_FIELD: opening global file: trenberth_tauy.bin
(PID.TID 0000.0001)  MDS_READ_FIELD: opening global file: lev_surfT_cs_12m.bin
(PID.TID 0000.0001)  MDS_READ_FIELD: opening global file: lev_surfT_cs_12m.bin
(PID.TID 0000.0001)  MDS_READ_FIELD: opening global file: lev_surfS_cs_12m.bin
(PID.TID 0000.0001)  MDS_READ_FIELD: opening global file: lev_surfS_cs_12m.bin
 cg2d: Sum(rhs),rhsMax =   3.91124147393779E+02  2.29216072944605E+02
(PID.TID 0000.0001)                    cg2d_init_res =    1.95245667540820E+01
(PID.TID 0000.0001)                       cg2d_iters =    73
(PID.TID 0000.0001)                         cg2d_res =    5.23005804874548E-07
(PID.TID 0000.0001) // =======================================================
(PID.TID 0000.0001) // Begin MONITOR dynamic field statistics
(PID.TID 0000.0001) // =======================================================
(PID.TID 0000.0001) %MON time_tsnumber                =                 36001
(PID.TID 0000.0001) %MON time_secondsf                =   3.1104864000000E+09
(PID.TID 0000.0001) %MON dynstat_eta_max              =   7.3364165341408E-01
(PID.TID 0000.0001) %MON dynstat_eta_min              =  -1.1985262894562E+01
(PID.TID 0000.0001) %MON dynstat_eta_mean             =  -5.8173577486366E-01
(PID.TID 0000.0001) %MON dynstat_eta_sd               =   1.7025641884617E+00
(PID.TID 0000.0001) %MON dynstat_eta_del2             =   9.7519223594878E-02
(PID.TID 0000.0001) %MON dynstat_uvel_max             =   1.7283785318517E-01
(PID.TID 0000.0001) %MON dynstat_uvel_min             =  -2.7114247820260E-01
(PID.TID 0000.0001) %MON dynstat_uvel_mean            =  -5.2855026361210E-04
(PID.TID 0000.0001) %MON dynstat_uvel_sd              =   1.2989432141383E-02
(PID.TID 0000.0001) %MON dynstat_uvel_del2            =   1.7920769732291E-03
(PID.TID 0000.0001) %MON dynstat_vvel_max             =   1.9354675235086E-01
(PID.TID 0000.0001) %MON dynstat_vvel_min             =  -2.1061392969854E-01
(PID.TID 0000.0001) %MON dynstat_vvel_mean            =  -4.2479012910736E-04
(PID.TID 0000.0001) %MON dynstat_vvel_sd              =   1.3474904197674E-02
(PID.TID 0000.0001) %MON dynstat_vvel_del2            =   1.8307943717561E-03
(PID.TID 0000.0001) %MON dynstat_wvel_max             =   8.3986354703264E-05
(PID.TID 0000.0001) %MON dynstat_wvel_min             =  -1.7706104098023E-04
(PID.TID 0000.0001) %MON dynstat_wvel_mean            =   1.7948601956310E-09
(PID.TID 0000.0001) %MON dynstat_wvel_sd              =   4.6313122455053E-06
(PID.TID 0000.0001) %MON dynstat_wvel_del2            =   1.1408303112376E-06
(PID.TID 0000.0001) %MON dynstat_theta_max            =   3.0143976125245E+01
(PID.TID 0000.0001) %MON dynstat_theta_min            =  -4.0277854238068E+00
(PID.TID 0000.0001) %MON dynstat_theta_mean           =   3.5028311133119E+00
(PID.TID 0000.0001) %MON dynstat_theta_sd             =   4.7489713587739E+00
(PID.TID 0000.0001) %MON dynstat_theta_del2           =   9.5138104803002E-02
(PID.TID 0000.0001) %MON dynstat_salt_max             =   4.0818099758806E+01
(PID.TID 0000.0001) %MON dynstat_salt_min             =   1.8030808752363E+01
(PID.TID 0000.0001) %MON dynstat_salt_mean            =   3.4756104197751E+01
(PID.TID 0000.0001) %MON dynstat_salt_sd              =   5.1189177089368E-01
(PID.TID 0000.0001) %MON dynstat_salt_del2            =   2.0064849347585E-02
(PID.TID 0000.0001) %MON extforcing_qnet_max          =   7.7549616936275E+02
(PID.TID 0000.0001) %MON extforcing_qnet_min          =  -8.9676147940171E+03
(PID.TID 0000.0001) %MON extforcing_qnet_mean         =  -1.4533423828233E+01
(PID.TID 0000.0001) %MON extforcing_qnet_sd           =   2.3414680962637E+02
(PID.TID 0000.0001) %MON extforcing_qnet_del2         =   2.1997419213374E+01
(PID.TID 0000.0001) %MON extforcing_qsw_max           =   0.0000000000000E+00
(PID.TID 0000.0001) %MON extforcing_qsw_min           =  -3.4195662119167E+02
(PID.TID 0000.0001) %MON extforcing_qsw_mean          =  -1.8643093634317E+02
(PID.TID 0000.0001) %MON extforcing_qsw_sd            =   8.0933736225501E+01
(PID.TID 0000.0001) %MON extforcing_qsw_del2          =   3.8957491043607E+00
(PID.TID 0000.0001) %MON extforcing_empmr_max         =   2.6554484665544E-05
(PID.TID 0000.0001) %MON extforcing_empmr_min         =  -4.0448513424106E-07
(PID.TID 0000.0001) %MON extforcing_empmr_mean        =   1.5334890446833E-08
(PID.TID 0000.0001) %MON extforcing_empmr_sd          =   5.1034112588092E-07
(PID.TID 0000.0001) %MON extforcing_empmr_del2        =   2.5824317591198E-08
(PID.TID 0000.0001) %MON extforcing_fu_max            =   2.4760613571392E-01
(PID.TID 0000.0001) %MON extforcing_fu_min            =  -1.9244755495625E-01
(PID.TID 0000.0001) %MON extforcing_fu_mean           =  -1.4713067633654E-03
(PID.TID 0000.0001) %MON extforcing_fu_sd             =   6.1390754177136E-02
(PID.TID 0000.0001) %MON extforcing_fu_del2           =   3.3540311124505E-03
(PID.TID 0000.0001) %MON extforcing_fv_max            =   2.5281098043587E-01
(PID.TID 0000.0001) %MON extforcing_fv_min            =  -3.2691992401999E-01
(PID.TID 0000.0001) %MON extforcing_fv_mean           =  -4.7616642545506E-03
(PID.TID 0000.0001) %MON extforcing_fv_sd             =   6.7215108136440E-02
(PID.TID 0000.0001) %MON extforcing_fv_del2           =   3.3046708266940E-03
(PID.TID 0000.0001) %MON advcfl_uvel_max              =   7.6901150034929E-02
(PID.TID 0000.0001) %MON advcfl_vvel_max              =   8.4364302621637E-02
(PID.TID 0000.0001) %MON advcfl_wvel_max              =   8.8668887926684E-02
(PID.TID 0000.0001) %MON advcfl_W_hf_max              =   1.3123583026053E-01
(PID.TID 0000.0001) %MON pe_b_mean                    =  -1.9289699760956E-03
(PID.TID 0000.0001) %MON ke_max                       =   3.6816950962943E-02
(PID.TID 0000.0001) %MON ke_mean                      =   1.6196482659889E-04
(PID.TID 0000.0001) %MON ke_vol                       =   1.3395912252519E+18
(PID.TID 0000.0001) %MON vort_r_min                   =  -1.2135055972859E-06
(PID.TID 0000.0001) %MON vort_r_max                   =   1.3680147959193E-06
(PID.TID 0000.0001) %MON vort_a_mean                  =  -2.0493733748264E-05
(PID.TID 0000.0001) %MON vort_a_sd                    =   7.5054014056509E-05
(PID.TID 0000.0001) %MON vort_p_mean                  =  -2.4719484734269E-05
(PID.TID 0000.0001) %MON vort_p_sd                    =   1.2782267838298E-04
(PID.TID 0000.0001) %MON surfExpan_theta_mean         =   3.3810850787777E-08
(PID.TID 0000.0001) %MON surfExpan_salt_mean          =   7.5911499754496E-10
(PID.TID 0000.0001) // =======================================================
(PID.TID 0000.0001) // End MONITOR dynamic field statistics
(PID.TID 0000.0001) // =======================================================
(PID.TID 0000.0001) // =======================================================
(PID.TID 0000.0001) // Begin MONITOR Therm.SeaIce statistics
(PID.TID 0000.0001) // =======================================================
(PID.TID 0000.0001) %MON thSI_time_sec                =   3.1104864000000E+09
(PID.TID 0000.0001) %MON thSI_Ice_Area_G              =   2.4715899463533E+13
(PID.TID 0000.0001) %MON thSI_Ice_Area_S              =   1.2052978232366E+13
(PID.TID 0000.0001) %MON thSI_Ice_Area_N              =   1.2662921231167E+13
(PID.TID 0000.0001) %MON thSI_IceH_ave_G              =   4.5887977617477E+00
(PID.TID 0000.0001) %MON thSI_IceH_ave_S              =   5.6855378974135E+00
(PID.TID 0000.0001) %MON thSI_IceH_ave_N              =   3.5448850073031E+00
(PID.TID 0000.0001) %MON thSI_IceH_max_S              =   1.0000000000000E+01
(PID.TID 0000.0001) %MON thSI_IceH_max_N              =   1.0000000000000E+01
(PID.TID 0000.0001) %MON thSI_SnwH_ave_G              =   1.0595684379609E+00
(PID.TID 0000.0001) %MON thSI_SnwH_ave_S              =   1.8018484841387E+00
(PID.TID 0000.0001) %MON thSI_SnwH_ave_N              =   3.5304226792669E-01
(PID.TID 0000.0001) %MON thSI_SnwH_max_S              =   4.0985942889861E+00
(PID.TID 0000.0001) %MON thSI_SnwH_max_N              =   4.1095075267918E+00
(PID.TID 0000.0001) %MON thSI_TotEnerg_G              =  -3.8086152333288E+22
(PID.TID 0000.0001) %MON thSI_Tsrf_ave_G              =  -1.6741638338879E+01
(PID.TID 0000.0001) %MON thSI_Tsrf_ave_S              =  -1.0609316728396E-01
(PID.TID 0000.0001) %MON thSI_Tsrf_ave_N              =  -3.2575888602023E+01
(PID.TID 0000.0001) %MON thSI_Tsrf_min_S              =  -5.3043441467213E+00
(PID.TID 0000.0001) %MON thSI_Tsrf_min_N              =  -4.6213990021686E+01
(PID.TID 0000.0001) %MON thSI_Tsrf_max_S              =   0.0000000000000E+00
(PID.TID 0000.0001) %MON thSI_Tsrf_max_N              =  -6.7474323125520E+00
(PID.TID 0000.0001) %MON thSI_Tic1_ave_G              =  -8.3522329403732E+00
(PID.TID 0000.0001) %MON thSI_Tic1_ave_S              =  -5.1622939582526E+00
(PID.TID 0000.0001) %MON thSI_Tic1_ave_N              =  -1.3222045548506E+01
(PID.TID 0000.0001) %MON thSI_Tic1_min_S              =  -1.7216897768510E+01
(PID.TID 0000.0001) %MON thSI_Tic1_min_N              =  -2.0666395739877E+01
(PID.TID 0000.0001) %MON thSI_Tic1_max_S              =  -2.1831092533945E-01
(PID.TID 0000.0001) %MON thSI_Tic1_max_N              =  -5.9497842414135E-01
(PID.TID 0000.0001) %MON thSI_Tic2_ave_G              =  -3.7741871325020E+00
(PID.TID 0000.0001) %MON thSI_Tic2_ave_S              =  -3.1128413022997E+00
(PID.TID 0000.0001) %MON thSI_Tic2_ave_N              =  -4.7838084074877E+00
(PID.TID 0000.0001) %MON thSI_Tic2_min_S              =  -8.8094598422842E+00
(PID.TID 0000.0001) %MON thSI_Tic2_min_N              =  -7.4380986141887E+00
(PID.TID 0000.0001) %MON thSI_Tic2_max_S              =  -1.1539915958877E+00
(PID.TID 0000.0001) %MON thSI_Tic2_max_N              =  -1.1753502729289E+00
(PID.TID 0000.0001) // =======================================================
(PID.TID 0000.0001) // End MONITOR Therm.SeaIce statistics
(PID.TID 0000.0001) // =======================================================
 Computing Diagnostic #  23  ETAN         Counter:       1   Parms: SM      M1      
 Computing Diagnostic #  76  oceFWflx     Counter:       1   Parms: SM      U1      
 Computing Diagnostic #  26  THETA        Counter:       1   Parms: SM      MR      
 Computing Diagnostic #  27  SALT         Counter:       1   Parms: SM      MR      
 Compute Stats, Diag. #  72  oceTAUX   vol(  0 ): 3.457E+14  Parms: SU      U1      
 Compute Stats, Diag. #  73  oceTAUY   vol(  0 ): 3.478E+14  Parms: SV      U1      
 Compute Stats, Diag. #  81  TRELAX    vol(  0 ): 3.639E+14  Parms: SM      U1      
 Compute Stats, Diag. #  82  SRELAX    vol(  0 ): 3.639E+14  Parms: SM      U1      
 Compute Stats, Diag. #  83  surForcT  vol(  0 ): 3.639E+14  Parms: SM      U1      
 Compute Stats, Diag. #  84  surForcS  vol(  0 ): 3.639E+14  Parms: SM      U1      
 Compute Stats, Diag. #  85  TFLUX     vol(  0 ): 3.639E+14  Parms: SM      U1      
 Compute Stats, Diag. #  86  SFLUX     vol(  0 ): 3.639E+14  Parms: SM      U1      
 Compute Stats, Diag. #  78  oceQnet   vol(  0 ): 3.639E+14  Parms: SM      U1      
 Compute Stats, Diag. #  77  oceSflux  vol(  0 ): 3.639E+14  Parms: SM      U1      
 Compute Stats, Diag. #  76  oceFWflx  vol(  0 ): 3.639E+14  Parms: SM      U1      
 cg2d: Sum(rhs),rhsMax =   3.91131459725772E+02  2.29254438535232E+02
(PID.TID 0000.0001)                    cg2d_init_res =    2.77311395211419E+00
(PID.TID 0000.0001)                       cg2d_iters =    70
(PID.TID 0000.0001)                         cg2d_res =    4.63426968014204E-07
(PID.TID 0000.0001) // =======================================================
(PID.TID 0000.0001) // Begin MONITOR dynamic field statistics
(PID.TID 0000.0001) // =======================================================
(PID.TID 0000.0001) %MON time_tsnumber                =                 36002
(PID.TID 0000.0001) %MON time_secondsf                =   3.1105728000000E+09
(PID.TID 0000.0001) %MON dynstat_eta_max              =   7.3229006101311E-01
(PID.TID 0000.0001) %MON dynstat_eta_min              =  -1.1983655194124E+01
(PID.TID 0000.0001) %MON dynstat_eta_mean             =  -5.8174665080969E-01
(PID.TID 0000.0001) %MON dynstat_eta_sd               =   1.7020051319866E+00
(PID.TID 0000.0001) %MON dynstat_eta_del2             =   9.7561844827251E-02
(PID.TID 0000.0001) %MON dynstat_uvel_max             =   1.7327212041873E-01
(PID.TID 0000.0001) %MON dynstat_uvel_min             =  -2.7081471455199E-01
(PID.TID 0000.0001) %MON dynstat_uvel_mean            =  -5.2816579021481E-04
(PID.TID 0000.0001) %MON dynstat_uvel_sd              =   1.2989175661262E-02
(PID.TID 0000.0001) %MON dynstat_uvel_del2            =   1.7920840822563E-03
(PID.TID 0000.0001) %MON dynstat_vvel_max             =   1.9396958655864E-01
(PID.TID 0000.0001) %MON dynstat_vvel_min             =  -2.1072475476638E-01
(PID.TID 0000.0001) %MON dynstat_vvel_mean            =  -4.2478716135064E-04
(PID.TID 0000.0001) %MON dynstat_vvel_sd              =   1.3476966075832E-02
(PID.TID 0000.0001) %MON dynstat_vvel_del2            =   1.8296516533867E-03
(PID.TID 0000.0001) %MON dynstat_wvel_max             =   8.3878229508526E-05
(PID.TID 0000.0001) %MON dynstat_wvel_min             =  -1.7741493496095E-04
(PID.TID 0000.0001) %MON dynstat_wvel_mean            =  -1.2003635810258E-09
(PID.TID 0000.0001) %MON dynstat_wvel_sd              =   4.6275509279737E-06
(PID.TID 0000.0001) %MON dynstat_wvel_del2            =   1.1369754120993E-06
(PID.TID 0000.0001) %MON dynstat_theta_max            =   3.0124601372323E+01
(PID.TID 0000.0001) %MON dynstat_theta_min            =  -3.3553034882915E+00
(PID.TID 0000.0001) %MON dynstat_theta_mean           =   3.5028875166604E+00
(PID.TID 0000.0001) %MON dynstat_theta_sd             =   4.7490133304808E+00
(PID.TID 0000.0001) %MON dynstat_theta_del2           =   9.5218513755938E-02
(PID.TID 0000.0001) %MON dynstat_salt_max             =   4.0820622781662E+01
(PID.TID 0000.0001) %MON dynstat_salt_min             =   1.8031424014180E+01
(PID.TID 0000.0001) %MON dynstat_salt_mean            =   3.4756104660661E+01
(PID.TID 0000.0001) %MON dynstat_salt_sd              =   5.1188356819734E-01
(PID.TID 0000.0001) %MON dynstat_salt_del2            =   2.0060726986543E-02
(PID.TID 0000.0001) %MON extforcing_qnet_max          =   7.7879744945758E+02
(PID.TID 0000.0001) %MON extforcing_qnet_min          =  -2.4011430029414E+02
(PID.TID 0000.0001) %MON extforcing_qnet_mean         =  -4.6525900892656E+00
(PID.TID 0000.0001) %MON extforcing_qnet_sd           =   1.2148325699372E+02
(PID.TID 0000.0001) %MON extforcing_qnet_del2         =   1.2314749530132E+01
(PID.TID 0000.0001) %MON extforcing_qsw_max           =   0.0000000000000E+00
(PID.TID 0000.0001) %MON extforcing_qsw_min           =  -3.4175257854448E+02
(PID.TID 0000.0001) %MON extforcing_qsw_mean          =  -1.8646073093585E+02
(PID.TID 0000.0001) %MON extforcing_qsw_sd            =   8.0791478274279E+01
(PID.TID 0000.0001) %MON extforcing_qsw_del2          =   3.8988769380211E+00
(PID.TID 0000.0001) %MON extforcing_empmr_max         =   5.9807185957156E-07
(PID.TID 0000.0001) %MON extforcing_empmr_min         =  -3.9950840357725E-07
(PID.TID 0000.0001) %MON extforcing_empmr_mean        =   1.3028477016088E-10
(PID.TID 0000.0001) %MON extforcing_empmr_sd          =   5.5643626536395E-08
(PID.TID 0000.0001) %MON extforcing_empmr_del2        =   8.8872368450092E-09
(PID.TID 0000.0001) %MON extforcing_fu_max            =   2.4755808644372E-01
(PID.TID 0000.0001) %MON extforcing_fu_min            =  -1.9021211852269E-01
(PID.TID 0000.0001) %MON extforcing_fu_mean           =  -1.4735151054191E-03
(PID.TID 0000.0001) %MON extforcing_fu_sd             =   6.1360460766519E-02
(PID.TID 0000.0001) %MON extforcing_fu_del2           =   3.3527300417974E-03
(PID.TID 0000.0001) %MON extforcing_fv_max            =   2.5549422200851E-01
(PID.TID 0000.0001) %MON extforcing_fv_min            =  -3.2770782795392E-01
(PID.TID 0000.0001) %MON extforcing_fv_mean           =  -4.8228167834908E-03
(PID.TID 0000.0001) %MON extforcing_fv_sd             =   6.7376925509796E-02
(PID.TID 0000.0001) %MON extforcing_fv_del2           =   3.3051312271693E-03
(PID.TID 0000.0001) %MON advcfl_uvel_max              =   7.6808190046367E-02
(PID.TID 0000.0001) %MON advcfl_vvel_max              =   8.4548610095829E-02
(PID.TID 0000.0001) %MON advcfl_wvel_max              =   5.7843963700475E-02
(PID.TID 0000.0001) %MON advcfl_W_hf_max              =   1.3061295578588E-01
(PID.TID 0000.0001) %MON pe_b_mean                    =  -1.9275929757078E-03
(PID.TID 0000.0001) %MON ke_max                       =   3.6710242960598E-02
(PID.TID 0000.0001) %MON ke_mean                      =   1.6198737185788E-04
(PID.TID 0000.0001) %MON ke_vol                       =   1.3395907594296E+18
(PID.TID 0000.0001) %MON vort_r_min                   =  -1.2169537767855E-06
(PID.TID 0000.0001) %MON vort_r_max                   =   1.3705440196498E-06
(PID.TID 0000.0001) %MON vort_a_mean                  =  -2.0493733748264E-05
(PID.TID 0000.0001) %MON vort_a_sd                    =   7.5054013913991E-05
(PID.TID 0000.0001) %MON vort_p_mean                  =  -2.4719490938431E-05
(PID.TID 0000.0001) %MON vort_p_sd                    =   1.2782282330563E-04
(PID.TID 0000.0001) %MON surfExpan_theta_mean         =   8.2816493912034E-08
(PID.TID 0000.0001) %MON surfExpan_salt_mean          =   1.8795806387645E-08
(PID.TID 0000.0001) // =======================================================
(PID.TID 0000.0001) // End MONITOR dynamic field statistics
(PID.TID 0000.0001) // =======================================================
(PID.TID 0000.0001) // =======================================================
(PID.TID 0000.0001) // Begin MONITOR Therm.SeaIce statistics
(PID.TID 0000.0001) // =======================================================
(PID.TID 0000.0001) %MON thSI_time_sec                =   3.1105728000000E+09
(PID.TID 0000.0001) %MON thSI_Ice_Area_G              =   2.4700336707387E+13
(PID.TID 0000.0001) %MON thSI_Ice_Area_S              =   1.2002870971414E+13
(PID.TID 0000.0001) %MON thSI_Ice_Area_N              =   1.2697465735973E+13
(PID.TID 0000.0001) %MON thSI_IceH_ave_G              =   4.5924069515402E+00
(PID.TID 0000.0001) %MON thSI_IceH_ave_S              =   5.7018798446009E+00
(PID.TID 0000.0001) %MON thSI_IceH_ave_N              =   3.5436260169353E+00
(PID.TID 0000.0001) %MON thSI_IceH_max_S              =   1.0000000000000E+01
(PID.TID 0000.0001) %MON thSI_IceH_max_N              =   1.0000000000000E+01
(PID.TID 0000.0001) %MON thSI_SnwH_ave_G              =   1.0556601012457E+00
(PID.TID 0000.0001) %MON thSI_SnwH_ave_S              =   1.7970285678691E+00
(PID.TID 0000.0001) %MON thSI_SnwH_ave_N              =   3.5484702309386E-01
(PID.TID 0000.0001) %MON thSI_SnwH_max_S              =   4.0952683498710E+00
(PID.TID 0000.0001) %MON thSI_SnwH_max_N              =   4.1020889037136E+00
(PID.TID 0000.0001) %MON thSI_TotEnerg_G              =  -3.8083174622540E+22
(PID.TID 0000.0001) %MON thSI_Tsrf_ave_G              =  -1.6865124440702E+01
(PID.TID 0000.0001) %MON thSI_Tsrf_ave_S              =  -1.2622668745386E-01
(PID.TID 0000.0001) %MON thSI_Tsrf_ave_N              =  -3.2688347287977E+01
(PID.TID 0000.0001) %MON thSI_Tsrf_min_S              =  -5.3207170352752E+00
(PID.TID 0000.0001) %MON thSI_Tsrf_min_N              =  -4.6355041687305E+01
(PID.TID 0000.0001) %MON thSI_Tsrf_max_S              =   0.0000000000000E+00
(PID.TID 0000.0001) %MON thSI_Tsrf_max_N              =  -7.6783593043140E+00
(PID.TID 0000.0001) %MON thSI_Tic1_ave_G              =  -8.3764140792823E+00
(PID.TID 0000.0001) %MON thSI_Tic1_ave_S              =  -5.1378632240727E+00
(PID.TID 0000.0001) %MON thSI_Tic1_ave_N              =  -1.3302352618049E+01
(PID.TID 0000.0001) %MON thSI_Tic1_min_S              =  -1.6689794567922E+01
(PID.TID 0000.0001) %MON thSI_Tic1_min_N              =  -2.0726706593009E+01
(PID.TID 0000.0001) %MON thSI_Tic1_max_S              =  -2.2651862247147E-01
(PID.TID 0000.0001) %MON thSI_Tic1_max_N              =  -6.4312968843004E-01
(PID.TID 0000.0001) %MON thSI_Tic2_ave_G              =  -3.7787946603025E+00
(PID.TID 0000.0001) %MON thSI_Tic2_ave_S              =  -3.1003967487870E+00
(PID.TID 0000.0001) %MON thSI_Tic2_ave_N              =  -4.8106593943632E+00
(PID.TID 0000.0001) %MON thSI_Tic2_min_S              =  -8.7485368036317E+00
(PID.TID 0000.0001) %MON thSI_Tic2_min_N              =  -7.4594173074705E+00
(PID.TID 0000.0001) %MON thSI_Tic2_max_S              =  -1.2642148384105E+00
(PID.TID 0000.0001) %MON thSI_Tic2_max_N              =  -1.1939219607007E+00
(PID.TID 0000.0001) // =======================================================
(PID.TID 0000.0001) // End MONITOR Therm.SeaIce statistics
(PID.TID 0000.0001) // =======================================================
 Computing Diagnostic #  23  ETAN         Counter:       1   Parms: SM      M1      
 Compute Stats, Diag. #  23  ETAN      vol(  0 ): 3.639E+14  Parms: SM      M1      
 Compute Stats, Diag. #  26  THETA     vol(  0 ): 1.340E+18  Parms: SM      MR      
 Compute Stats, Diag. #  27  SALT      vol(  0 ): 1.340E+18  Parms: SM      MR      
 cg2d: Sum(rhs),rhsMax =   3.91309112729621E+02  2.29298439122779E+02
(PID.TID 0000.0001)                    cg2d_init_res =    6.09078686380916E+00
(PID.TID 0000.0001)                       cg2d_iters =    69
(PID.TID 0000.0001)                         cg2d_res =    5.63951285109543E-07
(PID.TID 0000.0001) // =======================================================
(PID.TID 0000.0001) // Begin MONITOR dynamic field statistics
(PID.TID 0000.0001) // =======================================================
(PID.TID 0000.0001) %MON time_tsnumber                =                 36003
(PID.TID 0000.0001) %MON time_secondsf                =   3.1106592000000E+09
(PID.TID 0000.0001) %MON dynstat_eta_max              =   7.3099477428963E-01
(PID.TID 0000.0001) %MON dynstat_eta_min              =  -1.1981925078893E+01
(PID.TID 0000.0001) %MON dynstat_eta_mean             =  -5.8201088176689E-01
(PID.TID 0000.0001) %MON dynstat_eta_sd               =   1.7024253038363E+00
(PID.TID 0000.0001) %MON dynstat_eta_del2             =   9.7835842918931E-02
(PID.TID 0000.0001) %MON dynstat_uvel_max             =   1.7365092875483E-01
(PID.TID 0000.0001) %MON dynstat_uvel_min             =  -2.7047570526064E-01
(PID.TID 0000.0001) %MON dynstat_uvel_mean            =  -5.2768971396047E-04
(PID.TID 0000.0001) %MON dynstat_uvel_sd              =   1.2988684476965E-02
(PID.TID 0000.0001) %MON dynstat_uvel_del2            =   1.7920248649488E-03
(PID.TID 0000.0001) %MON dynstat_vvel_max             =   1.9433344783299E-01
(PID.TID 0000.0001) %MON dynstat_vvel_min             =  -2.1082780480014E-01
(PID.TID 0000.0001) %MON dynstat_vvel_mean            =  -4.2458333179549E-04
(PID.TID 0000.0001) %MON dynstat_vvel_sd              =   1.3479061661831E-02
(PID.TID 0000.0001) %MON dynstat_vvel_del2            =   1.8285036723223E-03
(PID.TID 0000.0001) %MON dynstat_wvel_max             =   8.3854551664443E-05
(PID.TID 0000.0001) %MON dynstat_wvel_min             =  -1.7771358166438E-04
(PID.TID 0000.0001) %MON dynstat_wvel_mean            =  -6.8377425876742E-10
(PID.TID 0000.0001) %MON dynstat_wvel_sd              =   4.6278484143928E-06
(PID.TID 0000.0001) %MON dynstat_wvel_del2            =   1.1375562920637E-06
(PID.TID 0000.0001) %MON dynstat_theta_max            =   3.0104701255942E+01
(PID.TID 0000.0001) %MON dynstat_theta_min            =  -3.3518890052743E+00
(PID.TID 0000.0001) %MON dynstat_theta_mean           =   3.5029525808338E+00
(PID.TID 0000.0001) %MON dynstat_theta_sd             =   4.7490572643535E+00
(PID.TID 0000.0001) %MON dynstat_theta_del2           =   9.5268971978756E-02
(PID.TID 0000.0001) %MON dynstat_salt_max             =   4.0822996551034E+01
(PID.TID 0000.0001) %MON dynstat_salt_min             =   1.8032025039315E+01
(PID.TID 0000.0001) %MON dynstat_salt_mean            =   3.4756107701612E+01
(PID.TID 0000.0001) %MON dynstat_salt_sd              =   5.1186938927136E-01
(PID.TID 0000.0001) %MON dynstat_salt_del2            =   2.0073310320761E-02
(PID.TID 0000.0001) %MON extforcing_qnet_max          =   7.8158665489324E+02
(PID.TID 0000.0001) %MON extforcing_qnet_min          =  -3.0899403785649E+03
(PID.TID 0000.0001) %MON extforcing_qnet_mean         =  -5.8764131422292E+00
(PID.TID 0000.0001) %MON extforcing_qnet_sd           =   1.3219581347936E+02
(PID.TID 0000.0001) %MON extforcing_qnet_del2         =   1.3452256429486E+01
(PID.TID 0000.0001) %MON extforcing_qsw_max           =   0.0000000000000E+00
(PID.TID 0000.0001) %MON extforcing_qsw_min           =  -3.4154853589728E+02
(PID.TID 0000.0001) %MON extforcing_qsw_mean          =  -1.8648302854814E+02
(PID.TID 0000.0001) %MON extforcing_qsw_sd            =   8.0640098122064E+01
(PID.TID 0000.0001) %MON extforcing_qsw_del2          =   3.8986889308270E+00
(PID.TID 0000.0001) %MON extforcing_empmr_max         =   9.1469285084333E-06
(PID.TID 0000.0001) %MON extforcing_empmr_min         =  -3.9320371276303E-07
(PID.TID 0000.0001) %MON extforcing_empmr_mean        =   3.1652666748278E-09
(PID.TID 0000.0001) %MON extforcing_empmr_sd          =   1.6507588930429E-07
(PID.TID 0000.0001) %MON extforcing_empmr_del2        =   1.2379289014152E-08
(PID.TID 0000.0001) %MON extforcing_fu_max            =   2.4751003717351E-01
(PID.TID 0000.0001) %MON extforcing_fu_min            =  -1.9188096691302E-01
(PID.TID 0000.0001) %MON extforcing_fu_mean           =  -1.4757232621766E-03
(PID.TID 0000.0001) %MON extforcing_fu_sd             =   6.1342749045598E-02
(PID.TID 0000.0001) %MON extforcing_fu_del2           =   3.3537349379800E-03
(PID.TID 0000.0001) %MON extforcing_fv_max            =   2.5817746358114E-01
(PID.TID 0000.0001) %MON extforcing_fv_min            =  -3.2849573188785E-01
(PID.TID 0000.0001) %MON extforcing_fv_mean           =  -4.8839697106423E-03
(PID.TID 0000.0001) %MON extforcing_fv_sd             =   6.7547018222041E-02
(PID.TID 0000.0001) %MON extforcing_fv_del2           =   3.3071746233448E-03
(PID.TID 0000.0001) %MON advcfl_uvel_max              =   7.6712040580782E-02
(PID.TID 0000.0001) %MON advcfl_vvel_max              =   8.4707212099162E-02
(PID.TID 0000.0001) %MON advcfl_wvel_max              =   5.7941333795480E-02
(PID.TID 0000.0001) %MON advcfl_W_hf_max              =   1.2991830349328E-01
(PID.TID 0000.0001) %MON pe_b_mean                    =  -1.9306693944838E-03
(PID.TID 0000.0001) %MON ke_max                       =   3.6600870698934E-02
(PID.TID 0000.0001) %MON ke_mean                      =   1.6200740838712E-04
(PID.TID 0000.0001) %MON ke_vol                       =   1.3395907554719E+18
(PID.TID 0000.0001) %MON vort_r_min                   =  -1.2207068600241E-06
(PID.TID 0000.0001) %MON vort_r_max                   =   1.3733582096343E-06
(PID.TID 0000.0001) %MON vort_a_mean                  =  -2.0493733748264E-05
(PID.TID 0000.0001) %MON vort_a_sd                    =   7.5054013781918E-05
(PID.TID 0000.0001) %MON vort_p_mean                  =  -2.4719490496086E-05
(PID.TID 0000.0001) %MON vort_p_sd                    =   1.2782282805685E-04
(PID.TID 0000.0001) %MON surfExpan_theta_mean         =   6.9503630957612E-08
(PID.TID 0000.0001) %MON surfExpan_salt_mean          =   1.4787731089999E-08
(PID.TID 0000.0001) // =======================================================
(PID.TID 0000.0001) // End MONITOR dynamic field statistics
(PID.TID 0000.0001) // =======================================================
(PID.TID 0000.0001) // =======================================================
(PID.TID 0000.0001) // Begin MONITOR Therm.SeaIce statistics
(PID.TID 0000.0001) // =======================================================
(PID.TID 0000.0001) %MON thSI_time_sec                =   3.1106592000000E+09
(PID.TID 0000.0001) %MON thSI_Ice_Area_G              =   2.4671050074016E+13
(PID.TID 0000.0001) %MON thSI_Ice_Area_S              =   1.1942558454111E+13
(PID.TID 0000.0001) %MON thSI_Ice_Area_N              =   1.2728491619905E+13
(PID.TID 0000.0001) %MON thSI_IceH_ave_G              =   4.6028521664257E+00
(PID.TID 0000.0001) %MON thSI_IceH_ave_S              =   5.7233574570640E+00
(PID.TID 0000.0001) %MON thSI_IceH_ave_N              =   3.5515335710109E+00
(PID.TID 0000.0001) %MON thSI_IceH_max_S              =   1.0000000000000E+01
(PID.TID 0000.0001) %MON thSI_IceH_max_N              =   1.0000000000000E+01
(PID.TID 0000.0001) %MON thSI_SnwH_ave_G              =   1.0525627362737E+00
(PID.TID 0000.0001) %MON thSI_SnwH_ave_S              =   1.7940911563450E+00
(PID.TID 0000.0001) %MON thSI_SnwH_ave_N              =   3.5682071384593E-01
(PID.TID 0000.0001) %MON thSI_SnwH_max_S              =   4.0939887760596E+00
(PID.TID 0000.0001) %MON thSI_SnwH_max_N              =   4.1023323017742E+00
(PID.TID 0000.0001) %MON thSI_TotEnerg_G              =  -3.8112991338247E+22
(PID.TID 0000.0001) %MON thSI_Tsrf_ave_G              =  -1.6948875634443E+01
(PID.TID 0000.0001) %MON thSI_Tsrf_ave_S              =  -1.0907798065685E-01
(PID.TID 0000.0001) %MON thSI_Tsrf_ave_N              =  -3.2748883509786E+01
(PID.TID 0000.0001) %MON thSI_Tsrf_min_S              =  -5.3370576573390E+00
(PID.TID 0000.0001) %MON thSI_Tsrf_min_N              =  -4.6469445815269E+01
(PID.TID 0000.0001) %MON thSI_Tsrf_max_S              =   0.0000000000000E+00
(PID.TID 0000.0001) %MON thSI_Tsrf_max_N              =  -1.8310281120012E+00
(PID.TID 0000.0001) %MON thSI_Tic1_ave_G              =  -8.3957704554452E+00
(PID.TID 0000.0001) %MON thSI_Tic1_ave_S              =  -5.1168939153007E+00
(PID.TID 0000.0001) %MON thSI_Tic1_ave_N              =  -1.3353472769067E+01
(PID.TID 0000.0001) %MON thSI_Tic1_min_S              =  -1.6541939737997E+01
(PID.TID 0000.0001) %MON thSI_Tic1_min_N              =  -2.0804073017119E+01
(PID.TID 0000.0001) %MON thSI_Tic1_max_S              =  -2.1752800540515E-01
(PID.TID 0000.0001) %MON thSI_Tic1_max_N              =  -6.5772142546384E-01
(PID.TID 0000.0001) %MON thSI_Tic2_ave_G              =  -3.7888152347487E+00
(PID.TID 0000.0001) %MON thSI_Tic2_ave_S              =  -3.0968927500966E+00
(PID.TID 0000.0001) %MON thSI_Tic2_ave_N              =  -4.8350106803557E+00
(PID.TID 0000.0001) %MON thSI_Tic2_min_S              =  -8.7237674264693E+00
(PID.TID 0000.0001) %MON thSI_Tic2_min_N              =  -7.4973446282919E+00
(PID.TID 0000.0001) %MON thSI_Tic2_max_S              =  -1.2269932349997E+00
(PID.TID 0000.0001) %MON thSI_Tic2_max_N              =  -1.2119327410004E+00
(PID.TID 0000.0001) // =======================================================
(PID.TID 0000.0001) // End MONITOR Therm.SeaIce statistics
(PID.TID 0000.0001) // =======================================================
 cg2d: Sum(rhs),rhsMax =   3.91416963883588E+02  2.29352526517696E+02
(PID.TID 0000.0001)                    cg2d_init_res =    4.27410682612675E+00
(PID.TID 0000.0001)                       cg2d_iters =    69
(PID.TID 0000.0001)                         cg2d_res =    5.50417225072447E-07
(PID.TID 0000.0001) // =======================================================
(PID.TID 0000.0001) // Begin MONITOR dynamic field statistics
(PID.TID 0000.0001) // =======================================================
(PID.TID 0000.0001) %MON time_tsnumber                =                 36004
(PID.TID 0000.0001) %MON time_secondsf                =   3.1107456000000E+09
(PID.TID 0000.0001) %MON dynstat_eta_max              =   7.2974257672787E-01
(PID.TID 0000.0001) %MON dynstat_eta_min              =  -1.1980124255503E+01
(PID.TID 0000.0001) %MON dynstat_eta_mean             =  -5.8217129342912E-01
(PID.TID 0000.0001) %MON dynstat_eta_sd               =   1.7024629863738E+00
(PID.TID 0000.0001) %MON dynstat_eta_del2             =   9.8028640929327E-02
(PID.TID 0000.0001) %MON dynstat_uvel_max             =   1.7397104373688E-01
(PID.TID 0000.0001) %MON dynstat_uvel_min             =  -2.7012550161641E-01
(PID.TID 0000.0001) %MON dynstat_uvel_mean            =  -5.2718576397191E-04
(PID.TID 0000.0001) %MON dynstat_uvel_sd              =   1.2988013678495E-02
(PID.TID 0000.0001) %MON dynstat_uvel_del2            =   1.7918822814449E-03
(PID.TID 0000.0001) %MON dynstat_vvel_max             =   1.9463714002819E-01
(PID.TID 0000.0001) %MON dynstat_vvel_min             =  -2.1092328279473E-01
(PID.TID 0000.0001) %MON dynstat_vvel_mean            =  -4.2426121740708E-04
(PID.TID 0000.0001) %MON dynstat_vvel_sd              =   1.3481123258234E-02
(PID.TID 0000.0001) %MON dynstat_vvel_del2            =   1.8274725808358E-03
(PID.TID 0000.0001) %MON dynstat_wvel_max             =   8.3859120826160E-05
(PID.TID 0000.0001) %MON dynstat_wvel_min             =  -1.7794561568687E-04
(PID.TID 0000.0001) %MON dynstat_wvel_mean            =  -8.5974935272239E-10
(PID.TID 0000.0001) %MON dynstat_wvel_sd              =   4.6274851681223E-06
(PID.TID 0000.0001) %MON dynstat_wvel_del2            =   1.1369266492770E-06
(PID.TID 0000.0001) %MON dynstat_theta_max            =   3.0084392361271E+01
(PID.TID 0000.0001) %MON dynstat_theta_min            =  -3.3484346009805E+00
(PID.TID 0000.0001) %MON dynstat_theta_mean           =   3.5030164686184E+00
(PID.TID 0000.0001) %MON dynstat_theta_sd             =   4.7491154153450E+00
(PID.TID 0000.0001) %MON dynstat_theta_del2           =   9.5259754517344E-02
(PID.TID 0000.0001) %MON dynstat_salt_max             =   4.0825223161601E+01
(PID.TID 0000.0001) %MON dynstat_salt_min             =   1.8032613033182E+01
(PID.TID 0000.0001) %MON dynstat_salt_mean            =   3.4756109801016E+01
(PID.TID 0000.0001) %MON dynstat_salt_sd              =   5.1185826384945E-01
(PID.TID 0000.0001) %MON dynstat_salt_del2            =   2.0069704461759E-02
(PID.TID 0000.0001) %MON extforcing_qnet_max          =   7.8347485874378E+02
(PID.TID 0000.0001) %MON extforcing_qnet_min          =  -1.7555053810291E+03
(PID.TID 0000.0001) %MON extforcing_qnet_mean         =  -5.6281989459272E+00
(PID.TID 0000.0001) %MON extforcing_qnet_sd           =   1.2477491393762E+02
(PID.TID 0000.0001) %MON extforcing_qnet_del2         =   1.3040839824143E+01
(PID.TID 0000.0001) %MON extforcing_qsw_max           =   0.0000000000000E+00
(PID.TID 0000.0001) %MON extforcing_qsw_min           =  -3.4134449325008E+02
(PID.TID 0000.0001) %MON extforcing_qsw_mean          =  -1.8651280565363E+02
(PID.TID 0000.0001) %MON extforcing_qsw_sd            =   8.0493376318607E+01
(PID.TID 0000.0001) %MON extforcing_qsw_del2          =   3.9076490891646E+00
(PID.TID 0000.0001) %MON extforcing_empmr_max         =   5.1962279738688E-06
(PID.TID 0000.0001) %MON extforcing_empmr_min         =  -3.8540918067761E-07
(PID.TID 0000.0001) %MON extforcing_empmr_mean        =   1.9215980371501E-09
(PID.TID 0000.0001) %MON extforcing_empmr_sd          =   1.0354326159098E-07
(PID.TID 0000.0001) %MON extforcing_empmr_del2        =   1.0819429412064E-08
(PID.TID 0000.0001) %MON extforcing_fu_max            =   2.4746198790331E-01
(PID.TID 0000.0001) %MON extforcing_fu_min            =  -1.9354981530334E-01
(PID.TID 0000.0001) %MON extforcing_fu_mean           =  -1.4779314575744E-03
(PID.TID 0000.0001) %MON extforcing_fu_sd             =   6.1337629677589E-02
(PID.TID 0000.0001) %MON extforcing_fu_del2           =   3.3576808392742E-03
(PID.TID 0000.0001) %MON extforcing_fv_max            =   2.6086070515377E-01
(PID.TID 0000.0001) %MON extforcing_fv_min            =  -3.2928363582178E-01
(PID.TID 0000.0001) %MON extforcing_fv_mean           =  -4.9451226439782E-03
(PID.TID 0000.0001) %MON extforcing_fv_sd             =   6.7725323836516E-02
(PID.TID 0000.0001) %MON extforcing_fv_del2           =   3.3110159854204E-03
(PID.TID 0000.0001) %MON advcfl_uvel_max              =   7.6612716184375E-02
(PID.TID 0000.0001) %MON advcfl_vvel_max              =   8.4839587248569E-02
(PID.TID 0000.0001) %MON advcfl_wvel_max              =   5.8016985642813E-02
(PID.TID 0000.0001) %MON advcfl_W_hf_max              =   1.2915366343676E-01
(PID.TID 0000.0001) %MON pe_b_mean                    =  -1.9321089238068E-03
(PID.TID 0000.0001) %MON ke_max                       =   3.6488935185066E-02
(PID.TID 0000.0001) %MON ke_mean                      =   1.6202482578969E-04
(PID.TID 0000.0001) %MON ke_vol                       =   1.3395906593218E+18
(PID.TID 0000.0001) %MON vort_r_min                   =  -1.2247375638753E-06
(PID.TID 0000.0001) %MON vort_r_max                   =   1.3764061594967E-06
(PID.TID 0000.0001) %MON vort_a_mean                  =  -2.0493733748264E-05
(PID.TID 0000.0001) %MON vort_a_sd                    =   7.5054013663830E-05
(PID.TID 0000.0001) %MON vort_p_mean                  =  -2.4719491378761E-05
(PID.TID 0000.0001) %MON vort_p_sd                    =   1.2782286063950E-04
(PID.TID 0000.0001) %MON surfExpan_theta_mean         =   7.4807110648117E-08
(PID.TID 0000.0001) %MON surfExpan_salt_mean          =   1.6587700242963E-08
(PID.TID 0000.0001) // =======================================================
(PID.TID 0000.0001) // End MONITOR dynamic field statistics
(PID.TID 0000.0001) // =======================================================
(PID.TID 0000.0001) // =======================================================
(PID.TID 0000.0001) // Begin MONITOR Therm.SeaIce statistics
(PID.TID 0000.0001) // =======================================================
(PID.TID 0000.0001) %MON thSI_time_sec                =   3.1107456000000E+09
(PID.TID 0000.0001) %MON thSI_Ice_Area_G              =   2.4664240163885E+13
(PID.TID 0000.0001) %MON thSI_Ice_Area_S              =   1.1899223406751E+13
(PID.TID 0000.0001) %MON thSI_Ice_Area_N              =   1.2765016757134E+13
(PID.TID 0000.0001) %MON thSI_IceH_ave_G              =   4.6073674625808E+00
(PID.TID 0000.0001) %MON thSI_IceH_ave_S              =   5.7371981395755E+00
(PID.TID 0000.0001) %MON thSI_IceH_ave_N              =   3.5541680901751E+00
(PID.TID 0000.0001) %MON thSI_IceH_max_S              =   1.0000000000000E+01
(PID.TID 0000.0001) %MON thSI_IceH_max_N              =   1.0000000000000E+01
(PID.TID 0000.0001) %MON thSI_SnwH_ave_G              =   1.0486302370227E+00
(PID.TID 0000.0001) %MON thSI_SnwH_ave_S              =   1.7888219526018E+00
(PID.TID 0000.0001) %MON thSI_SnwH_ave_N              =   3.5864237761944E-01
(PID.TID 0000.0001) %MON thSI_SnwH_max_S              =   4.0939945676846E+00
(PID.TID 0000.0001) %MON thSI_SnwH_max_N              =   4.1021903716991E+00
(PID.TID 0000.0001) %MON thSI_TotEnerg_G              =  -3.8129219283918E+22
(PID.TID 0000.0001) %MON thSI_Tsrf_ave_G              =  -1.7036632035967E+01
(PID.TID 0000.0001) %MON thSI_Tsrf_ave_S              =  -1.2963597815935E-01
(PID.TID 0000.0001) %MON thSI_Tsrf_ave_N              =  -3.2796903021627E+01
(PID.TID 0000.0001) %MON thSI_Tsrf_min_S              =  -5.3533619613956E+00
(PID.TID 0000.0001) %MON thSI_Tsrf_min_N              =  -4.6583877731655E+01
(PID.TID 0000.0001) %MON thSI_Tsrf_max_S              =   0.0000000000000E+00
(PID.TID 0000.0001) %MON thSI_Tsrf_max_N              =  -5.8028462744011E+00
(PID.TID 0000.0001) %MON thSI_Tic1_ave_G              =  -8.4149230234358E+00
(PID.TID 0000.0001) %MON thSI_Tic1_ave_S              =  -5.0900466749653E+00
(PID.TID 0000.0001) %MON thSI_Tic1_ave_N              =  -1.3417970375025E+01
(PID.TID 0000.0001) %MON thSI_Tic1_min_S              =  -1.6056754933004E+01
(PID.TID 0000.0001) %MON thSI_Tic1_min_N              =  -2.0878819474550E+01
(PID.TID 0000.0001) %MON thSI_Tic1_max_S              =  -1.9822278730656E-01
(PID.TID 0000.0001) %MON thSI_Tic1_max_N              =  -6.7292403751111E-01
(PID.TID 0000.0001) %MON thSI_Tic2_ave_G              =  -3.7998623396563E+00
(PID.TID 0000.0001) %MON thSI_Tic2_ave_S              =  -3.0932486104799E+00
(PID.TID 0000.0001) %MON thSI_Tic2_ave_N              =  -4.8631265263016E+00
(PID.TID 0000.0001) %MON thSI_Tic2_min_S              =  -8.6974972960565E+00
(PID.TID 0000.0001) %MON thSI_Tic2_min_N              =  -7.5341003027692E+00
(PID.TID 0000.0001) %MON thSI_Tic2_max_S              =  -1.2608688214200E+00
(PID.TID 0000.0001) %MON thSI_Tic2_max_N              =  -1.2300765087143E+00
(PID.TID 0000.0001) // =======================================================
(PID.TID 0000.0001) // End MONITOR Therm.SeaIce statistics
(PID.TID 0000.0001) // =======================================================
 cg2d: Sum(rhs),rhsMax =   3.91500130883306E+02  2.29415347833572E+02
(PID.TID 0000.0001)                    cg2d_init_res =    3.37196854504630E+00
(PID.TID 0000.0001)                       cg2d_iters =    68
(PID.TID 0000.0001)                         cg2d_res =    5.78556802693257E-07
(PID.TID 0000.0001) // =======================================================
(PID.TID 0000.0001) // Begin MONITOR dynamic field statistics
(PID.TID 0000.0001) // =======================================================
(PID.TID 0000.0001) %MON time_tsnumber                =                 36005
(PID.TID 0000.0001) %MON time_secondsf                =   3.1108320000000E+09
(PID.TID 0000.0001) %MON dynstat_eta_max              =   7.2850419209143E-01
(PID.TID 0000.0001) %MON dynstat_eta_min              =  -1.1978248001147E+01
(PID.TID 0000.0001) %MON dynstat_eta_mean             =  -5.8229499128656E-01
(PID.TID 0000.0001) %MON dynstat_eta_sd               =   1.7022357967768E+00
(PID.TID 0000.0001) %MON dynstat_eta_del2             =   9.8118102688341E-02
(PID.TID 0000.0001) %MON dynstat_uvel_max             =   1.7422989156883E-01
(PID.TID 0000.0001) %MON dynstat_uvel_min             =  -2.6976408421870E-01
(PID.TID 0000.0001) %MON dynstat_uvel_mean            =  -5.2669969596423E-04
(PID.TID 0000.0001) %MON dynstat_uvel_sd              =   1.2987224705827E-02
(PID.TID 0000.0001) %MON dynstat_uvel_del2            =   1.7916954612648E-03
(PID.TID 0000.0001) %MON dynstat_vvel_max             =   1.9488024344972E-01
(PID.TID 0000.0001) %MON dynstat_vvel_min             =  -2.1101136657264E-01
(PID.TID 0000.0001) %MON dynstat_vvel_mean            =  -4.2381342241099E-04
(PID.TID 0000.0001) %MON dynstat_vvel_sd              =   1.3483091687543E-02
(PID.TID 0000.0001) %MON dynstat_vvel_del2            =   1.8264856387018E-03
(PID.TID 0000.0001) %MON dynstat_wvel_max             =   8.4551191362779E-05
(PID.TID 0000.0001) %MON dynstat_wvel_min             =  -1.7811598819004E-04
(PID.TID 0000.0001) %MON dynstat_wvel_mean            =  -1.0079488009257E-09
(PID.TID 0000.0001) %MON dynstat_wvel_sd              =   4.6272502523735E-06
(PID.TID 0000.0001) %MON dynstat_wvel_del2            =   1.1365202398006E-06
(PID.TID 0000.0001) %MON dynstat_theta_max            =   3.0063756615033E+01
(PID.TID 0000.0001) %MON dynstat_theta_min            =  -3.3449467734400E+00
(PID.TID 0000.0001) %MON dynstat_theta_mean           =   3.5030808202277E+00
(PID.TID 0000.0001) %MON dynstat_theta_sd             =   4.7491835336874E+00
(PID.TID 0000.0001) %MON dynstat_theta_del2           =   9.5260680956489E-02
(PID.TID 0000.0001) %MON dynstat_salt_max             =   4.0827304797642E+01
(PID.TID 0000.0001) %MON dynstat_salt_min             =   1.8033189507273E+01
(PID.TID 0000.0001) %MON dynstat_salt_mean            =   3.4756111600819E+01
(PID.TID 0000.0001) %MON dynstat_salt_sd              =   5.1184699163270E-01
(PID.TID 0000.0001) %MON dynstat_salt_del2            =   2.0055773430076E-02
(PID.TID 0000.0001) %MON extforcing_qnet_max          =   7.8369917846873E+02
(PID.TID 0000.0001) %MON extforcing_qnet_min          =  -1.0231510273857E+03
(PID.TID 0000.0001) %MON extforcing_qnet_mean         =  -5.6369677326038E+00
(PID.TID 0000.0001) %MON extforcing_qnet_sd           =   1.2199735270204E+02
(PID.TID 0000.0001) %MON extforcing_qnet_del2         =   1.2724962731649E+01
(PID.TID 0000.0001) %MON extforcing_qsw_max           =   0.0000000000000E+00
(PID.TID 0000.0001) %MON extforcing_qsw_min           =  -3.4114045060289E+02
(PID.TID 0000.0001) %MON extforcing_qsw_mean          =  -1.8653099894407E+02
(PID.TID 0000.0001) %MON extforcing_qsw_sd            =   8.0344624552926E+01
(PID.TID 0000.0001) %MON extforcing_qsw_del2          =   3.9053876615426E+00
(PID.TID 0000.0001) %MON extforcing_empmr_max         =   3.0282211902406E-06
(PID.TID 0000.0001) %MON extforcing_empmr_min         =  -3.7599976400057E-07
(PID.TID 0000.0001) %MON extforcing_empmr_mean        =   1.4817972505506E-09
(PID.TID 0000.0001) %MON extforcing_empmr_sd          =   7.6671000142925E-08
(PID.TID 0000.0001) %MON extforcing_empmr_del2        =   1.0244745095081E-08
(PID.TID 0000.0001) %MON extforcing_fu_max            =   2.4741393863310E-01
(PID.TID 0000.0001) %MON extforcing_fu_min            =  -1.9521866369366E-01
(PID.TID 0000.0001) %MON extforcing_fu_mean           =  -1.4801397481153E-03
(PID.TID 0000.0001) %MON extforcing_fu_sd             =   6.1345105766937E-02
(PID.TID 0000.0001) %MON extforcing_fu_del2           =   3.3640471809518E-03
(PID.TID 0000.0001) %MON extforcing_fv_max            =   2.6354394672640E-01
(PID.TID 0000.0001) %MON extforcing_fv_min            =  -3.3007153975572E-01
(PID.TID 0000.0001) %MON extforcing_fv_mean           =  -5.0062755089266E-03
(PID.TID 0000.0001) %MON extforcing_fv_sd             =   6.7911777661114E-02
(PID.TID 0000.0001) %MON extforcing_fv_del2           =   3.3167920859268E-03
(PID.TID 0000.0001) %MON advcfl_uvel_max              =   7.6510211354769E-02
(PID.TID 0000.0001) %MON advcfl_vvel_max              =   8.4945552605122E-02
(PID.TID 0000.0001) %MON advcfl_wvel_max              =   5.8072533507998E-02
(PID.TID 0000.0001) %MON advcfl_W_hf_max              =   1.2832077965621E-01
(PID.TID 0000.0001) %MON pe_b_mean                    =  -1.9325383518087E-03
(PID.TID 0000.0001) %MON ke_max                       =   3.6374512577671E-02
(PID.TID 0000.0001) %MON ke_mean                      =   1.6203963236605E-04
(PID.TID 0000.0001) %MON ke_vol                       =   1.3395906009501E+18
(PID.TID 0000.0001) %MON vort_r_min                   =  -1.2290180888462E-06
(PID.TID 0000.0001) %MON vort_r_max                   =   1.3796435575894E-06
(PID.TID 0000.0001) %MON vort_a_mean                  =  -2.0493733748264E-05
(PID.TID 0000.0001) %MON vort_a_sd                    =   7.5054013559828E-05
(PID.TID 0000.0001) %MON vort_p_mean                  =  -2.4719491760708E-05
(PID.TID 0000.0001) %MON vort_p_sd                    =   1.2782288151499E-04
(PID.TID 0000.0001) %MON surfExpan_theta_mean         =   7.7165905576287E-08
(PID.TID 0000.0001) %MON surfExpan_salt_mean          =   1.7582859262222E-08
(PID.TID 0000.0001) // =======================================================
(PID.TID 0000.0001) // End MONITOR dynamic field statistics
(PID.TID 0000.0001) // =======================================================
(PID.TID 0000.0001) // =======================================================
(PID.TID 0000.0001) // Begin MONITOR Therm.SeaIce statistics
(PID.TID 0000.0001) // =======================================================
(PID.TID 0000.0001) %MON thSI_time_sec                =   3.1108320000000E+09
(PID.TID 0000.0001) %MON thSI_Ice_Area_G              =   2.4714294892933E+13
(PID.TID 0000.0001) %MON thSI_Ice_Area_S              =   1.1853759243311E+13
(PID.TID 0000.0001) %MON thSI_Ice_Area_N              =   1.2860535649622E+13
(PID.TID 0000.0001) %MON thSI_IceH_ave_G              =   4.6006832512398E+00
(PID.TID 0000.0001) %MON thSI_IceH_ave_S              =   5.7521831281679E+00
(PID.TID 0000.0001) %MON thSI_IceH_ave_N              =   3.5393275906604E+00
(PID.TID 0000.0001) %MON thSI_IceH_max_S              =   1.0000000000000E+01
(PID.TID 0000.0001) %MON thSI_IceH_max_N              =   1.0000000000000E+01
(PID.TID 0000.0001) %MON thSI_SnwH_ave_G              =   1.0423314444456E+00
(PID.TID 0000.0001) %MON thSI_SnwH_ave_S              =   1.7838973614857E+00
(PID.TID 0000.0001) %MON thSI_SnwH_ave_N              =   3.5881840244446E-01
(PID.TID 0000.0001) %MON thSI_SnwH_max_S              =   4.0938709811763E+00
(PID.TID 0000.0001) %MON thSI_SnwH_max_N              =   4.1023510873791E+00
(PID.TID 0000.0001) %MON thSI_TotEnerg_G              =  -3.8141392478452E+22
(PID.TID 0000.0001) %MON thSI_Tsrf_ave_G              =  -1.7069134118889E+01
(PID.TID 0000.0001) %MON thSI_Tsrf_ave_S              =  -1.1190144995897E-01
(PID.TID 0000.0001) %MON thSI_Tsrf_ave_N              =  -3.2698883840567E+01
(PID.TID 0000.0001) %MON thSI_Tsrf_min_S              =  -5.3696273358936E+00
(PID.TID 0000.0001) %MON thSI_Tsrf_min_N              =  -4.6698372978975E+01
(PID.TID 0000.0001) %MON thSI_Tsrf_max_S              =   0.0000000000000E+00
(PID.TID 0000.0001) %MON thSI_Tsrf_max_N              =  -1.6927842726261E+00
(PID.TID 0000.0001) %MON thSI_Tic1_ave_G              =  -8.4374502336740E+00
(PID.TID 0000.0001) %MON thSI_Tic1_ave_S              =  -5.0689803005868E+00
(PID.TID 0000.0001) %MON thSI_Tic1_ave_N              =  -1.3483385353525E+01
(PID.TID 0000.0001) %MON thSI_Tic1_min_S              =  -1.5909889436193E+01
(PID.TID 0000.0001) %MON thSI_Tic1_min_N              =  -2.0951035828916E+01
(PID.TID 0000.0001) %MON thSI_Tic1_max_S              =  -1.8509763795920E-01
(PID.TID 0000.0001) %MON thSI_Tic1_max_N              =  -6.8876929447939E-01
(PID.TID 0000.0001) %MON thSI_Tic2_ave_G              =  -3.8107282547309E+00
(PID.TID 0000.0001) %MON thSI_Tic2_ave_S              =  -3.0895397319082E+00
(PID.TID 0000.0001) %MON thSI_Tic2_ave_N              =  -4.8910616309026E+00
(PID.TID 0000.0001) %MON thSI_Tic2_min_S              =  -8.6709855967151E+00
(PID.TID 0000.0001) %MON thSI_Tic2_min_N              =  -7.5697098479494E+00
(PID.TID 0000.0001) %MON thSI_Tic2_max_S              =  -1.2560465510078E+00
(PID.TID 0000.0001) %MON thSI_Tic2_max_N              =  -1.2474917058021E+00
(PID.TID 0000.0001) // =======================================================
(PID.TID 0000.0001) // End MONITOR Therm.SeaIce statistics
(PID.TID 0000.0001) // =======================================================
 cg2d: Sum(rhs),rhsMax =   3.91560806072667E+02  2.29486824458867E+02
(PID.TID 0000.0001)                    cg2d_init_res =    2.98129881285991E+00
(PID.TID 0000.0001)                       cg2d_iters =    68
(PID.TID 0000.0001)                         cg2d_res =    5.59156517702575E-07
(PID.TID 0000.0001) // =======================================================
(PID.TID 0000.0001) // Begin MONITOR dynamic field statistics
(PID.TID 0000.0001) // =======================================================
(PID.TID 0000.0001) %MON time_tsnumber                =                 36006
(PID.TID 0000.0001) %MON time_secondsf                =   3.1109184000000E+09
(PID.TID 0000.0001) %MON dynstat_eta_max              =   7.2726856753051E-01
(PID.TID 0000.0001) %MON dynstat_eta_min              =  -1.1976281456554E+01
(PID.TID 0000.0001) %MON dynstat_eta_mean             =  -5.8238523610661E-01
(PID.TID 0000.0001) %MON dynstat_eta_sd               =   1.7018617073474E+00
(PID.TID 0000.0001) %MON dynstat_eta_del2             =   9.8185023188189E-02
(PID.TID 0000.0001) %MON dynstat_uvel_max             =   1.7442579170782E-01
(PID.TID 0000.0001) %MON dynstat_uvel_min             =  -2.6939127796286E-01
(PID.TID 0000.0001) %MON dynstat_uvel_mean            =  -5.2624442154250E-04
(PID.TID 0000.0001) %MON dynstat_uvel_sd              =   1.2986365654100E-02
(PID.TID 0000.0001) %MON dynstat_uvel_del2            =   1.7914534416456E-03
(PID.TID 0000.0001) %MON dynstat_vvel_max             =   1.9506272663088E-01
(PID.TID 0000.0001) %MON dynstat_vvel_min             =  -2.1109226281417E-01
(PID.TID 0000.0001) %MON dynstat_vvel_mean            =  -4.2326374656975E-04
(PID.TID 0000.0001) %MON dynstat_vvel_sd              =   1.3484902463339E-02
(PID.TID 0000.0001) %MON dynstat_vvel_del2            =   1.8254853096259E-03
(PID.TID 0000.0001) %MON dynstat_wvel_max             =   8.5274196601537E-05
(PID.TID 0000.0001) %MON dynstat_wvel_min             =  -1.7822819109274E-04
(PID.TID 0000.0001) %MON dynstat_wvel_mean            =  -1.1037350164513E-09
(PID.TID 0000.0001) %MON dynstat_wvel_sd              =   4.6270233088016E-06
(PID.TID 0000.0001) %MON dynstat_wvel_del2            =   1.1362254348226E-06
(PID.TID 0000.0001) %MON dynstat_theta_max            =   3.0042865787102E+01
(PID.TID 0000.0001) %MON dynstat_theta_min            =  -3.3414266866189E+00
(PID.TID 0000.0001) %MON dynstat_theta_mean           =   3.5031461264475E+00
(PID.TID 0000.0001) %MON dynstat_theta_sd             =   4.7492616160642E+00
(PID.TID 0000.0001) %MON dynstat_theta_del2           =   9.5283595612970E-02
(PID.TID 0000.0001) %MON dynstat_salt_max             =   4.0829243760358E+01
(PID.TID 0000.0001) %MON dynstat_salt_min             =   1.8033756454996E+01
(PID.TID 0000.0001) %MON dynstat_salt_mean            =   3.4756113168024E+01
(PID.TID 0000.0001) %MON dynstat_salt_sd              =   5.1183672030368E-01
(PID.TID 0000.0001) %MON dynstat_salt_del2            =   2.0053610832780E-02
(PID.TID 0000.0001) %MON extforcing_qnet_max          =   7.8716412660643E+02
(PID.TID 0000.0001) %MON extforcing_qnet_min          =  -6.0484430503455E+02
(PID.TID 0000.0001) %MON extforcing_qnet_mean         =  -5.7231665446685E+00
(PID.TID 0000.0001) %MON extforcing_qnet_sd           =   1.2106527540420E+02
(PID.TID 0000.0001) %MON extforcing_qnet_del2         =   1.2643944676234E+01
(PID.TID 0000.0001) %MON extforcing_qsw_max           =   0.0000000000000E+00
(PID.TID 0000.0001) %MON extforcing_qsw_min           =  -3.4093640795569E+02
(PID.TID 0000.0001) %MON extforcing_qsw_mean          =  -1.8654832103810E+02
(PID.TID 0000.0001) %MON extforcing_qsw_sd            =   8.0202774081333E+01
(PID.TID 0000.0001) %MON extforcing_qsw_del2          =   3.9022731915973E+00
(PID.TID 0000.0001) %MON extforcing_empmr_max         =   1.7899603033632E-06
(PID.TID 0000.0001) %MON extforcing_empmr_min         =  -3.6484367084173E-07
(PID.TID 0000.0001) %MON extforcing_empmr_mean        =   1.0810577401420E-09
(PID.TID 0000.0001) %MON extforcing_empmr_sd          =   6.4951992770340E-08
(PID.TID 0000.0001) %MON extforcing_empmr_del2        =   9.7127945541906E-09
(PID.TID 0000.0001) %MON extforcing_fu_max            =   2.4736588936290E-01
(PID.TID 0000.0001) %MON extforcing_fu_min            =  -1.9688751208399E-01
(PID.TID 0000.0001) %MON extforcing_fu_mean           =  -1.4823480868819E-03
(PID.TID 0000.0001) %MON extforcing_fu_sd             =   6.1365172744304E-02
(PID.TID 0000.0001) %MON extforcing_fu_del2           =   3.3732971611955E-03
(PID.TID 0000.0001) %MON extforcing_fv_max            =   2.6622718829904E-01
(PID.TID 0000.0001) %MON extforcing_fv_min            =  -3.3085944368965E-01
(PID.TID 0000.0001) %MON extforcing_fv_mean           =  -5.0674283316761E-03
(PID.TID 0000.0001) %MON extforcing_fv_sd             =   6.8106312758906E-02
(PID.TID 0000.0001) %MON extforcing_fv_del2           =   3.3244437858630E-03
(PID.TID 0000.0001) %MON advcfl_uvel_max              =   7.6404476428968E-02
(PID.TID 0000.0001) %MON advcfl_vvel_max              =   8.5025094452927E-02
(PID.TID 0000.0001) %MON advcfl_wvel_max              =   5.8109115888350E-02
(PID.TID 0000.0001) %MON advcfl_W_hf_max              =   1.2742162171097E-01
(PID.TID 0000.0001) %MON pe_b_mean                    =  -1.9323881514812E-03
(PID.TID 0000.0001) %MON ke_max                       =   3.6257628778992E-02
(PID.TID 0000.0001) %MON ke_mean                      =   1.6205161103799E-04
(PID.TID 0000.0001) %MON ke_vol                       =   1.3395905559381E+18
(PID.TID 0000.0001) %MON vort_r_min                   =  -1.2335199973327E-06
(PID.TID 0000.0001) %MON vort_r_max                   =   1.3830294077759E-06
(PID.TID 0000.0001) %MON vort_a_mean                  =  -2.0493733748264E-05
(PID.TID 0000.0001) %MON vort_a_sd                    =   7.5054013468865E-05
(PID.TID 0000.0001) %MON vort_p_mean                  =  -2.4719492000811E-05
(PID.TID 0000.0001) %MON vort_p_sd                    =   1.2782289654594E-04
(PID.TID 0000.0001) %MON surfExpan_theta_mean         =   7.8381645084905E-08
(PID.TID 0000.0001) %MON surfExpan_salt_mean          =   1.8170016581013E-08
(PID.TID 0000.0001) // =======================================================
(PID.TID 0000.0001) // End MONITOR dynamic field statistics
(PID.TID 0000.0001) // =======================================================
(PID.TID 0000.0001) // =======================================================
(PID.TID 0000.0001) // Begin MONITOR Therm.SeaIce statistics
(PID.TID 0000.0001) // =======================================================
(PID.TID 0000.0001) %MON thSI_time_sec                =   3.1109184000000E+09
(PID.TID 0000.0001) %MON thSI_Ice_Area_G              =   2.4711486557648E+13
(PID.TID 0000.0001) %MON thSI_Ice_Area_S              =   1.1798413855821E+13
(PID.TID 0000.0001) %MON thSI_Ice_Area_N              =   1.2913072701826E+13
(PID.TID 0000.0001) %MON thSI_IceH_ave_G              =   4.6033156092335E+00
(PID.TID 0000.0001) %MON thSI_IceH_ave_S              =   5.7721890058392E+00
(PID.TID 0000.0001) %MON thSI_IceH_ave_N              =   3.5353395824074E+00
(PID.TID 0000.0001) %MON thSI_IceH_max_S              =   1.0000000000000E+01
(PID.TID 0000.0001) %MON thSI_IceH_max_N              =   1.0000000000000E+01
(PID.TID 0000.0001) %MON thSI_SnwH_ave_G              =   1.0383550389573E+00
(PID.TID 0000.0001) %MON thSI_SnwH_ave_S              =   1.7805496956562E+00
(PID.TID 0000.0001) %MON thSI_SnwH_ave_N              =   3.6022676356443E-01
(PID.TID 0000.0001) %MON thSI_SnwH_max_S              =   4.0937742958133E+00
(PID.TID 0000.0001) %MON thSI_SnwH_max_N              =   4.1025602113811E+00
(PID.TID 0000.0001) %MON thSI_TotEnerg_G              =  -3.8149579282075E+22
(PID.TID 0000.0001) %MON thSI_Tsrf_ave_G              =  -1.7181609837988E+01
(PID.TID 0000.0001) %MON thSI_Tsrf_ave_S              =  -1.3330423584835E-01
(PID.TID 0000.0001) %MON thSI_Tsrf_ave_N              =  -3.2758302518275E+01
(PID.TID 0000.0001) %MON thSI_Tsrf_min_S              =  -5.3858531484685E+00
(PID.TID 0000.0001) %MON thSI_Tsrf_min_N              =  -4.6813004125230E+01
(PID.TID 0000.0001) %MON thSI_Tsrf_max_S              =   0.0000000000000E+00
(PID.TID 0000.0001) %MON thSI_Tsrf_max_N              =  -7.3605081736096E+00
(PID.TID 0000.0001) %MON thSI_Tic1_ave_G              =  -8.4586752854402E+00
(PID.TID 0000.0001) %MON thSI_Tic1_ave_S              =  -5.0430600985371E+00
(PID.TID 0000.0001) %MON thSI_Tic1_ave_N              =  -1.3554005952419E+01
(PID.TID 0000.0001) %MON thSI_Tic1_min_S              =  -1.5764667960408E+01
(PID.TID 0000.0001) %MON thSI_Tic1_min_N              =  -2.1020816674715E+01
(PID.TID 0000.0001) %MON thSI_Tic1_max_S              =  -1.8087335394142E-01
(PID.TID 0000.0001) %MON thSI_Tic1_max_N              =  -7.0529123818686E-01
(PID.TID 0000.0001) %MON thSI_Tic2_ave_G              =  -3.8221274859572E+00
(PID.TID 0000.0001) %MON thSI_Tic2_ave_S              =  -3.0857945337348E+00
(PID.TID 0000.0001) %MON thSI_Tic2_ave_N              =  -4.9205708606537E+00
(PID.TID 0000.0001) %MON thSI_Tic2_min_S              =  -8.6430484724896E+00
(PID.TID 0000.0001) %MON thSI_Tic2_min_N              =  -7.6042063889392E+00
(PID.TID 0000.0001) %MON thSI_Tic2_max_S              =  -1.2542334461542E+00
(PID.TID 0000.0001) %MON thSI_Tic2_max_N              =  -1.2644395286048E+00
(PID.TID 0000.0001) // =======================================================
(PID.TID 0000.0001) // End MONITOR Therm.SeaIce statistics
(PID.TID 0000.0001) // =======================================================
 cg2d: Sum(rhs),rhsMax =   3.91602983553841E+02  2.29566484051821E+02
(PID.TID 0000.0001)                    cg2d_init_res =    2.81903552677419E+00
(PID.TID 0000.0001)                       cg2d_iters =    68
(PID.TID 0000.0001)                         cg2d_res =    5.65826170878109E-07
(PID.TID 0000.0001) // =======================================================
(PID.TID 0000.0001) // Begin MONITOR dynamic field statistics
(PID.TID 0000.0001) // =======================================================
(PID.TID 0000.0001) %MON time_tsnumber                =                 36007
(PID.TID 0000.0001) %MON time_secondsf                =   3.1110048000000E+09
(PID.TID 0000.0001) %MON dynstat_eta_max              =   7.2602427424128E-01
(PID.TID 0000.0001) %MON dynstat_eta_min              =  -1.1974219366439E+01
(PID.TID 0000.0001) %MON dynstat_eta_mean             =  -5.8244796848930E-01
(PID.TID 0000.0001) %MON dynstat_eta_sd               =   1.7014157818854E+00
(PID.TID 0000.0001) %MON dynstat_eta_del2             =   9.8246134928415E-02
(PID.TID 0000.0001) %MON dynstat_uvel_max             =   1.7455800370558E-01
(PID.TID 0000.0001) %MON dynstat_uvel_min             =  -2.6900676068744E-01
(PID.TID 0000.0001) %MON dynstat_uvel_mean            =  -5.2581187335544E-04
(PID.TID 0000.0001) %MON dynstat_uvel_sd              =   1.2985487534040E-02
(PID.TID 0000.0001) %MON dynstat_uvel_del2            =   1.7911292035159E-03
(PID.TID 0000.0001) %MON dynstat_vvel_max             =   1.9518458870588E-01
(PID.TID 0000.0001) %MON dynstat_vvel_min             =  -2.1116623272979E-01
(PID.TID 0000.0001) %MON dynstat_vvel_mean            =  -4.2263640322950E-04
(PID.TID 0000.0001) %MON dynstat_vvel_sd              =   1.3486496312669E-02
(PID.TID 0000.0001) %MON dynstat_vvel_del2            =   1.8244139158192E-03
(PID.TID 0000.0001) %MON dynstat_wvel_max             =   8.6021210262812E-05
(PID.TID 0000.0001) %MON dynstat_wvel_min             =  -1.7828749092487E-04
(PID.TID 0000.0001) %MON dynstat_wvel_mean            =  -1.1574410450410E-09
(PID.TID 0000.0001) %MON dynstat_wvel_sd              =   4.6268712150499E-06
(PID.TID 0000.0001) %MON dynstat_wvel_del2            =   1.1359725584707E-06
(PID.TID 0000.0001) %MON dynstat_theta_max            =   3.0021788221921E+01
(PID.TID 0000.0001) %MON dynstat_theta_min            =  -3.3492962745281E+00
(PID.TID 0000.0001) %MON dynstat_theta_mean           =   3.5032120903775E+00
(PID.TID 0000.0001) %MON dynstat_theta_sd             =   4.7493486376842E+00
(PID.TID 0000.0001) %MON dynstat_theta_del2           =   9.5297547882038E-02
(PID.TID 0000.0001) %MON dynstat_salt_max             =   4.0831042329601E+01
(PID.TID 0000.0001) %MON dynstat_salt_min             =   1.8034316661216E+01
(PID.TID 0000.0001) %MON dynstat_salt_mean            =   3.4756114542535E+01
(PID.TID 0000.0001) %MON dynstat_salt_sd              =   5.1182762637745E-01
(PID.TID 0000.0001) %MON dynstat_salt_del2            =   2.0049688318026E-02
(PID.TID 0000.0001) %MON extforcing_qnet_max          =   7.9044490422751E+02
(PID.TID 0000.0001) %MON extforcing_qnet_min          =  -3.6656405338187E+02
(PID.TID 0000.0001) %MON extforcing_qnet_mean         =  -5.7746424040532E+00
(PID.TID 0000.0001) %MON extforcing_qnet_sd           =   1.2061070206044E+02
(PID.TID 0000.0001) %MON extforcing_qnet_del2         =   1.2519445789878E+01
(PID.TID 0000.0001) %MON extforcing_qsw_max           =   0.0000000000000E+00
(PID.TID 0000.0001) %MON extforcing_qsw_min           =  -3.4073236530849E+02
(PID.TID 0000.0001) %MON extforcing_qsw_mean          =  -1.8657047480672E+02
(PID.TID 0000.0001) %MON extforcing_qsw_sd            =   8.0062207976450E+01
(PID.TID 0000.0001) %MON extforcing_qsw_del2          =   3.9069683270663E+00
(PID.TID 0000.0001) %MON extforcing_empmr_max         =   1.0846313830900E-06
(PID.TID 0000.0001) %MON extforcing_empmr_min         =  -3.5175865003613E-07
(PID.TID 0000.0001) %MON extforcing_empmr_mean        =   7.5148166760049E-10
(PID.TID 0000.0001) %MON extforcing_empmr_sd          =   5.7965050828837E-08
(PID.TID 0000.0001) %MON extforcing_empmr_del2        =   9.1297475791817E-09
(PID.TID 0000.0001) %MON extforcing_fu_max            =   2.4731784009269E-01
(PID.TID 0000.0001) %MON extforcing_fu_min            =  -1.9855636047431E-01
(PID.TID 0000.0001) %MON extforcing_fu_mean           =  -1.4845564253242E-03
(PID.TID 0000.0001) %MON extforcing_fu_sd             =   6.1397818312004E-02
(PID.TID 0000.0001) %MON extforcing_fu_del2           =   3.3852475017162E-03
(PID.TID 0000.0001) %MON extforcing_fv_max            =   2.6891042987167E-01
(PID.TID 0000.0001) %MON extforcing_fv_min            =  -3.3164734762358E-01
(PID.TID 0000.0001) %MON extforcing_fv_mean           =  -5.1285811779041E-03
(PID.TID 0000.0001) %MON extforcing_fv_sd             =   6.8308860118187E-02
(PID.TID 0000.0001) %MON extforcing_fv_del2           =   3.3339640091174E-03
(PID.TID 0000.0001) %MON advcfl_uvel_max              =   7.6295420035871E-02
(PID.TID 0000.0001) %MON advcfl_vvel_max              =   8.5078212414600E-02
(PID.TID 0000.0001) %MON advcfl_wvel_max              =   5.8128449871353E-02
(PID.TID 0000.0001) %MON advcfl_W_hf_max              =   1.2645824953145E-01
(PID.TID 0000.0001) %MON pe_b_mean                    =  -1.9318711771792E-03
(PID.TID 0000.0001) %MON ke_max                       =   3.6138262647663E-02
(PID.TID 0000.0001) %MON ke_mean                      =   1.6206063396843E-04
(PID.TID 0000.0001) %MON ke_vol                       =   1.3395905230992E+18
(PID.TID 0000.0001) %MON vort_r_min                   =  -1.2382143990641E-06
(PID.TID 0000.0001) %MON vort_r_max                   =   1.3865184978533E-06
(PID.TID 0000.0001) %MON vort_a_mean                  =  -2.0493733748264E-05
(PID.TID 0000.0001) %MON vort_a_sd                    =   7.5054013387106E-05
(PID.TID 0000.0001) %MON vort_p_mean                  =  -2.4719492067030E-05
(PID.TID 0000.0001) %MON vort_p_sd                    =   1.2782290773658E-04
(PID.TID 0000.0001) %MON surfExpan_theta_mean         =   7.9332837903192E-08
(PID.TID 0000.0001) %MON surfExpan_salt_mean          =   1.8576385394276E-08
(PID.TID 0000.0001) // =======================================================
(PID.TID 0000.0001) // End MONITOR dynamic field statistics
(PID.TID 0000.0001) // =======================================================
(PID.TID 0000.0001) // =======================================================
(PID.TID 0000.0001) // Begin MONITOR Therm.SeaIce statistics
(PID.TID 0000.0001) // =======================================================
(PID.TID 0000.0001) %MON thSI_time_sec                =   3.1110048000000E+09
(PID.TID 0000.0001) %MON thSI_Ice_Area_G              =   2.4728678965401E+13
(PID.TID 0000.0001) %MON thSI_Ice_Area_S              =   1.1753333133808E+13
(PID.TID 0000.0001) %MON thSI_Ice_Area_N              =   1.2975345831593E+13
(PID.TID 0000.0001) %MON thSI_IceH_ave_G              =   4.6017343161597E+00
(PID.TID 0000.0001) %MON thSI_IceH_ave_S              =   5.7873423266500E+00
(PID.TID 0000.0001) %MON thSI_IceH_ave_N              =   3.5277863771786E+00
(PID.TID 0000.0001) %MON thSI_IceH_max_S              =   1.0000000000000E+01
(PID.TID 0000.0001) %MON thSI_IceH_max_N              =   1.0000000000000E+01
(PID.TID 0000.0001) %MON thSI_SnwH_ave_G              =   1.0337226991018E+00
(PID.TID 0000.0001) %MON thSI_SnwH_ave_S              =   1.7759706186317E+00
(PID.TID 0000.0001) %MON thSI_SnwH_ave_N              =   3.6137938129442E-01
(PID.TID 0000.0001) %MON thSI_SnwH_max_S              =   4.0936806343434E+00
(PID.TID 0000.0001) %MON thSI_SnwH_max_N              =   4.1027881021742E+00
(PID.TID 0000.0001) %MON thSI_TotEnerg_G              =  -3.8154635178149E+22
(PID.TID 0000.0001) %MON thSI_Tsrf_ave_G              =  -1.7240189798806E+01
(PID.TID 0000.0001) %MON thSI_Tsrf_ave_S              =  -1.1539254724450E-01
(PID.TID 0000.0001) %MON thSI_Tsrf_ave_N              =  -3.2752180735993E+01
(PID.TID 0000.0001) %MON thSI_Tsrf_min_S              =  -5.4020394714918E+00
(PID.TID 0000.0001) %MON thSI_Tsrf_min_N              =  -4.6927733478622E+01
(PID.TID 0000.0001) %MON thSI_Tsrf_max_S              =   0.0000000000000E+00
(PID.TID 0000.0001) %MON thSI_Tsrf_max_N              =  -1.8883331743472E+00
(PID.TID 0000.0001) %MON thSI_Tic1_ave_G              =  -8.4822997079252E+00
(PID.TID 0000.0001) %MON thSI_Tic1_ave_S              =  -5.0225556863069E+00
(PID.TID 0000.0001) %MON thSI_Tic1_ave_N              =  -1.3623481546515E+01
(PID.TID 0000.0001) %MON thSI_Tic1_min_S              =  -1.5621093436092E+01
(PID.TID 0000.0001) %MON thSI_Tic1_min_N              =  -2.1088252564322E+01
(PID.TID 0000.0001) %MON thSI_Tic1_max_S              =  -2.0680725725492E-01
(PID.TID 0000.0001) %MON thSI_Tic1_max_N              =  -7.2252586071640E-01
(PID.TID 0000.0001) %MON thSI_Tic2_ave_G              =  -3.8331791511346E+00
(PID.TID 0000.0001) %MON thSI_Tic2_ave_S              =  -3.0820084266198E+00
(PID.TID 0000.0001) %MON thSI_Tic2_ave_N              =  -4.9494193302994E+00
(PID.TID 0000.0001) %MON thSI_Tic2_min_S              =  -8.6149135964302E+00
(PID.TID 0000.0001) %MON thSI_Tic2_min_N              =  -7.6376224835958E+00
(PID.TID 0000.0001) %MON thSI_Tic2_max_S              =  -1.2516924229696E+00
(PID.TID 0000.0001) %MON thSI_Tic2_max_N              =  -1.2809188613019E+00
(PID.TID 0000.0001) // =======================================================
(PID.TID 0000.0001) // End MONITOR Therm.SeaIce statistics
(PID.TID 0000.0001) // =======================================================
 cg2d: Sum(rhs),rhsMax =   3.91635757979409E+02  2.29653769749483E+02
(PID.TID 0000.0001)                    cg2d_init_res =    2.70540421565385E+00
(PID.TID 0000.0001)                       cg2d_iters =    68
(PID.TID 0000.0001)                         cg2d_res =    5.77506868191241E-07
(PID.TID 0000.0001) // =======================================================
(PID.TID 0000.0001) // Begin MONITOR dynamic field statistics
(PID.TID 0000.0001) // =======================================================
(PID.TID 0000.0001) %MON time_tsnumber                =                 36008
(PID.TID 0000.0001) %MON time_secondsf                =   3.1110912000000E+09
(PID.TID 0000.0001) %MON dynstat_eta_max              =   7.2476022561180E-01
(PID.TID 0000.0001) %MON dynstat_eta_min              =  -1.1972060738413E+01
(PID.TID 0000.0001) %MON dynstat_eta_mean             =  -5.8249671530276E-01
(PID.TID 0000.0001) %MON dynstat_eta_sd               =   1.7009547842775E+00
(PID.TID 0000.0001) %MON dynstat_eta_del2             =   9.8301748533903E-02
(PID.TID 0000.0001) %MON dynstat_uvel_max             =   1.7462674847291E-01
(PID.TID 0000.0001) %MON dynstat_uvel_min             =  -2.6861011067164E-01
(PID.TID 0000.0001) %MON dynstat_uvel_mean            =  -5.2538709036776E-04
(PID.TID 0000.0001) %MON dynstat_uvel_sd              =   1.2984643280728E-02
(PID.TID 0000.0001) %MON dynstat_uvel_del2            =   1.7906897436102E-03
(PID.TID 0000.0001) %MON dynstat_vvel_max             =   1.9524530967826E-01
(PID.TID 0000.0001) %MON dynstat_vvel_min             =  -2.1123358400810E-01
(PID.TID 0000.0001) %MON dynstat_vvel_mean            =  -4.2196144297702E-04
(PID.TID 0000.0001) %MON dynstat_vvel_sd              =   1.3487815812985E-02
(PID.TID 0000.0001) %MON dynstat_vvel_del2            =   1.8233153954470E-03
(PID.TID 0000.0001) %MON dynstat_wvel_max             =   8.6780203355011E-05
(PID.TID 0000.0001) %MON dynstat_wvel_min             =  -1.7829679329355E-04
(PID.TID 0000.0001) %MON dynstat_wvel_mean            =  -1.1591637611372E-09
(PID.TID 0000.0001) %MON dynstat_wvel_sd              =   4.6266608393631E-06
(PID.TID 0000.0001) %MON dynstat_wvel_del2            =   1.1357782322568E-06
(PID.TID 0000.0001) %MON dynstat_theta_max            =   3.0000588844819E+01
(PID.TID 0000.0001) %MON dynstat_theta_min            =  -3.3675965109018E+00
(PID.TID 0000.0001) %MON dynstat_theta_mean           =   3.5032789238556E+00
(PID.TID 0000.0001) %MON dynstat_theta_sd             =   4.7494441566172E+00
(PID.TID 0000.0001) %MON dynstat_theta_del2           =   9.5341159362952E-02
(PID.TID 0000.0001) %MON dynstat_salt_max             =   4.0832702556218E+01
(PID.TID 0000.0001) %MON dynstat_salt_min             =   1.8034874292855E+01
(PID.TID 0000.0001) %MON dynstat_salt_mean            =   3.4756115814640E+01
(PID.TID 0000.0001) %MON dynstat_salt_sd              =   5.1181875784946E-01
(PID.TID 0000.0001) %MON dynstat_salt_del2            =   2.0048724369465E-02
(PID.TID 0000.0001) %MON extforcing_qnet_max          =   7.9369311626003E+02
(PID.TID 0000.0001) %MON extforcing_qnet_min          =  -2.3631207490843E+02
(PID.TID 0000.0001) %MON extforcing_qnet_mean         =  -5.8647332193900E+00
(PID.TID 0000.0001) %MON extforcing_qnet_sd           =   1.2048150520653E+02
(PID.TID 0000.0001) %MON extforcing_qnet_del2         =   1.2521061310097E+01
(PID.TID 0000.0001) %MON extforcing_qsw_max           =   0.0000000000000E+00
(PID.TID 0000.0001) %MON extforcing_qsw_min           =  -3.4052832266130E+02
(PID.TID 0000.0001) %MON extforcing_qsw_mean          =  -1.8659155385851E+02
(PID.TID 0000.0001) %MON extforcing_qsw_sd            =   7.9918134132324E+01
(PID.TID 0000.0001) %MON extforcing_qsw_del2          =   3.9016622713674E+00
(PID.TID 0000.0001) %MON extforcing_empmr_max         =   7.7327801739198E-07
(PID.TID 0000.0001) %MON extforcing_empmr_min         =  -3.3749639716209E-07
(PID.TID 0000.0001) %MON extforcing_empmr_mean        =   5.8394620294671E-10
(PID.TID 0000.0001) %MON extforcing_empmr_sd          =   5.5366580783069E-08
(PID.TID 0000.0001) %MON extforcing_empmr_del2        =   8.8200808738585E-09
(PID.TID 0000.0001) %MON extforcing_fu_max            =   2.4726979082249E-01
(PID.TID 0000.0001) %MON extforcing_fu_min            =  -2.0022520886463E-01
(PID.TID 0000.0001) %MON extforcing_fu_mean           =  -1.4867647607897E-03
(PID.TID 0000.0001) %MON extforcing_fu_sd             =   6.1443022427430E-02
(PID.TID 0000.0001) %MON extforcing_fu_del2           =   3.3994041068143E-03
(PID.TID 0000.0001) %MON extforcing_fv_max            =   2.7159367144430E-01
(PID.TID 0000.0001) %MON extforcing_fv_min            =  -3.3243525155752E-01
(PID.TID 0000.0001) %MON extforcing_fv_mean           =  -5.1897340921729E-03
(PID.TID 0000.0001) %MON extforcing_fv_sd             =   6.8519348756796E-02
(PID.TID 0000.0001) %MON extforcing_fv_del2           =   3.3461490794461E-03
(PID.TID 0000.0001) %MON advcfl_uvel_max              =   7.6182922567461E-02
(PID.TID 0000.0001) %MON advcfl_vvel_max              =   8.5104679831010E-02
(PID.TID 0000.0001) %MON advcfl_wvel_max              =   5.8131482794576E-02
(PID.TID 0000.0001) %MON advcfl_W_hf_max              =   1.2543306681707E-01
(PID.TID 0000.0001) %MON pe_b_mean                    =  -1.9311916017400E-03
(PID.TID 0000.0001) %MON ke_max                       =   3.6016361722570E-02
(PID.TID 0000.0001) %MON ke_mean                      =   1.6206661793209E-04
(PID.TID 0000.0001) %MON ke_vol                       =   1.3395905002717E+18
(PID.TID 0000.0001) %MON vort_r_min                   =  -1.2430719054678E-06
(PID.TID 0000.0001) %MON vort_r_max                   =   1.3900658338888E-06
(PID.TID 0000.0001) %MON vort_a_mean                  =  -2.0493733748264E-05
(PID.TID 0000.0001) %MON vort_a_sd                    =   7.5054013310497E-05
(PID.TID 0000.0001) %MON vort_p_mean                  =  -2.4719491948395E-05
(PID.TID 0000.0001) %MON vort_p_sd                    =   1.2782291679901E-04
(PID.TID 0000.0001) %MON surfExpan_theta_mean         =   7.9817157363788E-08
(PID.TID 0000.0001) %MON surfExpan_salt_mean          =   1.8776863214699E-08
(PID.TID 0000.0001) // =======================================================
(PID.TID 0000.0001) // End MONITOR dynamic field statistics
(PID.TID 0000.0001) // =======================================================
(PID.TID 0000.0001) // =======================================================
(PID.TID 0000.0001) // Begin MONITOR Therm.SeaIce statistics
(PID.TID 0000.0001) // =======================================================
(PID.TID 0000.0001) %MON thSI_time_sec                =   3.1110912000000E+09
(PID.TID 0000.0001) %MON thSI_Ice_Area_G              =   2.4732477318462E+13
(PID.TID 0000.0001) %MON thSI_Ice_Area_S              =   1.1718928367097E+13
(PID.TID 0000.0001) %MON thSI_Ice_Area_N              =   1.3013548951364E+13
(PID.TID 0000.0001) %MON thSI_IceH_ave_G              =   4.6023406448660E+00
(PID.TID 0000.0001) %MON thSI_IceH_ave_S              =   5.7974559565258E+00
(PID.TID 0000.0001) %MON thSI_IceH_ave_N              =   3.5261184106311E+00
(PID.TID 0000.0001) %MON thSI_IceH_max_S              =   1.0000000000000E+01
(PID.TID 0000.0001) %MON thSI_IceH_max_N              =   1.0000000000000E+01
(PID.TID 0000.0001) %MON thSI_SnwH_ave_G              =   1.0299651593692E+00
(PID.TID 0000.0001) %MON thSI_SnwH_ave_S              =   1.7703808684716E+00
(PID.TID 0000.0001) %MON thSI_SnwH_ave_N              =   3.6320786746721E-01
(PID.TID 0000.0001) %MON thSI_SnwH_max_S              =   4.0935939639480E+00
(PID.TID 0000.0001) %MON thSI_SnwH_max_N              =   4.1030347559768E+00
(PID.TID 0000.0001) %MON thSI_TotEnerg_G              =  -3.8157572099555E+22
(PID.TID 0000.0001) %MON thSI_Tsrf_ave_G              =  -1.7332642766632E+01
(PID.TID 0000.0001) %MON thSI_Tsrf_ave_S              =  -1.3713473934715E-01
(PID.TID 0000.0001) %MON thSI_Tsrf_ave_N              =  -3.2817498401381E+01
(PID.TID 0000.0001) %MON thSI_Tsrf_min_S              =  -5.4181865574781E+00
(PID.TID 0000.0001) %MON thSI_Tsrf_min_N              =  -4.7042521195706E+01
(PID.TID 0000.0001) %MON thSI_Tsrf_max_S              =   0.0000000000000E+00
(PID.TID 0000.0001) %MON thSI_Tsrf_max_N              =  -8.1883364337119E+00
(PID.TID 0000.0001) %MON thSI_Tic1_ave_G              =  -8.5028400969343E+00
(PID.TID 0000.0001) %MON thSI_Tic1_ave_S              =  -4.9967301082926E+00
(PID.TID 0000.0001) %MON thSI_Tic1_ave_N              =  -1.3693926425344E+01
(PID.TID 0000.0001) %MON thSI_Tic1_min_S              =  -1.5479148717074E+01
(PID.TID 0000.0001) %MON thSI_Tic1_min_N              =  -2.1153430232662E+01
(PID.TID 0000.0001) %MON thSI_Tic1_max_S              =  -1.9879280119497E-01
(PID.TID 0000.0001) %MON thSI_Tic1_max_N              =  -7.4051119326905E-01
(PID.TID 0000.0001) %MON thSI_Tic2_ave_G              =  -3.8442151429379E+00
(PID.TID 0000.0001) %MON thSI_Tic2_ave_S              =  -3.0781500654690E+00
(PID.TID 0000.0001) %MON thSI_Tic2_ave_N              =  -4.9784379605915E+00
(PID.TID 0000.0001) %MON thSI_Tic2_min_S              =  -8.5854002413500E+00
(PID.TID 0000.0001) %MON thSI_Tic2_min_N              =  -7.6699900995406E+00
(PID.TID 0000.0001) %MON thSI_Tic2_max_S              =  -1.2001073763541E+00
(PID.TID 0000.0001) %MON thSI_Tic2_max_N              =  -1.2969208921071E+00
(PID.TID 0000.0001) // =======================================================
(PID.TID 0000.0001) // End MONITOR Therm.SeaIce statistics
(PID.TID 0000.0001) // =======================================================
 cg2d: Sum(rhs),rhsMax =   3.91658241673742E+02  2.29747332780027E+02
(PID.TID 0000.0001)                    cg2d_init_res =    2.69751665514548E+00
(PID.TID 0000.0001)                       cg2d_iters =    69
(PID.TID 0000.0001)                         cg2d_res =    5.30590886769556E-07
(PID.TID 0000.0001) // =======================================================
(PID.TID 0000.0001) // Begin MONITOR dynamic field statistics
(PID.TID 0000.0001) // =======================================================
(PID.TID 0000.0001) %MON time_tsnumber                =                 36009
(PID.TID 0000.0001) %MON time_secondsf                =   3.1111776000000E+09
(PID.TID 0000.0001) %MON dynstat_eta_max              =   7.2346051440814E-01
(PID.TID 0000.0001) %MON dynstat_eta_min              =  -1.1969799663140E+01
(PID.TID 0000.0001) %MON dynstat_eta_mean             =  -5.8253015626883E-01
(PID.TID 0000.0001) %MON dynstat_eta_sd               =   1.7005116137806E+00
(PID.TID 0000.0001) %MON dynstat_eta_del2             =   9.8351911595198E-02
(PID.TID 0000.0001) %MON dynstat_uvel_max             =   1.7463320527839E-01
(PID.TID 0000.0001) %MON dynstat_uvel_min             =  -2.6820088256581E-01
(PID.TID 0000.0001) %MON dynstat_uvel_mean            =  -5.2495207256265E-04
(PID.TID 0000.0001) %MON dynstat_uvel_sd              =   1.2983879784374E-02
(PID.TID 0000.0001) %MON dynstat_uvel_del2            =   1.7902509197399E-03
(PID.TID 0000.0001) %MON dynstat_vvel_max             =   1.9524444541326E-01
(PID.TID 0000.0001) %MON dynstat_vvel_min             =  -2.1129464667963E-01
(PID.TID 0000.0001) %MON dynstat_vvel_mean            =  -4.2127306488331E-04
(PID.TID 0000.0001) %MON dynstat_vvel_sd              =   1.3488809146174E-02
(PID.TID 0000.0001) %MON dynstat_vvel_del2            =   1.8222614404130E-03
(PID.TID 0000.0001) %MON dynstat_wvel_max             =   8.7539953175062E-05
(PID.TID 0000.0001) %MON dynstat_wvel_min             =  -1.7825847821893E-04
(PID.TID 0000.0001) %MON dynstat_wvel_mean            =  -1.1950885645264E-09
(PID.TID 0000.0001) %MON dynstat_wvel_sd              =   4.6265212290071E-06
(PID.TID 0000.0001) %MON dynstat_wvel_del2            =   1.1357701045410E-06
(PID.TID 0000.0001) %MON dynstat_theta_max            =   2.9979328223442E+01
(PID.TID 0000.0001) %MON dynstat_theta_min            =  -3.3859064161642E+00
(PID.TID 0000.0001) %MON dynstat_theta_mean           =   3.5033464058066E+00
(PID.TID 0000.0001) %MON dynstat_theta_sd             =   4.7495480679024E+00
(PID.TID 0000.0001) %MON dynstat_theta_del2           =   9.5346592362507E-02
(PID.TID 0000.0001) %MON dynstat_salt_max             =   4.0834226166198E+01
(PID.TID 0000.0001) %MON dynstat_salt_min             =   1.8035436125292E+01
(PID.TID 0000.0001) %MON dynstat_salt_mean            =   3.4756116978646E+01
(PID.TID 0000.0001) %MON dynstat_salt_sd              =   5.1181000916936E-01
(PID.TID 0000.0001) %MON dynstat_salt_del2            =   2.0043445037742E-02
(PID.TID 0000.0001) %MON extforcing_qnet_max          =   7.9689313935441E+02
(PID.TID 0000.0001) %MON extforcing_qnet_min          =  -2.3592996469517E+02
(PID.TID 0000.0001) %MON extforcing_qnet_mean         =  -5.9192303744385E+00
(PID.TID 0000.0001) %MON extforcing_qnet_sd           =   1.2039279464708E+02
(PID.TID 0000.0001) %MON extforcing_qnet_del2         =   1.2529540798103E+01
(PID.TID 0000.0001) %MON extforcing_qsw_max           =   0.0000000000000E+00
(PID.TID 0000.0001) %MON extforcing_qsw_min           =  -3.4032428001410E+02
(PID.TID 0000.0001) %MON extforcing_qsw_mean          =  -1.8660231273252E+02
(PID.TID 0000.0001) %MON extforcing_qsw_sd            =   7.9772972616622E+01
(PID.TID 0000.0001) %MON extforcing_qsw_del2          =   3.8897116130274E+00
(PID.TID 0000.0001) %MON extforcing_empmr_max         =   5.1448538452099E-07
(PID.TID 0000.0001) %MON extforcing_empmr_min         =  -3.0328645606101E-07
(PID.TID 0000.0001) %MON extforcing_empmr_mean        =   4.0059490611797E-10
(PID.TID 0000.0001) %MON extforcing_empmr_sd          =   5.3327102765862E-08
(PID.TID 0000.0001) %MON extforcing_empmr_del2        =   8.6497056885711E-09
(PID.TID 0000.0001) %MON extforcing_fu_max            =   2.4722174155228E-01
(PID.TID 0000.0001) %MON extforcing_fu_min            =  -2.0189405725496E-01
(PID.TID 0000.0001) %MON extforcing_fu_mean           =  -1.4889731443510E-03
(PID.TID 0000.0001) %MON extforcing_fu_sd             =   6.1500757370765E-02
(PID.TID 0000.0001) %MON extforcing_fu_del2           =   3.4156393841176E-03
(PID.TID 0000.0001) %MON extforcing_fv_max            =   2.7427691301694E-01
(PID.TID 0000.0001) %MON extforcing_fv_min            =  -3.3322315549145E-01
(PID.TID 0000.0001) %MON extforcing_fv_mean           =  -5.2508870855588E-03
(PID.TID 0000.0001) %MON extforcing_fv_sd             =   6.8737705796716E-02
(PID.TID 0000.0001) %MON extforcing_fv_del2           =   3.3610533236295E-03
(PID.TID 0000.0001) %MON advcfl_uvel_max              =   7.6066857714128E-02
(PID.TID 0000.0001) %MON advcfl_vvel_max              =   8.5104303110073E-02
(PID.TID 0000.0001) %MON advcfl_wvel_max              =   5.8118990634398E-02
(PID.TID 0000.0001) %MON advcfl_W_hf_max              =   1.2434869622687E-01
(PID.TID 0000.0001) %MON pe_b_mean                    =  -1.9304965244182E-03
(PID.TID 0000.0001) %MON ke_max                       =   3.5891866353537E-02
(PID.TID 0000.0001) %MON ke_mean                      =   1.6206947703467E-04
(PID.TID 0000.0001) %MON ke_vol                       =   1.3395904825334E+18
(PID.TID 0000.0001) %MON vort_r_min                   =  -1.2480627052047E-06
(PID.TID 0000.0001) %MON vort_r_max                   =   1.3936238280660E-06
(PID.TID 0000.0001) %MON vort_a_mean                  =  -2.0493733748264E-05
(PID.TID 0000.0001) %MON vort_a_sd                    =   7.5054013236546E-05
(PID.TID 0000.0001) %MON vort_p_mean                  =  -2.4719491766868E-05
(PID.TID 0000.0001) %MON vort_p_sd                    =   1.2782292512814E-04
(PID.TID 0000.0001) %MON surfExpan_theta_mean         =   7.9966800465540E-08
(PID.TID 0000.0001) %MON surfExpan_salt_mean          =   1.8967406379788E-08
(PID.TID 0000.0001) // =======================================================
(PID.TID 0000.0001) // End MONITOR dynamic field statistics
(PID.TID 0000.0001) // =======================================================
(PID.TID 0000.0001) // =======================================================
(PID.TID 0000.0001) // Begin MONITOR Therm.SeaIce statistics
(PID.TID 0000.0001) // =======================================================
(PID.TID 0000.0001) %MON thSI_time_sec                =   3.1111776000000E+09
(PID.TID 0000.0001) %MON thSI_Ice_Area_G              =   2.4721935972866E+13
(PID.TID 0000.0001) %MON thSI_Ice_Area_S              =   1.1683441808242E+13
(PID.TID 0000.0001) %MON thSI_Ice_Area_N              =   1.3038494164625E+13
(PID.TID 0000.0001) %MON thSI_IceH_ave_G              =   4.6053240456159E+00
(PID.TID 0000.0001) %MON thSI_IceH_ave_S              =   5.8081679794338E+00
(PID.TID 0000.0001) %MON thSI_IceH_ave_N              =   3.5274881446508E+00
(PID.TID 0000.0001) %MON thSI_IceH_max_S              =   1.0000000000000E+01
(PID.TID 0000.0001) %MON thSI_IceH_max_N              =   1.0000000000000E+01
(PID.TID 0000.0001) %MON thSI_SnwH_ave_G              =   1.0269979166981E+00
(PID.TID 0000.0001) %MON thSI_SnwH_ave_S              =   1.7653439626563E+00
(PID.TID 0000.0001) %MON thSI_SnwH_ave_N              =   3.6538600405086E-01
(PID.TID 0000.0001) %MON thSI_SnwH_max_S              =   4.0935134012613E+00
(PID.TID 0000.0001) %MON thSI_SnwH_max_N              =   4.1032963312545E+00
(PID.TID 0000.0001) %MON thSI_TotEnerg_G              =  -3.8158850332791E+22
(PID.TID 0000.0001) %MON thSI_Tsrf_ave_G              =  -1.7405253669693E+01
(PID.TID 0000.0001) %MON thSI_Tsrf_ave_S              =  -1.1868023586286E-01
(PID.TID 0000.0001) %MON thSI_Tsrf_ave_N              =  -3.2895284360967E+01
(PID.TID 0000.0001) %MON thSI_Tsrf_min_S              =  -5.4342947037299E+00
(PID.TID 0000.0001) %MON thSI_Tsrf_min_N              =  -4.7157369221471E+01
(PID.TID 0000.0001) %MON thSI_Tsrf_max_S              =   0.0000000000000E+00
(PID.TID 0000.0001) %MON thSI_Tsrf_max_N              =  -9.3206497096779E+00
(PID.TID 0000.0001) %MON thSI_Tic1_ave_G              =  -8.5254775238811E+00
(PID.TID 0000.0001) %MON thSI_Tic1_ave_S              =  -4.9750705649366E+00
(PID.TID 0000.0001) %MON thSI_Tic1_ave_N              =  -1.3763834663584E+01
(PID.TID 0000.0001) %MON thSI_Tic1_min_S              =  -1.5338816837605E+01
(PID.TID 0000.0001) %MON thSI_Tic1_min_N              =  -2.1216432785241E+01
(PID.TID 0000.0001) %MON thSI_Tic1_max_S              =  -1.9135265625053E-01
(PID.TID 0000.0001) %MON thSI_Tic1_max_N              =  -7.5928740750627E-01
(PID.TID 0000.0001) %MON thSI_Tic2_ave_G              =  -3.8550724922883E+00
(PID.TID 0000.0001) %MON thSI_Tic2_ave_S              =  -3.0742612269850E+00
(PID.TID 0000.0001) %MON thSI_Tic2_ave_N              =  -5.0071005030654E+00
(PID.TID 0000.0001) %MON thSI_Tic2_min_S              =  -8.5557358459026E+00
(PID.TID 0000.0001) %MON thSI_Tic2_min_N              =  -7.7013405768786E+00
(PID.TID 0000.0001) %MON thSI_Tic2_max_S              =  -1.1537829832818E+00
(PID.TID 0000.0001) %MON thSI_Tic2_max_N              =  -1.3124358743822E+00
(PID.TID 0000.0001) // =======================================================
(PID.TID 0000.0001) // End MONITOR Therm.SeaIce statistics
(PID.TID 0000.0001) // =======================================================
 cg2d: Sum(rhs),rhsMax =   3.91673795325704E+02  2.29846712394853E+02
(PID.TID 0000.0001)                    cg2d_init_res =    2.67164236794470E+00
(PID.TID 0000.0001)                       cg2d_iters =    69
(PID.TID 0000.0001)                         cg2d_res =    5.45221766086746E-07
(PID.TID 0000.0001) // =======================================================
(PID.TID 0000.0001) // Begin MONITOR dynamic field statistics
(PID.TID 0000.0001) // =======================================================
(PID.TID 0000.0001) %MON time_tsnumber                =                 36010
(PID.TID 0000.0001) %MON time_secondsf                =   3.1112640000000E+09
(PID.TID 0000.0001) %MON dynstat_eta_max              =   7.2212079655732E-01
(PID.TID 0000.0001) %MON dynstat_eta_min              =  -1.1967430481954E+01
(PID.TID 0000.0001) %MON dynstat_eta_mean             =  -5.8255328988469E-01
(PID.TID 0000.0001) %MON dynstat_eta_sd               =   1.7000784092368E+00
(PID.TID 0000.0001) %MON dynstat_eta_del2             =   9.8392775670040E-02
(PID.TID 0000.0001) %MON dynstat_uvel_max             =   1.7457946537473E-01
(PID.TID 0000.0001) %MON dynstat_uvel_min             =  -2.6777869611001E-01
(PID.TID 0000.0001) %MON dynstat_uvel_mean            =  -5.2449034057303E-04
(PID.TID 0000.0001) %MON dynstat_uvel_sd              =   1.2983237118641E-02
(PID.TID 0000.0001) %MON dynstat_uvel_del2            =   1.7898937748323E-03
(PID.TID 0000.0001) %MON dynstat_vvel_max             =   1.9518192044256E-01
(PID.TID 0000.0001) %MON dynstat_vvel_min             =  -2.1134974971661E-01
(PID.TID 0000.0001) %MON dynstat_vvel_mean            =  -4.2060157091050E-04
(PID.TID 0000.0001) %MON dynstat_vvel_sd              =   1.3489436539280E-02
(PID.TID 0000.0001) %MON dynstat_vvel_del2            =   1.8212679721118E-03
(PID.TID 0000.0001) %MON dynstat_wvel_max             =   8.8289789406224E-05
(PID.TID 0000.0001) %MON dynstat_wvel_min             =  -1.7817589424604E-04
(PID.TID 0000.0001) %MON dynstat_wvel_mean            =  -1.1983043314830E-09
(PID.TID 0000.0001) %MON dynstat_wvel_sd              =   4.6263730739894E-06
(PID.TID 0000.0001) %MON dynstat_wvel_del2            =   1.1357399921812E-06
(PID.TID 0000.0001) %MON dynstat_theta_max            =   2.9958062567071E+01
(PID.TID 0000.0001) %MON dynstat_theta_min            =  -3.4042223913481E+00
(PID.TID 0000.0001) %MON dynstat_theta_mean           =   3.5034144674431E+00
(PID.TID 0000.0001) %MON dynstat_theta_sd             =   4.7496592771875E+00
(PID.TID 0000.0001) %MON dynstat_theta_del2           =   9.5391101327218E-02
(PID.TID 0000.0001) %MON dynstat_salt_max             =   4.0835614615048E+01
(PID.TID 0000.0001) %MON dynstat_salt_min             =   1.8036014414662E+01
(PID.TID 0000.0001) %MON dynstat_salt_mean            =   3.4756118071209E+01
(PID.TID 0000.0001) %MON dynstat_salt_sd              =   5.1180099745882E-01
(PID.TID 0000.0001) %MON dynstat_salt_del2            =   2.0043249840325E-02
(PID.TID 0000.0001) %MON extforcing_qnet_max          =   8.0007084643372E+02
(PID.TID 0000.0001) %MON extforcing_qnet_min          =  -2.3554982736639E+02
(PID.TID 0000.0001) %MON extforcing_qnet_mean         =  -5.9771728600285E+00
(PID.TID 0000.0001) %MON extforcing_qnet_sd           =   1.2039627876170E+02
(PID.TID 0000.0001) %MON extforcing_qnet_del2         =   1.2543437716977E+01
(PID.TID 0000.0001) %MON extforcing_qsw_max           =   0.0000000000000E+00
(PID.TID 0000.0001) %MON extforcing_qsw_min           =  -3.4012023736691E+02
(PID.TID 0000.0001) %MON extforcing_qsw_mean          =  -1.8661539892568E+02
(PID.TID 0000.0001) %MON extforcing_qsw_sd            =   7.9628462222367E+01
(PID.TID 0000.0001) %MON extforcing_qsw_del2          =   3.8806218070377E+00
(PID.TID 0000.0001) %MON extforcing_empmr_max         =   3.9182748631887E-07
(PID.TID 0000.0001) %MON extforcing_empmr_min         =  -3.0797998547609E-07
(PID.TID 0000.0001) %MON extforcing_empmr_mean        =   2.7712143989073E-10
(PID.TID 0000.0001) %MON extforcing_empmr_sd          =   5.2480658014720E-08
(PID.TID 0000.0001) %MON extforcing_empmr_del2        =   8.5688991267476E-09
(PID.TID 0000.0001) %MON extforcing_fu_max            =   2.4734156444157E-01
(PID.TID 0000.0001) %MON extforcing_fu_min            =  -2.0356290564528E-01
(PID.TID 0000.0001) %MON extforcing_fu_mean           =  -1.4911816244637E-03
(PID.TID 0000.0001) %MON extforcing_fu_sd             =   6.1570987834811E-02
(PID.TID 0000.0001) %MON extforcing_fu_del2           =   3.4345095694594E-03
(PID.TID 0000.0001) %MON extforcing_fv_max            =   2.7696015458957E-01
(PID.TID 0000.0001) %MON extforcing_fv_min            =  -3.3401105942538E-01
(PID.TID 0000.0001) %MON extforcing_fv_mean           =  -5.3120401197221E-03
(PID.TID 0000.0001) %MON extforcing_fv_sd             =   6.8963856524204E-02
(PID.TID 0000.0001) %MON extforcing_fv_del2           =   3.3780333545283E-03
(PID.TID 0000.0001) %MON advcfl_uvel_max              =   7.5947117626940E-02
(PID.TID 0000.0001) %MON advcfl_vvel_max              =   8.5077049356211E-02
(PID.TID 0000.0001) %MON advcfl_wvel_max              =   5.8092065142861E-02
(PID.TID 0000.0001) %MON advcfl_W_hf_max              =   1.2320505264045E-01
(PID.TID 0000.0001) %MON pe_b_mean                    =  -1.9297593756712E-03
(PID.TID 0000.0001) %MON ke_max                       =   3.5764735826250E-02
(PID.TID 0000.0001) %MON ke_mean                      =   1.6206919412879E-04
(PID.TID 0000.0001) %MON ke_vol                       =   1.3395904703647E+18
(PID.TID 0000.0001) %MON vort_r_min                   =  -1.2531568576025E-06
(PID.TID 0000.0001) %MON vort_r_max                   =   1.3971486985795E-06
(PID.TID 0000.0001) %MON vort_a_mean                  =  -2.0493733748264E-05
(PID.TID 0000.0001) %MON vort_a_sd                    =   7.5054013164148E-05
(PID.TID 0000.0001) %MON vort_p_mean                  =  -2.4719491518129E-05
(PID.TID 0000.0001) %MON vort_p_sd                    =   1.2782293292050E-04
(PID.TID 0000.0001) %MON surfExpan_theta_mean         =   7.9872142092416E-08
(PID.TID 0000.0001) %MON surfExpan_salt_mean          =   1.9130548683317E-08
(PID.TID 0000.0001) // =======================================================
(PID.TID 0000.0001) // End MONITOR dynamic field statistics
(PID.TID 0000.0001) // =======================================================
(PID.TID 0000.0001) // =======================================================
(PID.TID 0000.0001) // Begin MONITOR Therm.SeaIce statistics
(PID.TID 0000.0001) // =======================================================
(PID.TID 0000.0001) %MON thSI_time_sec                =   3.1112640000000E+09
(PID.TID 0000.0001) %MON thSI_Ice_Area_G              =   2.4715252652760E+13
(PID.TID 0000.0001) %MON thSI_Ice_Area_S              =   1.1652380455598E+13
(PID.TID 0000.0001) %MON thSI_Ice_Area_N              =   1.3062872197162E+13
(PID.TID 0000.0001) %MON thSI_IceH_ave_G              =   4.6074197927558E+00
(PID.TID 0000.0001) %MON thSI_IceH_ave_S              =   5.8167896292362E+00
(PID.TID 0000.0001) %MON thSI_IceH_ave_N              =   3.5286342673753E+00
(PID.TID 0000.0001) %MON thSI_IceH_max_S              =   1.0000000000000E+01
(PID.TID 0000.0001) %MON thSI_IceH_max_N              =   1.0000000000000E+01
(PID.TID 0000.0001) %MON thSI_SnwH_ave_G              =   1.0239422370399E+00
(PID.TID 0000.0001) %MON thSI_SnwH_ave_S              =   1.7597595912444E+00
(PID.TID 0000.0001) %MON thSI_SnwH_ave_N              =   3.6757634540343E-01
(PID.TID 0000.0001) %MON thSI_SnwH_max_S              =   4.0934383560337E+00
(PID.TID 0000.0001) %MON thSI_SnwH_max_N              =   4.1035854293653E+00
(PID.TID 0000.0001) %MON thSI_TotEnerg_G              =  -3.8158593450174E+22
(PID.TID 0000.0001) %MON thSI_Tsrf_ave_G              =  -1.7492011558769E+01
(PID.TID 0000.0001) %MON thSI_Tsrf_ave_S              =  -1.4085875415926E-01
(PID.TID 0000.0001) %MON thSI_Tsrf_ave_N              =  -3.2969636293279E+01
(PID.TID 0000.0001) %MON thSI_Tsrf_min_S              =  -5.4503642191932E+00
(PID.TID 0000.0001) %MON thSI_Tsrf_min_N              =  -4.7272278933886E+01
(PID.TID 0000.0001) %MON thSI_Tsrf_max_S              =   0.0000000000000E+00
(PID.TID 0000.0001) %MON thSI_Tsrf_max_N              =  -1.7599613261201E+00
(PID.TID 0000.0001) %MON thSI_Tic1_ave_G              =  -8.5450070671550E+00
(PID.TID 0000.0001) %MON thSI_Tic1_ave_S              =  -4.9489261609398E+00
(PID.TID 0000.0001) %MON thSI_Tic1_ave_N              =  -1.3832893780530E+01
(PID.TID 0000.0001) %MON thSI_Tic1_min_S              =  -1.5200080918030E+01
(PID.TID 0000.0001) %MON thSI_Tic1_min_N              =  -2.1277339874400E+01
(PID.TID 0000.0001) %MON thSI_Tic1_max_S              =  -1.8442675751373E-01
(PID.TID 0000.0001) %MON thSI_Tic1_max_N              =  -7.7889692607171E-01
(PID.TID 0000.0001) %MON thSI_Tic2_ave_G              =  -3.8657009676201E+00
(PID.TID 0000.0001) %MON thSI_Tic2_ave_S              =  -3.0703124298314E+00
(PID.TID 0000.0001) %MON thSI_Tic2_ave_N              =  -5.0352865777977E+00
(PID.TID 0000.0001) %MON thSI_Tic2_min_S              =  -8.5247449262394E+00
(PID.TID 0000.0001) %MON thSI_Tic2_min_N              =  -7.7317045974557E+00
(PID.TID 0000.0001) %MON thSI_Tic2_max_S              =  -1.1132502246313E+00
(PID.TID 0000.0001) %MON thSI_Tic2_max_N              =  -1.3274581948380E+00
(PID.TID 0000.0001) // =======================================================
(PID.TID 0000.0001) // End MONITOR Therm.SeaIce statistics
(PID.TID 0000.0001) // =======================================================
 Computing Diagnostic #  23  ETAN         Counter:       1   Parms: SM      M1      
 Computing Diagnostic #  76  oceFWflx     Counter:       1   Parms: SM      U1      
 Computing Diagnostic #  26  THETA        Counter:       1   Parms: SM      MR      
 Computing Diagnostic #  27  SALT         Counter:       1   Parms: SM      MR      
 Compute Stats, Diag. #  23  ETAN      vol(  0 ): 3.639E+15  Parms: SM      M1      
 Compute Stats, Diag. #  24  ETANSQ    vol(  0 ): 3.639E+15  Parms: SM      M1      
 Compute Stats, Diag. #  25  DETADT2   vol(  0 ): 3.639E+15  Parms: SM      M1      
 Compute Stats, Diag. #  26  THETA     vol(  0 ): 1.340E+19  Parms: SM      MR      
 Compute Stats, Diag. #  27  SALT      vol(  0 ): 1.340E+19  Parms: SM      MR      
 Compute Stats, Diag. #  71  CONVADJ   vol(  0 ): 1.315E+19  Parms: SM      LR      
 Compute Stats, Diag. #  72  oceTAUX   vol(  0 ): 3.111E+15  Parms: SU      U1      
 Compute Stats, Diag. #  73  oceTAUY   vol(  0 ): 3.130E+15  Parms: SV      U1      
 Compute Stats, Diag. #  81  TRELAX    vol(  0 ): 3.275E+15  Parms: SM      U1      
 Compute Stats, Diag. #  82  SRELAX    vol(  0 ): 3.275E+15  Parms: SM      U1      
 Compute Stats, Diag. #  83  surForcT  vol(  0 ): 3.275E+15  Parms: SM      U1      
 Compute Stats, Diag. #  84  surForcS  vol(  0 ): 3.275E+15  Parms: SM      U1      
 Compute Stats, Diag. #  85  TFLUX     vol(  0 ): 3.275E+15  Parms: SM      U1      
 Compute Stats, Diag. #  86  SFLUX     vol(  0 ): 3.275E+15  Parms: SM      U1      
 Compute Stats, Diag. #  78  oceQnet   vol(  0 ): 3.275E+15  Parms: SM      U1      
 Compute Stats, Diag. #  77  oceSflux  vol(  0 ): 3.275E+15  Parms: SM      U1      
 Compute Stats, Diag. #  76  oceFWflx  vol(  0 ): 3.275E+15  Parms: SM      U1      
 Compute Stats, Diag. # 187  SI_Fract  vol(  0 ): 3.639E+15  Parms: SM P    M1      
 Compute Stats, Diag. # 187  SI_Fract  vol(  1 ): 1.289E+15  Parms: SM P    M1      
 Compute Stats, Diag. # 187  SI_Fract  vol(  3 ): 7.935E+14  Parms: SM P    M1      
 Compute Stats, Diag. # 188  SI_Thick  vol(  0 ): 2.471E+14  Parms: SM PC187M1      
    use Counter Mate  # 187  SI_Fract  vol(  0 ): 3.639E+15 integral 2.471E+14
 Compute Stats, Diag. # 188  SI_Thick  vol(  1 ): 1.188E+14  Parms: SM PC187M1      
    use Counter Mate  # 187  SI_Fract  vol(  1 ): 1.289E+15 integral 1.188E+14
 Compute Stats, Diag. # 188  SI_Thick  vol(  3 ): 1.282E+14  Parms: SM PC187M1      
    use Counter Mate  # 187  SI_Fract  vol(  3 ): 7.935E+14 integral 1.282E+14
 Compute Stats, Diag. # 189  SI_SnowH  vol(  0 ): 2.471E+14  Parms: SM PC187M1      
    use Counter Mate  # 187  SI_Fract  vol(  0 ): 3.639E+15 integral 2.471E+14
 Compute Stats, Diag. # 189  SI_SnowH  vol(  1 ): 1.188E+14  Parms: SM PC187M1      
    use Counter Mate  # 187  SI_Fract  vol(  1 ): 1.289E+15 integral 1.188E+14
 Compute Stats, Diag. # 189  SI_SnowH  vol(  3 ): 1.282E+14  Parms: SM PC187M1      
    use Counter Mate  # 187  SI_Fract  vol(  3 ): 7.935E+14 integral 1.282E+14
 Compute Stats, Diag. # 190  SI_Tsrf   vol(  0 ): 2.471E+14  Parms: SM  C187M1      
    use Counter Mate  # 187  SI_Fract  vol(  0 ): 3.639E+15 integral 2.471E+14
 Compute Stats, Diag. # 190  SI_Tsrf   vol(  1 ): 1.188E+14  Parms: SM  C187M1      
    use Counter Mate  # 187  SI_Fract  vol(  1 ): 1.289E+15 integral 1.188E+14
 Compute Stats, Diag. # 190  SI_Tsrf   vol(  3 ): 1.282E+14  Parms: SM  C187M1      
    use Counter Mate  # 187  SI_Fract  vol(  3 ): 7.935E+14 integral 1.282E+14
 Compute Stats, Diag. # 191  SI_Tice1  vol(  0 ): 2.471E+14  Parms: SM  C187M1      
    use Counter Mate  # 187  SI_Fract  vol(  0 ): 3.639E+15 integral 2.471E+14
 Compute Stats, Diag. # 191  SI_Tice1  vol(  1 ): 1.188E+14  Parms: SM  C187M1      
    use Counter Mate  # 187  SI_Fract  vol(  1 ): 1.289E+15 integral 1.188E+14
 Compute Stats, Diag. # 191  SI_Tice1  vol(  3 ): 1.282E+14  Parms: SM  C187M1      
    use Counter Mate  # 187  SI_Fract  vol(  3 ): 7.935E+14 integral 1.282E+14
 Compute Stats, Diag. # 192  SI_Tice2  vol(  0 ): 2.471E+14  Parms: SM  C187M1      
    use Counter Mate  # 187  SI_Fract  vol(  0 ): 3.639E+15 integral 2.471E+14
 Compute Stats, Diag. # 192  SI_Tice2  vol(  1 ): 1.188E+14  Parms: SM  C187M1      
    use Counter Mate  # 187  SI_Fract  vol(  1 ): 1.289E+15 integral 1.188E+14
 Compute Stats, Diag. # 192  SI_Tice2  vol(  3 ): 1.282E+14  Parms: SM  C187M1      
    use Counter Mate  # 187  SI_Fract  vol(  3 ): 7.935E+14 integral 1.282E+14
 Compute Stats, Diag. # 193  SI_Qice1  vol(  0 ): 1.136E+15  Parms: SM  C188M1      
    use Counter Mate  # 188  SI_Thick  vol(  0 ): 2.471E+14 integral 1.136E+15
 Compute Stats, Diag. # 193  SI_Qice1  vol(  1 ): 6.823E+14  Parms: SM  C188M1      
    use Counter Mate  # 188  SI_Thick  vol(  1 ): 1.188E+14 integral 6.823E+14
 Compute Stats, Diag. # 193  SI_Qice1  vol(  3 ): 4.536E+14  Parms: SM  C188M1      
    use Counter Mate  # 188  SI_Thick  vol(  3 ): 1.282E+14 integral 4.536E+14
 Compute Stats, Diag. # 194  SI_Qice2  vol(  0 ): 1.136E+15  Parms: SM  C188M1      
    use Counter Mate  # 188  SI_Thick  vol(  0 ): 2.471E+14 integral 1.136E+15
 Compute Stats, Diag. # 194  SI_Qice2  vol(  1 ): 6.823E+14  Parms: SM  C188M1      
    use Counter Mate  # 188  SI_Thick  vol(  1 ): 1.188E+14 integral 6.823E+14
 Compute Stats, Diag. # 194  SI_Qice2  vol(  3 ): 4.536E+14  Parms: SM  C188M1      
    use Counter Mate  # 188  SI_Thick  vol(  3 ): 1.282E+14 integral 4.536E+14
 Compute Stats, Diag. # 198  SIsnwPrc  vol(  0 ): 2.471E+14  Parms: SM  C196M1      
    use Counter Mate  # 196  SI_FrcFx  vol(  0 ): 3.639E+15 integral 2.471E+14
 Compute Stats, Diag. # 198  SIsnwPrc  vol(  1 ): 1.188E+14  Parms: SM  C196M1      
    use Counter Mate  # 196  SI_FrcFx  vol(  1 ): 1.289E+15 integral 1.188E+14
 Compute Stats, Diag. # 198  SIsnwPrc  vol(  3 ): 1.282E+14  Parms: SM  C196M1      
    use Counter Mate  # 196  SI_FrcFx  vol(  3 ): 7.935E+14 integral 1.282E+14
 Compute Stats, Diag. # 197  SIalbedo  vol(  0 ): 2.471E+14  Parms: SM PC196M1      
    use Counter Mate  # 196  SI_FrcFx  vol(  0 ): 3.639E+15 integral 2.471E+14
 Compute Stats, Diag. # 197  SIalbedo  vol(  1 ): 1.188E+14  Parms: SM PC196M1      
    use Counter Mate  # 196  SI_FrcFx  vol(  1 ): 1.289E+15 integral 1.188E+14
 Compute Stats, Diag. # 197  SIalbedo  vol(  3 ): 1.282E+14  Parms: SM PC196M1      
    use Counter Mate  # 196  SI_FrcFx  vol(  3 ): 7.935E+14 integral 1.282E+14
 Compute Stats, Diag. # 195  SIsnwAge  vol(  0 ): 3.639E+15  Parms: SM P    M1      
 Compute Stats, Diag. # 195  SIsnwAge  vol(  1 ): 1.289E+15  Parms: SM P    M1      
 Compute Stats, Diag. # 195  SIsnwAge  vol(  3 ): 7.935E+14  Parms: SM P    M1      
 Compute Stats, Diag. # 201  SIflx2oc  vol(  0 ): 3.639E+15  Parms: SM      M1      
 Compute Stats, Diag. # 201  SIflx2oc  vol(  1 ): 1.289E+15  Parms: SM      M1      
 Compute Stats, Diag. # 201  SIflx2oc  vol(  3 ): 7.935E+14  Parms: SM      M1      
 Compute Stats, Diag. # 202  SIfrw2oc  vol(  0 ): 3.639E+15  Parms: SM      M1      
 Compute Stats, Diag. # 202  SIfrw2oc  vol(  1 ): 1.289E+15  Parms: SM      M1      
 Compute Stats, Diag. # 202  SIfrw2oc  vol(  3 ): 7.935E+14  Parms: SM      M1      
 Compute Stats, Diag. # 203  SIsaltFx  vol(  0 ): 3.639E+15  Parms: SM      M1      
 Compute Stats, Diag. # 203  SIsaltFx  vol(  1 ): 1.289E+15  Parms: SM      M1      
 Compute Stats, Diag. # 203  SIsaltFx  vol(  3 ): 7.935E+14  Parms: SM      M1      
 Compute Stats, Diag. # 199  SIflxAtm  vol(  0 ): 3.639E+15  Parms: SM      M1      
 Compute Stats, Diag. # 199  SIflxAtm  vol(  1 ): 1.289E+15  Parms: SM      M1      
 Compute Stats, Diag. # 199  SIflxAtm  vol(  3 ): 7.935E+14  Parms: SM      M1      
 Compute Stats, Diag. # 200  SIfrwAtm  vol(  0 ): 3.639E+15  Parms: SM      M1      
 Compute Stats, Diag. # 200  SIfrwAtm  vol(  1 ): 1.289E+15  Parms: SM      M1      
 Compute Stats, Diag. # 200  SIfrwAtm  vol(  3 ): 7.935E+14  Parms: SM      M1      
 cg2d: Sum(rhs),rhsMax =   3.91687584079846E+02  2.29950960318286E+02
(PID.TID 0000.0001)                    cg2d_init_res =    2.70317262346121E+00
(PID.TID 0000.0001)                       cg2d_iters =    69
(PID.TID 0000.0001)                         cg2d_res =    5.65834531219447E-07
(PID.TID 0000.0001) // =======================================================
(PID.TID 0000.0001) // Begin MONITOR dynamic field statistics
(PID.TID 0000.0001) // =======================================================
(PID.TID 0000.0001) %MON time_tsnumber                =                 36011
(PID.TID 0000.0001) %MON time_secondsf                =   3.1113504000000E+09
(PID.TID 0000.0001) %MON dynstat_eta_max              =   7.2075641600576E-01
(PID.TID 0000.0001) %MON dynstat_eta_min              =  -1.1964938241162E+01
(PID.TID 0000.0001) %MON dynstat_eta_mean             =  -5.8257379849207E-01
(PID.TID 0000.0001) %MON dynstat_eta_sd               =   1.6996474470634E+00
(PID.TID 0000.0001) %MON dynstat_eta_del2             =   9.8405904414288E-02
(PID.TID 0000.0001) %MON dynstat_uvel_max             =   1.7446848157651E-01
(PID.TID 0000.0001) %MON dynstat_uvel_min             =  -2.6734328026354E-01
(PID.TID 0000.0001) %MON dynstat_uvel_mean            =  -5.2398486552593E-04
(PID.TID 0000.0001) %MON dynstat_uvel_sd              =   1.2982746303121E-02
(PID.TID 0000.0001) %MON dynstat_uvel_del2            =   1.7896376691325E-03
(PID.TID 0000.0001) %MON dynstat_vvel_max             =   1.9505862505018E-01
(PID.TID 0000.0001) %MON dynstat_vvel_min             =  -2.1139920451474E-01
(PID.TID 0000.0001) %MON dynstat_vvel_mean            =  -4.1996778321371E-04
(PID.TID 0000.0001) %MON dynstat_vvel_sd              =   1.3489670980595E-02
(PID.TID 0000.0001) %MON dynstat_vvel_del2            =   1.8203121276571E-03
(PID.TID 0000.0001) %MON dynstat_wvel_max             =   8.9023129402727E-05
(PID.TID 0000.0001) %MON dynstat_wvel_min             =  -1.7805289590193E-04
(PID.TID 0000.0001) %MON dynstat_wvel_mean            =  -1.1965286421308E-09
(PID.TID 0000.0001) %MON dynstat_wvel_sd              =   4.6262727506616E-06
(PID.TID 0000.0001) %MON dynstat_wvel_del2            =   1.1357211839052E-06
(PID.TID 0000.0001) %MON dynstat_theta_max            =   2.9936844006063E+01
(PID.TID 0000.0001) %MON dynstat_theta_min            =  -3.4225361520126E+00
(PID.TID 0000.0001) %MON dynstat_theta_mean           =   3.5034833713833E+00
(PID.TID 0000.0001) %MON dynstat_theta_sd             =   4.7497780300256E+00
(PID.TID 0000.0001) %MON dynstat_theta_del2           =   9.5433236781939E-02
(PID.TID 0000.0001) %MON dynstat_salt_max             =   4.0836869235320E+01
(PID.TID 0000.0001) %MON dynstat_salt_min             =   1.8036634834894E+01
(PID.TID 0000.0001) %MON dynstat_salt_mean            =   3.4756119161604E+01
(PID.TID 0000.0001) %MON dynstat_salt_sd              =   5.1179182716469E-01
(PID.TID 0000.0001) %MON dynstat_salt_del2            =   2.0048670541768E-02
(PID.TID 0000.0001) %MON extforcing_qnet_max          =   8.0322165793892E+02
(PID.TID 0000.0001) %MON extforcing_qnet_min          =  -2.3517162993601E+02
(PID.TID 0000.0001) %MON extforcing_qnet_mean         =  -6.0782332289638E+00
(PID.TID 0000.0001) %MON extforcing_qnet_sd           =   1.2035627966897E+02
(PID.TID 0000.0001) %MON extforcing_qnet_del2         =   1.2577203700965E+01
(PID.TID 0000.0001) %MON extforcing_qsw_max           =   0.0000000000000E+00
(PID.TID 0000.0001) %MON extforcing_qsw_min           =  -3.3991619471971E+02
(PID.TID 0000.0001) %MON extforcing_qsw_mean          =  -1.8662449160237E+02
(PID.TID 0000.0001) %MON extforcing_qsw_sd            =   7.9486229058781E+01
(PID.TID 0000.0001) %MON extforcing_qsw_del2          =   3.8730635391760E+00
(PID.TID 0000.0001) %MON extforcing_empmr_max         =   7.5773825710658E-07
(PID.TID 0000.0001) %MON extforcing_empmr_min         =  -3.1395368971333E-07
(PID.TID 0000.0001) %MON extforcing_empmr_mean        =   2.4567602589589E-10
(PID.TID 0000.0001) %MON extforcing_empmr_sd          =   5.3176023723729E-08
(PID.TID 0000.0001) %MON extforcing_empmr_del2        =   8.6784519538827E-09
(PID.TID 0000.0001) %MON extforcing_fu_max            =   2.4760593894036E-01
(PID.TID 0000.0001) %MON extforcing_fu_min            =  -2.0523175403560E-01
(PID.TID 0000.0001) %MON extforcing_fu_mean           =  -1.4933902198685E-03
(PID.TID 0000.0001) %MON extforcing_fu_sd             =   6.1653671058936E-02
(PID.TID 0000.0001) %MON extforcing_fu_del2           =   3.4557020502382E-03
(PID.TID 0000.0001) %MON extforcing_fv_max            =   2.7964339616220E-01
(PID.TID 0000.0001) %MON extforcing_fv_min            =  -3.3479896335931E-01
(PID.TID 0000.0001) %MON extforcing_fv_mean           =  -5.3731931240236E-03
(PID.TID 0000.0001) %MON extforcing_fv_sd             =   6.9197724474834E-02
(PID.TID 0000.0001) %MON extforcing_fv_del2           =   3.3965934382679E-03
(PID.TID 0000.0001) %MON advcfl_uvel_max              =   7.5823625433616E-02
(PID.TID 0000.0001) %MON advcfl_vvel_max              =   8.5023306631686E-02
(PID.TID 0000.0001) %MON advcfl_wvel_max              =   5.8051963041233E-02
(PID.TID 0000.0001) %MON advcfl_W_hf_max              =   1.2200580044832E-01
(PID.TID 0000.0001) %MON pe_b_mean                    =  -1.9289762448363E-03
(PID.TID 0000.0001) %MON ke_max                       =   3.5634959837473E-02
(PID.TID 0000.0001) %MON ke_mean                      =   1.6206580003100E-04
(PID.TID 0000.0001) %MON ke_vol                       =   1.3395904619467E+18
(PID.TID 0000.0001) %MON vort_r_min                   =  -1.2583246384894E-06
(PID.TID 0000.0001) %MON vort_r_max                   =   1.4005960394920E-06
(PID.TID 0000.0001) %MON vort_a_mean                  =  -2.0493733748264E-05
(PID.TID 0000.0001) %MON vort_a_sd                    =   7.5054013093174E-05
(PID.TID 0000.0001) %MON vort_p_mean                  =  -2.4719491224325E-05
(PID.TID 0000.0001) %MON vort_p_sd                    =   1.2782294044824E-04
(PID.TID 0000.0001) %MON surfExpan_theta_mean         =   7.9017773663308E-08
(PID.TID 0000.0001) %MON surfExpan_salt_mean          =   1.9106248703987E-08
(PID.TID 0000.0001) // =======================================================
(PID.TID 0000.0001) // End MONITOR dynamic field statistics
(PID.TID 0000.0001) // =======================================================
(PID.TID 0000.0001) // =======================================================
(PID.TID 0000.0001) // Begin MONITOR Therm.SeaIce statistics
(PID.TID 0000.0001) // =======================================================
(PID.TID 0000.0001) %MON thSI_time_sec                =   3.1113504000000E+09
(PID.TID 0000.0001) %MON thSI_Ice_Area_G              =   2.4733277077845E+13
(PID.TID 0000.0001) %MON thSI_Ice_Area_S              =   1.1619067713375E+13
(PID.TID 0000.0001) %MON thSI_Ice_Area_N              =   1.3114209364470E+13
(PID.TID 0000.0001) %MON thSI_IceH_ave_G              =   4.6048474748235E+00
(PID.TID 0000.0001) %MON thSI_IceH_ave_S              =   5.8264416952852E+00
(PID.TID 0000.0001) %MON thSI_IceH_ave_N              =   3.5225263396839E+00
(PID.TID 0000.0001) %MON thSI_IceH_max_S              =   1.0000000000000E+01
(PID.TID 0000.0001) %MON thSI_IceH_max_N              =   1.0000000000000E+01
(PID.TID 0000.0001) %MON thSI_SnwH_ave_G              =   1.0200060933335E+00
(PID.TID 0000.0001) %MON thSI_SnwH_ave_S              =   1.7547803487663E+00
(PID.TID 0000.0001) %MON thSI_SnwH_ave_N              =   3.6900292641376E-01
(PID.TID 0000.0001) %MON thSI_SnwH_max_S              =   4.0933682659373E+00
(PID.TID 0000.0001) %MON thSI_SnwH_max_N              =   4.1039283082107E+00
(PID.TID 0000.0001) %MON thSI_TotEnerg_G              =  -3.8158578205821E+22
(PID.TID 0000.0001) %MON thSI_Tsrf_ave_G              =  -1.7546291857886E+01
(PID.TID 0000.0001) %MON thSI_Tsrf_ave_S              =  -1.2193185581850E-01
(PID.TID 0000.0001) %MON thSI_Tsrf_ave_N              =  -3.2984113010470E+01
(PID.TID 0000.0001) %MON thSI_Tsrf_min_S              =  -5.4663954167927E+00
(PID.TID 0000.0001) %MON thSI_Tsrf_min_N              =  -4.7387251609427E+01
(PID.TID 0000.0001) %MON thSI_Tsrf_max_S              =   0.0000000000000E+00
(PID.TID 0000.0001) %MON thSI_Tsrf_max_N              =  -4.7910946854773E+00
(PID.TID 0000.0001) %MON thSI_Tic1_ave_G              =  -8.5674924553229E+00
(PID.TID 0000.0001) %MON thSI_Tic1_ave_S              =  -4.9286031535839E+00
(PID.TID 0000.0001) %MON thSI_Tic1_ave_N              =  -1.3900192667847E+01
(PID.TID 0000.0001) %MON thSI_Tic1_min_S              =  -1.5062924031206E+01
(PID.TID 0000.0001) %MON thSI_Tic1_min_N              =  -2.1336227864347E+01
(PID.TID 0000.0001) %MON thSI_Tic1_max_S              =  -1.7796346337779E-01
(PID.TID 0000.0001) %MON thSI_Tic1_max_N              =  -7.9938453745937E-01
(PID.TID 0000.0001) %MON thSI_Tic2_ave_G              =  -3.8761938030978E+00
(PID.TID 0000.0001) %MON thSI_Tic2_ave_S              =  -3.0664029258416E+00
(PID.TID 0000.0001) %MON thSI_Tic2_ave_N              =  -5.0629218470592E+00
(PID.TID 0000.0001) %MON thSI_Tic2_min_S              =  -8.4936461554071E+00
(PID.TID 0000.0001) %MON thSI_Tic2_min_N              =  -7.7611121596678E+00
(PID.TID 0000.0001) %MON thSI_Tic2_max_S              =  -1.0773644775492E+00
(PID.TID 0000.0001) %MON thSI_Tic2_max_N              =  -1.3419894531583E+00
(PID.TID 0000.0001) // =======================================================
(PID.TID 0000.0001) // End MONITOR Therm.SeaIce statistics
(PID.TID 0000.0001) // =======================================================
 Computing Diagnostic #  23  ETAN         Counter:       1   Parms: SM      M1      
 Compute Stats, Diag. #  23  ETAN      vol(  0 ): 3.639E+14  Parms: SM      M1      
 Compute Stats, Diag. #  26  THETA     vol(  0 ): 1.340E+18  Parms: SM      MR      
 Compute Stats, Diag. #  27  SALT      vol(  0 ): 1.340E+18  Parms: SM      MR      
 cg2d: Sum(rhs),rhsMax =   3.91693765115274E+02  2.30058902407379E+02
(PID.TID 0000.0001)                    cg2d_init_res =    2.70813763147786E+00
(PID.TID 0000.0001)                       cg2d_iters =    69
(PID.TID 0000.0001)                         cg2d_res =    5.70907374187743E-07
(PID.TID 0000.0001) // =======================================================
(PID.TID 0000.0001) // Begin MONITOR dynamic field statistics
(PID.TID 0000.0001) // =======================================================
(PID.TID 0000.0001) %MON time_tsnumber                =                 36012
(PID.TID 0000.0001) %MON time_secondsf                =   3.1114368000000E+09
(PID.TID 0000.0001) %MON dynstat_eta_max              =   7.1938805888871E-01
(PID.TID 0000.0001) %MON dynstat_eta_min              =  -1.1962307155314E+01
(PID.TID 0000.0001) %MON dynstat_eta_mean             =  -5.8258299181203E-01
(PID.TID 0000.0001) %MON dynstat_eta_sd               =   1.6992214277720E+00
(PID.TID 0000.0001) %MON dynstat_eta_del2             =   9.8433478714794E-02
(PID.TID 0000.0001) %MON dynstat_uvel_max             =   1.7430399592321E-01
(PID.TID 0000.0001) %MON dynstat_uvel_min             =  -2.6689447747638E-01
(PID.TID 0000.0001) %MON dynstat_uvel_mean            =  -5.2342167494807E-04
(PID.TID 0000.0001) %MON dynstat_uvel_sd              =   1.2982426238297E-02
(PID.TID 0000.0001) %MON dynstat_uvel_del2            =   1.7894659066649E-03
(PID.TID 0000.0001) %MON dynstat_vvel_max             =   1.9487688687416E-01
(PID.TID 0000.0001) %MON dynstat_vvel_min             =  -2.1144329458832E-01
(PID.TID 0000.0001) %MON dynstat_vvel_mean            =  -4.1937617795798E-04
(PID.TID 0000.0001) %MON dynstat_vvel_sd              =   1.3489500043940E-02
(PID.TID 0000.0001) %MON dynstat_vvel_del2            =   1.8194189042674E-03
(PID.TID 0000.0001) %MON dynstat_wvel_max             =   8.9729592026926E-05
(PID.TID 0000.0001) %MON dynstat_wvel_min             =  -1.7789413946672E-04
(PID.TID 0000.0001) %MON dynstat_wvel_mean            =  -1.2231552388884E-09
(PID.TID 0000.0001) %MON dynstat_wvel_sd              =   4.6261987296106E-06
(PID.TID 0000.0001) %MON dynstat_wvel_del2            =   1.1356998894354E-06
(PID.TID 0000.0001) %MON dynstat_theta_max            =   2.9915720809105E+01
(PID.TID 0000.0001) %MON dynstat_theta_min            =  -3.4408461463959E+00
(PID.TID 0000.0001) %MON dynstat_theta_mean           =   3.5035528379296E+00
(PID.TID 0000.0001) %MON dynstat_theta_sd             =   4.7499025163720E+00
(PID.TID 0000.0001) %MON dynstat_theta_del2           =   9.5433613281456E-02
(PID.TID 0000.0001) %MON dynstat_salt_max             =   4.0837991388559E+01
(PID.TID 0000.0001) %MON dynstat_salt_min             =   1.8037364670314E+01
(PID.TID 0000.0001) %MON dynstat_salt_mean            =   3.4756120173433E+01
(PID.TID 0000.0001) %MON dynstat_salt_sd              =   5.1178211651028E-01
(PID.TID 0000.0001) %MON dynstat_salt_del2            =   2.0038270573784E-02
(PID.TID 0000.0001) %MON extforcing_qnet_max          =   8.0634681132222E+02
(PID.TID 0000.0001) %MON extforcing_qnet_min          =  -2.3479533084972E+02
(PID.TID 0000.0001) %MON extforcing_qnet_mean         =  -6.1460437393805E+00
(PID.TID 0000.0001) %MON extforcing_qnet_sd           =   1.2040191069012E+02
(PID.TID 0000.0001) %MON extforcing_qnet_del2         =   1.2655876013073E+01
(PID.TID 0000.0001) %MON extforcing_qsw_max           =   0.0000000000000E+00
(PID.TID 0000.0001) %MON extforcing_qsw_min           =  -3.3971215207251E+02
(PID.TID 0000.0001) %MON extforcing_qsw_mean          =  -1.8663077610329E+02
(PID.TID 0000.0001) %MON extforcing_qsw_sd            =   7.9353633229254E+01
(PID.TID 0000.0001) %MON extforcing_qsw_del2          =   3.8639957513790E+00
(PID.TID 0000.0001) %MON extforcing_empmr_max         =   7.4788053686295E-07
(PID.TID 0000.0001) %MON extforcing_empmr_min         =  -3.1805156473024E-07
(PID.TID 0000.0001) %MON extforcing_empmr_mean        =   1.1012831211416E-10
(PID.TID 0000.0001) %MON extforcing_empmr_sd          =   5.2967088212610E-08
(PID.TID 0000.0001) %MON extforcing_empmr_del2        =   8.6805077609641E-09
(PID.TID 0000.0001) %MON extforcing_fu_max            =   2.4787031343914E-01
(PID.TID 0000.0001) %MON extforcing_fu_min            =  -2.0690060242593E-01
(PID.TID 0000.0001) %MON extforcing_fu_mean           =  -1.4955989135426E-03
(PID.TID 0000.0001) %MON extforcing_fu_sd             =   6.1748756982366E-02
(PID.TID 0000.0001) %MON extforcing_fu_del2           =   3.4785310933711E-03
(PID.TID 0000.0001) %MON extforcing_fv_max            =   2.8232663773484E-01
(PID.TID 0000.0001) %MON extforcing_fv_min            =  -3.3558686729325E-01
(PID.TID 0000.0001) %MON extforcing_fv_mean           =  -5.4343460404083E-03
(PID.TID 0000.0001) %MON extforcing_fv_sd             =   6.9439231594824E-02
(PID.TID 0000.0001) %MON extforcing_fv_del2           =   3.4171694032282E-03
(PID.TID 0000.0001) %MON advcfl_uvel_max              =   7.5696336449977E-02
(PID.TID 0000.0001) %MON advcfl_vvel_max              =   8.4944089521123E-02
(PID.TID 0000.0001) %MON advcfl_wvel_max              =   5.8000202452547E-02
(PID.TID 0000.0001) %MON advcfl_W_hf_max              =   1.2075236431032E-01
(PID.TID 0000.0001) %MON pe_b_mean                    =  -1.9281918989474E-03
(PID.TID 0000.0001) %MON ke_max                       =   3.5502558666518E-02
(PID.TID 0000.0001) %MON ke_mean                      =   1.6205935894790E-04
(PID.TID 0000.0001) %MON ke_vol                       =   1.3395904544839E+18
(PID.TID 0000.0001) %MON vort_r_min                   =  -1.2635369464618E-06
(PID.TID 0000.0001) %MON vort_r_max                   =   1.4039217021784E-06
(PID.TID 0000.0001) %MON vort_a_mean                  =  -2.0493733748264E-05
(PID.TID 0000.0001) %MON vort_a_sd                    =   7.5054013024256E-05
(PID.TID 0000.0001) %MON vort_p_mean                  =  -2.4719490935633E-05
(PID.TID 0000.0001) %MON vort_p_sd                    =   1.2782294928154E-04
(PID.TID 0000.0001) %MON surfExpan_theta_mean         =   7.8361348310793E-08
(PID.TID 0000.0001) %MON surfExpan_salt_mean          =   1.9259579759647E-08
(PID.TID 0000.0001) // =======================================================
(PID.TID 0000.0001) // End MONITOR dynamic field statistics
(PID.TID 0000.0001) // =======================================================
(PID.TID 0000.0001) // =======================================================
(PID.TID 0000.0001) // Begin MONITOR Therm.SeaIce statistics
(PID.TID 0000.0001) // =======================================================
(PID.TID 0000.0001) %MON thSI_time_sec                =   3.1114368000000E+09
(PID.TID 0000.0001) %MON thSI_Ice_Area_G              =   2.4717732725464E+13
(PID.TID 0000.0001) %MON thSI_Ice_Area_S              =   1.1577547356052E+13
(PID.TID 0000.0001) %MON thSI_Ice_Area_N              =   1.3140185369412E+13
(PID.TID 0000.0001) %MON thSI_IceH_ave_G              =   4.6083225986208E+00
(PID.TID 0000.0001) %MON thSI_IceH_ave_S              =   5.8401405976012E+00
(PID.TID 0000.0001) %MON thSI_IceH_ave_N              =   3.5229930681539E+00
(PID.TID 0000.0001) %MON thSI_IceH_max_S              =   1.0000000000000E+01
(PID.TID 0000.0001) %MON thSI_IceH_max_N              =   1.0000000000000E+01
(PID.TID 0000.0001) %MON thSI_SnwH_ave_G              =   1.0175877734038E+00
(PID.TID 0000.0001) %MON thSI_SnwH_ave_S              =   1.7512678022973E+00
(PID.TID 0000.0001) %MON thSI_SnwH_ave_N              =   3.7115737383904E-01
(PID.TID 0000.0001) %MON thSI_SnwH_max_S              =   4.0933025663083E+00
(PID.TID 0000.0001) %MON thSI_SnwH_max_N              =   4.1042792589848E+00
(PID.TID 0000.0001) %MON thSI_TotEnerg_G              =  -3.8157060105147E+22
(PID.TID 0000.0001) %MON thSI_Tsrf_ave_G              =  -1.7640778283437E+01
(PID.TID 0000.0001) %MON thSI_Tsrf_ave_S              =  -1.4472259721593E-01
(PID.TID 0000.0001) %MON thSI_Tsrf_ave_N              =  -3.3056193481680E+01
(PID.TID 0000.0001) %MON thSI_Tsrf_min_S              =  -5.4823886117454E+00
(PID.TID 0000.0001) %MON thSI_Tsrf_min_N              =  -4.7502288247947E+01
(PID.TID 0000.0001) %MON thSI_Tsrf_max_S              =   0.0000000000000E+00
(PID.TID 0000.0001) %MON thSI_Tsrf_max_N              =  -6.2793125951917E+00
(PID.TID 0000.0001) %MON thSI_Tic1_ave_G              =  -8.5871724554076E+00
(PID.TID 0000.0001) %MON thSI_Tic1_ave_S              =  -4.9038185569806E+00
(PID.TID 0000.0001) %MON thSI_Tic1_ave_N              =  -1.3967020836289E+01
(PID.TID 0000.0001) %MON thSI_Tic1_min_S              =  -1.4927329236605E+01
(PID.TID 0000.0001) %MON thSI_Tic1_min_N              =  -2.1393169986662E+01
(PID.TID 0000.0001) %MON thSI_Tic1_max_S              =  -1.7191826267928E-01
(PID.TID 0000.0001) %MON thSI_Tic1_max_N              =  -8.2079750994053E-01
(PID.TID 0000.0001) %MON thSI_Tic2_ave_G              =  -3.8866874563754E+00
(PID.TID 0000.0001) %MON thSI_Tic2_ave_S              =  -3.0625570400503E+00
(PID.TID 0000.0001) %MON thSI_Tic2_ave_N              =  -5.0903992929694E+00
(PID.TID 0000.0001) %MON thSI_Tic2_min_S              =  -8.4612722805801E+00
(PID.TID 0000.0001) %MON thSI_Tic2_min_N              =  -7.7895925589798E+00
(PID.TID 0000.0001) %MON thSI_Tic2_max_S              =  -1.0454084571015E+00
(PID.TID 0000.0001) %MON thSI_Tic2_max_N              =  -1.3560398874730E+00
(PID.TID 0000.0001) // =======================================================
(PID.TID 0000.0001) // End MONITOR Therm.SeaIce statistics
(PID.TID 0000.0001) // =======================================================
 cg2d: Sum(rhs),rhsMax =   3.91695049457202E+02  2.30169236233384E+02
(PID.TID 0000.0001)                    cg2d_init_res =    2.66701680959519E+00
(PID.TID 0000.0001)                       cg2d_iters =    69
(PID.TID 0000.0001)                         cg2d_res =    5.69359680787861E-07
(PID.TID 0000.0001) // =======================================================
(PID.TID 0000.0001) // Begin MONITOR dynamic field statistics
(PID.TID 0000.0001) // =======================================================
(PID.TID 0000.0001) %MON time_tsnumber                =                 36013
(PID.TID 0000.0001) %MON time_secondsf                =   3.1115232000000E+09
(PID.TID 0000.0001) %MON dynstat_eta_max              =   7.1806219837853E-01
(PID.TID 0000.0001) %MON dynstat_eta_min              =  -1.1959524739207E+01
(PID.TID 0000.0001) %MON dynstat_eta_mean             =  -5.8258490206905E-01
(PID.TID 0000.0001) %MON dynstat_eta_sd               =   1.6988048032480E+00
(PID.TID 0000.0001) %MON dynstat_eta_del2             =   9.8457091107632E-02
(PID.TID 0000.0001) %MON dynstat_uvel_max             =   1.7409043814787E-01
(PID.TID 0000.0001) %MON dynstat_uvel_min             =  -2.6643221770319E-01
(PID.TID 0000.0001) %MON dynstat_uvel_mean            =  -5.2279518475243E-04
(PID.TID 0000.0001) %MON dynstat_uvel_sd              =   1.2982282229752E-02
(PID.TID 0000.0001) %MON dynstat_uvel_del2            =   1.7894404966529E-03
(PID.TID 0000.0001) %MON dynstat_vvel_max             =   1.9463659942538E-01
(PID.TID 0000.0001) %MON dynstat_vvel_min             =  -2.1148227479231E-01
(PID.TID 0000.0001) %MON dynstat_vvel_mean            =  -4.1882345085270E-04
(PID.TID 0000.0001) %MON dynstat_vvel_sd              =   1.3488927460883E-02
(PID.TID 0000.0001) %MON dynstat_vvel_del2            =   1.8186157946038E-03
(PID.TID 0000.0001) %MON dynstat_wvel_max             =   9.0400214602136E-05
(PID.TID 0000.0001) %MON dynstat_wvel_min             =  -1.7770503971717E-04
(PID.TID 0000.0001) %MON dynstat_wvel_mean            =  -1.2231716542436E-09
(PID.TID 0000.0001) %MON dynstat_wvel_sd              =   4.6261196495168E-06
(PID.TID 0000.0001) %MON dynstat_wvel_del2            =   1.1356690633023E-06
(PID.TID 0000.0001) %MON dynstat_theta_max            =   2.9894737660984E+01
(PID.TID 0000.0001) %MON dynstat_theta_min            =  -3.4591358535226E+00
(PID.TID 0000.0001) %MON dynstat_theta_mean           =   3.5036227476627E+00
(PID.TID 0000.0001) %MON dynstat_theta_sd             =   4.7500324942405E+00
(PID.TID 0000.0001) %MON dynstat_theta_del2           =   9.5467617278747E-02
(PID.TID 0000.0001) %MON dynstat_salt_max             =   4.0838982541972E+01
(PID.TID 0000.0001) %MON dynstat_salt_min             =   1.8038468676469E+01
(PID.TID 0000.0001) %MON dynstat_salt_mean            =   3.4756121139735E+01
(PID.TID 0000.0001) %MON dynstat_salt_sd              =   5.1177111839786E-01
(PID.TID 0000.0001) %MON dynstat_salt_del2            =   2.0033669785195E-02
(PID.TID 0000.0001) %MON extforcing_qnet_max          =   8.0944798138793E+02
(PID.TID 0000.0001) %MON extforcing_qnet_min          =  -2.3442088292155E+02
(PID.TID 0000.0001) %MON extforcing_qnet_mean         =  -6.2003844707302E+00
(PID.TID 0000.0001) %MON extforcing_qnet_sd           =   1.2049364351068E+02
(PID.TID 0000.0001) %MON extforcing_qnet_del2         =   1.2694916929440E+01
(PID.TID 0000.0001) %MON extforcing_qsw_max           =   0.0000000000000E+00
(PID.TID 0000.0001) %MON extforcing_qsw_min           =  -3.3950810942532E+02
(PID.TID 0000.0001) %MON extforcing_qsw_mean          =  -1.8664620184569E+02
(PID.TID 0000.0001) %MON extforcing_qsw_sd            =   7.9221919191534E+01
(PID.TID 0000.0001) %MON extforcing_qsw_del2          =   3.8698633176187E+00
(PID.TID 0000.0001) %MON extforcing_empmr_max         =   4.1015762097152E-07
(PID.TID 0000.0001) %MON extforcing_empmr_min         =  -3.2059098569893E-07
(PID.TID 0000.0001) %MON extforcing_empmr_mean        =   2.2883287160198E-11
(PID.TID 0000.0001) %MON extforcing_empmr_sd          =   5.1920933303969E-08
(PID.TID 0000.0001) %MON extforcing_empmr_del2        =   8.5368704115955E-09
(PID.TID 0000.0001) %MON extforcing_fu_max            =   2.4813468793793E-01
(PID.TID 0000.0001) %MON extforcing_fu_min            =  -2.0889746845507E-01
(PID.TID 0000.0001) %MON extforcing_fu_mean           =  -1.4978076666841E-03
(PID.TID 0000.0001) %MON extforcing_fu_sd             =   6.1856188399564E-02
(PID.TID 0000.0001) %MON extforcing_fu_del2           =   3.5028131025095E-03
(PID.TID 0000.0001) %MON extforcing_fv_max            =   2.8500987930747E-01
(PID.TID 0000.0001) %MON extforcing_fv_min            =  -3.3637477122718E-01
(PID.TID 0000.0001) %MON extforcing_fv_mean           =  -5.4954988357913E-03
(PID.TID 0000.0001) %MON extforcing_fv_sd             =   6.9688298376219E-02
(PID.TID 0000.0001) %MON extforcing_fv_del2           =   3.4395473063931E-03
(PID.TID 0000.0001) %MON advcfl_uvel_max              =   7.5565230809840E-02
(PID.TID 0000.0001) %MON advcfl_vvel_max              =   8.4839351607421E-02
(PID.TID 0000.0001) %MON advcfl_wvel_max              =   5.7938548798354E-02
(PID.TID 0000.0001) %MON advcfl_W_hf_max              =   1.1944693203587E-01
(PID.TID 0000.0001) %MON pe_b_mean                    =  -1.9274265581098E-03
(PID.TID 0000.0001) %MON ke_max                       =   3.5367574635501E-02
(PID.TID 0000.0001) %MON ke_mean                      =   1.6204997678236E-04
(PID.TID 0000.0001) %MON ke_vol                       =   1.3395904511385E+18
(PID.TID 0000.0001) %MON vort_r_min                   =  -1.2687656797943E-06
(PID.TID 0000.0001) %MON vort_r_max                   =   1.4070862884862E-06
(PID.TID 0000.0001) %MON vort_a_mean                  =  -2.0493733748264E-05
(PID.TID 0000.0001) %MON vort_a_sd                    =   7.5054012957739E-05
(PID.TID 0000.0001) %MON vort_p_mean                  =  -2.4719490582206E-05
(PID.TID 0000.0001) %MON vort_p_sd                    =   1.2782295747505E-04
(PID.TID 0000.0001) %MON surfExpan_theta_mean         =   7.7687227609775E-08
(PID.TID 0000.0001) %MON surfExpan_salt_mean          =   1.9332653125876E-08
(PID.TID 0000.0001) // =======================================================
(PID.TID 0000.0001) // End MONITOR dynamic field statistics
(PID.TID 0000.0001) // =======================================================
(PID.TID 0000.0001) // =======================================================
(PID.TID 0000.0001) // Begin MONITOR Therm.SeaIce statistics
(PID.TID 0000.0001) // =======================================================
(PID.TID 0000.0001) %MON thSI_time_sec                =   3.1115232000000E+09
(PID.TID 0000.0001) %MON thSI_Ice_Area_G              =   2.4703125138580E+13
(PID.TID 0000.0001) %MON thSI_Ice_Area_S              =   1.1545109391173E+13
(PID.TID 0000.0001) %MON thSI_Ice_Area_N              =   1.3158015747406E+13
(PID.TID 0000.0001) %MON thSI_IceH_ave_G              =   4.6115311562832E+00
(PID.TID 0000.0001) %MON thSI_IceH_ave_S              =   5.8495211821221E+00
(PID.TID 0000.0001) %MON thSI_IceH_ave_N              =   3.5252936454100E+00
(PID.TID 0000.0001) %MON thSI_IceH_max_S              =   1.0000000000000E+01
(PID.TID 0000.0001) %MON thSI_IceH_max_N              =   1.0000000000000E+01
(PID.TID 0000.0001) %MON thSI_SnwH_ave_G              =   1.0151232419939E+00
(PID.TID 0000.0001) %MON thSI_SnwH_ave_S              =   1.7463376687127E+00
(PID.TID 0000.0001) %MON thSI_SnwH_ave_N              =   3.7354090108989E-01
(PID.TID 0000.0001) %MON thSI_SnwH_max_S              =   4.0932406920526E+00
(PID.TID 0000.0001) %MON thSI_SnwH_max_N              =   4.1046411865708E+00
(PID.TID 0000.0001) %MON thSI_TotEnerg_G              =  -3.8154877658787E+22
(PID.TID 0000.0001) %MON thSI_Tsrf_ave_G              =  -1.7714469286042E+01
(PID.TID 0000.0001) %MON thSI_Tsrf_ave_S              =  -1.2904587167637E-01
(PID.TID 0000.0001) %MON thSI_Tsrf_ave_N              =  -3.3144275793833E+01
(PID.TID 0000.0001) %MON thSI_Tsrf_min_S              =  -5.4983441212341E+00
(PID.TID 0000.0001) %MON thSI_Tsrf_min_N              =  -4.7617389900096E+01
(PID.TID 0000.0001) %MON thSI_Tsrf_max_S              =   0.0000000000000E+00
(PID.TID 0000.0001) %MON thSI_Tsrf_max_N              =  -6.9997754566008E+00
(PID.TID 0000.0001) %MON thSI_Tic1_ave_G              =  -8.6085922870480E+00
(PID.TID 0000.0001) %MON thSI_Tic1_ave_S              =  -4.8826063638864E+00
(PID.TID 0000.0001) %MON thSI_Tic1_ave_N              =  -1.4033269235064E+01
(PID.TID 0000.0001) %MON thSI_Tic1_min_S              =  -1.4793279954720E+01
(PID.TID 0000.0001) %MON thSI_Tic1_min_N              =  -2.1448236486249E+01
(PID.TID 0000.0001) %MON thSI_Tic1_max_S              =  -1.6625256029861E-01
(PID.TID 0000.0001) %MON thSI_Tic1_max_N              =  -8.4318569981988E-01
(PID.TID 0000.0001) %MON thSI_Tic2_ave_G              =  -3.8970173805138E+00
(PID.TID 0000.0001) %MON thSI_Tic2_ave_S              =  -3.0586599434290E+00
(PID.TID 0000.0001) %MON thSI_Tic2_ave_N              =  -5.1175851327648E+00
(PID.TID 0000.0001) %MON thSI_Tic2_min_S              =  -8.4288319569785E+00
(PID.TID 0000.0001) %MON thSI_Tic2_min_N              =  -7.8171743729309E+00
(PID.TID 0000.0001) %MON thSI_Tic2_max_S              =  -9.9598633438401E-01
(PID.TID 0000.0001) %MON thSI_Tic2_max_N              =  -1.3696289891685E+00
(PID.TID 0000.0001) // =======================================================
(PID.TID 0000.0001) // End MONITOR Therm.SeaIce statistics
(PID.TID 0000.0001) // =======================================================
 cg2d: Sum(rhs),rhsMax =   3.91688896842048E+02  2.30280554333925E+02
(PID.TID 0000.0001)                    cg2d_init_res =    2.66661343148403E+00
(PID.TID 0000.0001)                       cg2d_iters =    69
(PID.TID 0000.0001)                         cg2d_res =    5.64553618002105E-07
(PID.TID 0000.0001) // =======================================================
(PID.TID 0000.0001) // Begin MONITOR dynamic field statistics
(PID.TID 0000.0001) // =======================================================
(PID.TID 0000.0001) %MON time_tsnumber                =                 36014
(PID.TID 0000.0001) %MON time_secondsf                =   3.1116096000000E+09
(PID.TID 0000.0001) %MON dynstat_eta_max              =   7.1673835951593E-01
(PID.TID 0000.0001) %MON dynstat_eta_min              =  -1.1956585314893E+01
(PID.TID 0000.0001) %MON dynstat_eta_mean             =  -5.8257575101978E-01
(PID.TID 0000.0001) %MON dynstat_eta_sd               =   1.6983847269713E+00
(PID.TID 0000.0001) %MON dynstat_eta_del2             =   9.8484058945253E-02
(PID.TID 0000.0001) %MON dynstat_uvel_max             =   1.7383282341081E-01
(PID.TID 0000.0001) %MON dynstat_uvel_min             =  -2.6595647212764E-01
(PID.TID 0000.0001) %MON dynstat_uvel_mean            =  -5.2210585142651E-04
(PID.TID 0000.0001) %MON dynstat_uvel_sd              =   1.2982308506274E-02
(PID.TID 0000.0001) %MON dynstat_uvel_del2            =   1.7896197081692E-03
(PID.TID 0000.0001) %MON dynstat_vvel_max             =   1.9434198207795E-01
(PID.TID 0000.0001) %MON dynstat_vvel_min             =  -2.1151638471963E-01
(PID.TID 0000.0001) %MON dynstat_vvel_mean            =  -4.1829842602627E-04
(PID.TID 0000.0001) %MON dynstat_vvel_sd              =   1.3487969599059E-02
(PID.TID 0000.0001) %MON dynstat_vvel_del2            =   1.8177889958084E-03
(PID.TID 0000.0001) %MON dynstat_wvel_max             =   9.1024980276420E-05
(PID.TID 0000.0001) %MON dynstat_wvel_min             =  -1.7749068075542E-04
(PID.TID 0000.0001) %MON dynstat_wvel_mean            =  -1.2540171902589E-09
(PID.TID 0000.0001) %MON dynstat_wvel_sd              =   4.6260417570922E-06
(PID.TID 0000.0001) %MON dynstat_wvel_del2            =   1.1355965087163E-06
(PID.TID 0000.0001) %MON dynstat_theta_max            =   2.9876368414348E+01
(PID.TID 0000.0001) %MON dynstat_theta_min            =  -3.4773980688404E+00
(PID.TID 0000.0001) %MON dynstat_theta_mean           =   3.5036931684716E+00
(PID.TID 0000.0001) %MON dynstat_theta_sd             =   4.7501721411470E+00
(PID.TID 0000.0001) %MON dynstat_theta_del2           =   9.5504632455781E-02
(PID.TID 0000.0001) %MON dynstat_salt_max             =   4.0839844247741E+01
(PID.TID 0000.0001) %MON dynstat_salt_min             =   1.8043034929497E+01
(PID.TID 0000.0001) %MON dynstat_salt_mean            =   3.4756122034760E+01
(PID.TID 0000.0001) %MON dynstat_salt_sd              =   5.1176184802638E-01
(PID.TID 0000.0001) %MON dynstat_salt_del2            =   2.0031980153219E-02
(PID.TID 0000.0001) %MON extforcing_qnet_max          =   8.1253467062724E+02
(PID.TID 0000.0001) %MON extforcing_qnet_min          =  -2.3404823719001E+02
(PID.TID 0000.0001) %MON extforcing_qnet_mean         =  -6.2560520349987E+00
(PID.TID 0000.0001) %MON extforcing_qnet_sd           =   1.2060775097352E+02
(PID.TID 0000.0001) %MON extforcing_qnet_del2         =   1.2746816864188E+01
(PID.TID 0000.0001) %MON extforcing_qsw_max           =   0.0000000000000E+00
(PID.TID 0000.0001) %MON extforcing_qsw_min           =  -3.3930406677812E+02
(PID.TID 0000.0001) %MON extforcing_qsw_mean          =  -1.8665508799418E+02
(PID.TID 0000.0001) %MON extforcing_qsw_sd            =   7.9081795311647E+01
(PID.TID 0000.0001) %MON extforcing_qsw_del2          =   3.8660334346088E+00
(PID.TID 0000.0001) %MON extforcing_empmr_max         =   3.8709879477486E-07
(PID.TID 0000.0001) %MON extforcing_empmr_min         =  -3.2181671035039E-07
(PID.TID 0000.0001) %MON extforcing_empmr_mean        =  -1.0962194439754E-10
(PID.TID 0000.0001) %MON extforcing_empmr_sd          =   5.1693933762395E-08
(PID.TID 0000.0001) %MON extforcing_empmr_del2        =   8.5428333572513E-09
(PID.TID 0000.0001) %MON extforcing_fu_max            =   2.4839906243671E-01
(PID.TID 0000.0001) %MON extforcing_fu_min            =  -2.1105082572846E-01
(PID.TID 0000.0001) %MON extforcing_fu_mean           =  -1.5000164286641E-03
(PID.TID 0000.0001) %MON extforcing_fu_sd             =   6.1975901127272E-02
(PID.TID 0000.0001) %MON extforcing_fu_del2           =   3.5288759776386E-03
(PID.TID 0000.0001) %MON extforcing_fv_max            =   2.8769312088010E-01
(PID.TID 0000.0001) %MON extforcing_fv_min            =  -3.3716267516111E-01
(PID.TID 0000.0001) %MON extforcing_fv_mean           =  -5.5566515035156E-03
(PID.TID 0000.0001) %MON extforcing_fv_sd             =   6.9944843989101E-02
(PID.TID 0000.0001) %MON extforcing_fv_del2           =   3.4634871130626E-03
(PID.TID 0000.0001) %MON advcfl_uvel_max              =   7.5430300340345E-02
(PID.TID 0000.0001) %MON advcfl_vvel_max              =   8.4710932056310E-02
(PID.TID 0000.0001) %MON advcfl_wvel_max              =   5.7868659687805E-02
(PID.TID 0000.0001) %MON advcfl_W_hf_max              =   1.1809139151631E-01
(PID.TID 0000.0001) %MON pe_b_mean                    =  -1.9266734424914E-03
(PID.TID 0000.0001) %MON ke_max                       =   3.5230057501016E-02
(PID.TID 0000.0001) %MON ke_mean                      =   1.6203778575919E-04
(PID.TID 0000.0001) %MON ke_vol                       =   1.3395904504434E+18
(PID.TID 0000.0001) %MON vort_r_min                   =  -1.2739840637355E-06
(PID.TID 0000.0001) %MON vort_r_max                   =   1.4100522103898E-06
(PID.TID 0000.0001) %MON vort_a_mean                  =  -2.0493733748264E-05
(PID.TID 0000.0001) %MON vort_a_sd                    =   7.5054012894023E-05
(PID.TID 0000.0001) %MON vort_p_mean                  =  -2.4719490192823E-05
(PID.TID 0000.0001) %MON vort_p_sd                    =   1.2782296530644E-04
(PID.TID 0000.0001) %MON surfExpan_theta_mean         =   7.6730142981369E-08
(PID.TID 0000.0001) %MON surfExpan_salt_mean          =   1.9431713863525E-08
(PID.TID 0000.0001) // =======================================================
(PID.TID 0000.0001) // End MONITOR dynamic field statistics
(PID.TID 0000.0001) // =======================================================
(PID.TID 0000.0001) // =======================================================
(PID.TID 0000.0001) // Begin MONITOR Therm.SeaIce statistics
(PID.TID 0000.0001) // =======================================================
(PID.TID 0000.0001) %MON thSI_time_sec                =   3.1116096000000E+09
(PID.TID 0000.0001) %MON thSI_Ice_Area_G              =   2.4680459584466E+13
(PID.TID 0000.0001) %MON thSI_Ice_Area_S              =   1.1507636126058E+13
(PID.TID 0000.0001) %MON thSI_Ice_Area_N              =   1.3172823458409E+13
(PID.TID 0000.0001) %MON thSI_IceH_ave_G              =   4.6160852853515E+00
(PID.TID 0000.0001) %MON thSI_IceH_ave_S              =   5.8614357943593E+00
(PID.TID 0000.0001) %MON thSI_IceH_ave_N              =   3.5281605475525E+00
(PID.TID 0000.0001) %MON thSI_IceH_max_S              =   1.0000000000000E+01
(PID.TID 0000.0001) %MON thSI_IceH_max_N              =   1.0000000000000E+01
(PID.TID 0000.0001) %MON thSI_SnwH_ave_G              =   1.0130108838897E+00
(PID.TID 0000.0001) %MON thSI_SnwH_ave_S              =   1.7421979158912E+00
(PID.TID 0000.0001) %MON thSI_SnwH_ave_N              =   3.7600097795677E-01
(PID.TID 0000.0001) %MON thSI_SnwH_max_S              =   4.0931820902632E+00
(PID.TID 0000.0001) %MON thSI_SnwH_max_N              =   4.1050116123049E+00
(PID.TID 0000.0001) %MON thSI_TotEnerg_G              =  -3.8151445682804E+22
(PID.TID 0000.0001) %MON thSI_Tsrf_ave_G              =  -1.7814302103937E+01
(PID.TID 0000.0001) %MON thSI_Tsrf_ave_S              =  -1.4856661537081E-01
(PID.TID 0000.0001) %MON thSI_Tsrf_ave_N              =  -3.3246897594453E+01
(PID.TID 0000.0001) %MON thSI_Tsrf_min_S              =  -5.5142622643853E+00
(PID.TID 0000.0001) %MON thSI_Tsrf_min_N              =  -4.7732557796050E+01
(PID.TID 0000.0001) %MON thSI_Tsrf_max_S              =   0.0000000000000E+00
(PID.TID 0000.0001) %MON thSI_Tsrf_max_N              =  -7.3797983920166E+00
(PID.TID 0000.0001) %MON thSI_Tic1_ave_G              =  -8.6282492562031E+00
(PID.TID 0000.0001) %MON thSI_Tic1_ave_S              =  -4.8587518343225E+00
(PID.TID 0000.0001) %MON thSI_Tic1_ave_N              =  -1.4098993006753E+01
(PID.TID 0000.0001) %MON thSI_Tic1_min_S              =  -1.4660759555595E+01
(PID.TID 0000.0001) %MON thSI_Tic1_min_N              =  -2.1501494759202E+01
(PID.TID 0000.0001) %MON thSI_Tic1_max_S              =  -1.6093273686316E-01
(PID.TID 0000.0001) %MON thSI_Tic1_max_N              =  -8.6660164846394E-01
(PID.TID 0000.0001) %MON thSI_Tic2_ave_G              =  -3.9072704176672E+00
(PID.TID 0000.0001) %MON thSI_Tic2_ave_S              =  -3.0547382614798E+00
(PID.TID 0000.0001) %MON thSI_Tic2_ave_N              =  -5.1445666520491E+00
(PID.TID 0000.0001) %MON thSI_Tic2_min_S              =  -8.3951640270468E+00
(PID.TID 0000.0001) %MON thSI_Tic2_min_N              =  -7.8438854508887E+00
(PID.TID 0000.0001) %MON thSI_Tic2_max_S              =  -9.4861600959895E-01
(PID.TID 0000.0001) %MON thSI_Tic2_max_N              =  -1.3827854052654E+00
(PID.TID 0000.0001) // =======================================================
(PID.TID 0000.0001) // End MONITOR Therm.SeaIce statistics
(PID.TID 0000.0001) // =======================================================
 cg2d: Sum(rhs),rhsMax =   3.91677207164969E+02  2.30391349801596E+02
(PID.TID 0000.0001)                    cg2d_init_res =    2.63125757870441E+00
(PID.TID 0000.0001)                       cg2d_iters =    69
(PID.TID 0000.0001)                         cg2d_res =    5.59122016422359E-07
(PID.TID 0000.0001) // =======================================================
(PID.TID 0000.0001) // Begin MONITOR dynamic field statistics
(PID.TID 0000.0001) // =======================================================
(PID.TID 0000.0001) %MON time_tsnumber                =                 36015
(PID.TID 0000.0001) %MON time_secondsf                =   3.1116960000000E+09
(PID.TID 0000.0001) %MON dynstat_eta_max              =   7.1544825749318E-01
(PID.TID 0000.0001) %MON dynstat_eta_min              =  -1.1953493083014E+01
(PID.TID 0000.0001) %MON dynstat_eta_mean             =  -5.8255836446004E-01
(PID.TID 0000.0001) %MON dynstat_eta_sd               =   1.6979599081244E+00
(PID.TID 0000.0001) %MON dynstat_eta_del2             =   9.8510318046765E-02
(PID.TID 0000.0001) %MON dynstat_uvel_max             =   1.7353666809689E-01
(PID.TID 0000.0001) %MON dynstat_uvel_min             =  -2.6546721787352E-01
(PID.TID 0000.0001) %MON dynstat_uvel_mean            =  -5.2136352187391E-04
(PID.TID 0000.0001) %MON dynstat_uvel_sd              =   1.2982488330552E-02
(PID.TID 0000.0001) %MON dynstat_uvel_del2            =   1.7898134710884E-03
(PID.TID 0000.0001) %MON dynstat_vvel_max             =   1.9399664059187E-01
(PID.TID 0000.0001) %MON dynstat_vvel_min             =  -2.1154583906780E-01
(PID.TID 0000.0001) %MON dynstat_vvel_mean            =  -4.1778080184566E-04
(PID.TID 0000.0001) %MON dynstat_vvel_sd              =   1.3486655819974E-02
(PID.TID 0000.0001) %MON dynstat_vvel_del2            =   1.8169627412665E-03
(PID.TID 0000.0001) %MON dynstat_wvel_max             =   9.1595069070006E-05
(PID.TID 0000.0001) %MON dynstat_wvel_min             =  -1.7725726403199E-04
(PID.TID 0000.0001) %MON dynstat_wvel_mean            =  -1.2602731559324E-09
(PID.TID 0000.0001) %MON dynstat_wvel_sd              =   4.6259484069448E-06
(PID.TID 0000.0001) %MON dynstat_wvel_del2            =   1.1355348504927E-06
(PID.TID 0000.0001) %MON dynstat_theta_max            =   2.9861564431512E+01
(PID.TID 0000.0001) %MON dynstat_theta_min            =  -3.4956225845679E+00
(PID.TID 0000.0001) %MON dynstat_theta_mean           =   3.5037640238670E+00
(PID.TID 0000.0001) %MON dynstat_theta_sd             =   4.7503187488062E+00
(PID.TID 0000.0001) %MON dynstat_theta_del2           =   9.5502551530016E-02
(PID.TID 0000.0001) %MON dynstat_salt_max             =   4.0840578098958E+01
(PID.TID 0000.0001) %MON dynstat_salt_min             =   1.8093808624457E+01
(PID.TID 0000.0001) %MON dynstat_salt_mean            =   3.4756122879506E+01
(PID.TID 0000.0001) %MON dynstat_salt_sd              =   5.1175224875017E-01
(PID.TID 0000.0001) %MON dynstat_salt_del2            =   2.0021549809078E-02
(PID.TID 0000.0001) %MON extforcing_qnet_max          =   8.1560797525743E+02
(PID.TID 0000.0001) %MON extforcing_qnet_min          =  -2.3367734555740E+02
(PID.TID 0000.0001) %MON extforcing_qnet_mean         =  -6.3131479461769E+00
(PID.TID 0000.0001) %MON extforcing_qnet_sd           =   1.2069834956575E+02
(PID.TID 0000.0001) %MON extforcing_qnet_del2         =   1.2803942093100E+01
(PID.TID 0000.0001) %MON extforcing_qsw_max           =   0.0000000000000E+00
(PID.TID 0000.0001) %MON extforcing_qsw_min           =  -3.3910002413092E+02
(PID.TID 0000.0001) %MON extforcing_qsw_mean          =  -1.8666883726264E+02
(PID.TID 0000.0001) %MON extforcing_qsw_sd            =   7.8942296702069E+01
(PID.TID 0000.0001) %MON extforcing_qsw_del2          =   3.8668791792253E+00
(PID.TID 0000.0001) %MON extforcing_empmr_max         =   3.8740762572045E-07
(PID.TID 0000.0001) %MON extforcing_empmr_min         =  -3.2190097295723E-07
(PID.TID 0000.0001) %MON extforcing_empmr_mean        =  -2.0827649684820E-10
(PID.TID 0000.0001) %MON extforcing_empmr_sd          =   5.1523594027810E-08
(PID.TID 0000.0001) %MON extforcing_empmr_del2        =   8.5389523267332E-09
(PID.TID 0000.0001) %MON extforcing_fu_max            =   2.4866343693550E-01
(PID.TID 0000.0001) %MON extforcing_fu_min            =  -2.1320418300184E-01
(PID.TID 0000.0001) %MON extforcing_fu_mean           =  -1.5022251620262E-03
(PID.TID 0000.0001) %MON extforcing_fu_sd             =   6.2107824180680E-02
(PID.TID 0000.0001) %MON extforcing_fu_del2           =   3.5566378701449E-03
(PID.TID 0000.0001) %MON extforcing_fv_max            =   2.9037636245273E-01
(PID.TID 0000.0001) %MON extforcing_fv_min            =  -3.3795057909504E-01
(PID.TID 0000.0001) %MON extforcing_fv_mean           =  -5.6178040590088E-03
(PID.TID 0000.0001) %MON extforcing_fv_sd             =   7.0208786418204E-02
(PID.TID 0000.0001) %MON extforcing_fv_del2           =   3.4895232834299E-03
(PID.TID 0000.0001) %MON advcfl_uvel_max              =   7.5291538553366E-02
(PID.TID 0000.0001) %MON advcfl_vvel_max              =   8.4560402567770E-02
(PID.TID 0000.0001) %MON advcfl_wvel_max              =   5.7792557027789E-02
(PID.TID 0000.0001) %MON advcfl_W_hf_max              =   1.1668760833201E-01
(PID.TID 0000.0001) %MON pe_b_mean                    =  -1.9259337247061E-03
(PID.TID 0000.0001) %MON ke_max                       =   3.5090053668095E-02
(PID.TID 0000.0001) %MON ke_mean                      =   1.6202295144502E-04
(PID.TID 0000.0001) %MON ke_vol                       =   1.3395904537734E+18
(PID.TID 0000.0001) %MON vort_r_min                   =  -1.2791669417759E-06
(PID.TID 0000.0001) %MON vort_r_max                   =   1.4127816017261E-06
(PID.TID 0000.0001) %MON vort_a_mean                  =  -2.0493733748264E-05
(PID.TID 0000.0001) %MON vort_a_sd                    =   7.5054012834764E-05
(PID.TID 0000.0001) %MON vort_p_mean                  =  -2.4719489739578E-05
(PID.TID 0000.0001) %MON vort_p_sd                    =   1.2782297180462E-04
(PID.TID 0000.0001) %MON surfExpan_theta_mean         =   7.5627878527010E-08
(PID.TID 0000.0001) %MON surfExpan_salt_mean          =   1.9450579914387E-08
(PID.TID 0000.0001) // =======================================================
(PID.TID 0000.0001) // End MONITOR dynamic field statistics
(PID.TID 0000.0001) // =======================================================
(PID.TID 0000.0001) // =======================================================
(PID.TID 0000.0001) // Begin MONITOR Therm.SeaIce statistics
(PID.TID 0000.0001) // =======================================================
(PID.TID 0000.0001) %MON thSI_time_sec                =   3.1116960000000E+09
(PID.TID 0000.0001) %MON thSI_Ice_Area_G              =   2.4653580617270E+13
(PID.TID 0000.0001) %MON thSI_Ice_Area_S              =   1.1467753470706E+13
(PID.TID 0000.0001) %MON thSI_Ice_Area_N              =   1.3185827146564E+13
(PID.TID 0000.0001) %MON thSI_IceH_ave_G              =   4.6213025352497E+00
(PID.TID 0000.0001) %MON thSI_IceH_ave_S              =   5.8746304717000E+00
(PID.TID 0000.0001) %MON thSI_IceH_ave_N              =   3.5312794647664E+00
(PID.TID 0000.0001) %MON thSI_IceH_max_S              =   1.0000000000000E+01
(PID.TID 0000.0001) %MON thSI_IceH_max_N              =   1.0000000000000E+01
(PID.TID 0000.0001) %MON thSI_SnwH_ave_G              =   1.0111395073355E+00
(PID.TID 0000.0001) %MON thSI_SnwH_ave_S              =   1.7385565622606E+00
(PID.TID 0000.0001) %MON thSI_SnwH_ave_N              =   3.7850270999650E-01
(PID.TID 0000.0001) %MON thSI_SnwH_max_S              =   4.0931262197747E+00
(PID.TID 0000.0001) %MON thSI_SnwH_max_N              =   4.1053870601959E+00
(PID.TID 0000.0001) %MON thSI_TotEnerg_G              =  -3.8147261482284E+22
(PID.TID 0000.0001) %MON thSI_Tsrf_ave_G              =  -1.7894980715685E+01
(PID.TID 0000.0001) %MON thSI_Tsrf_ave_S              =  -1.3198789374213E-01
(PID.TID 0000.0001) %MON thSI_Tsrf_ave_N              =  -3.3343508920990E+01
(PID.TID 0000.0001) %MON thSI_Tsrf_min_S              =  -5.5301433623188E+00
(PID.TID 0000.0001) %MON thSI_Tsrf_min_N              =  -4.7847793006640E+01
(PID.TID 0000.0001) %MON thSI_Tsrf_max_S              =   0.0000000000000E+00
(PID.TID 0000.0001) %MON thSI_Tsrf_max_N              =  -7.6493290330078E+00
(PID.TID 0000.0001) %MON thSI_Tic1_ave_G              =  -8.6498217549145E+00
(PID.TID 0000.0001) %MON thSI_Tic1_ave_S              =  -4.8386852964562E+00
(PID.TID 0000.0001) %MON thSI_Tic1_ave_N              =  -1.4163912812497E+01
(PID.TID 0000.0001) %MON thSI_Tic1_min_S              =  -1.4529751420841E+01
(PID.TID 0000.0001) %MON thSI_Tic1_min_N              =  -2.1566733172463E+01
(PID.TID 0000.0001) %MON thSI_Tic1_max_S              =  -1.5592938089736E-01
(PID.TID 0000.0001) %MON thSI_Tic1_max_N              =  -8.9110066205545E-01
(PID.TID 0000.0001) %MON thSI_Tic2_ave_G              =  -3.9174075007373E+00
(PID.TID 0000.0001) %MON thSI_Tic2_ave_S              =  -3.0508504875841E+00
(PID.TID 0000.0001) %MON thSI_Tic2_ave_N              =  -5.1711737537163E+00
(PID.TID 0000.0001) %MON thSI_Tic2_min_S              =  -8.3614740815889E+00
(PID.TID 0000.0001) %MON thSI_Tic2_min_N              =  -7.8697529078277E+00
(PID.TID 0000.0001) %MON thSI_Tic2_max_S              =  -9.7062354726867E-01
(PID.TID 0000.0001) %MON thSI_Tic2_max_N              =  -1.3955464286308E+00
(PID.TID 0000.0001) // =======================================================
(PID.TID 0000.0001) // End MONITOR Therm.SeaIce statistics
(PID.TID 0000.0001) // =======================================================
S/R BULKF_FIELDS_LOAD: Reading new data:    1    2     36015  3.111696000000E+09
(PID.TID 0000.0001)  MDS_READ_FIELD: opening global file: ncep_tair_cs.bin
(PID.TID 0000.0001)  MDS_READ_FIELD: opening global file: ncep_tair_cs.bin
(PID.TID 0000.0001)  MDS_READ_FIELD: opening global file: ncep_qair_cs.bin
(PID.TID 0000.0001)  MDS_READ_FIELD: opening global file: ncep_qair_cs.bin
(PID.TID 0000.0001)  MDS_READ_FIELD: opening global file: ncep_downsolar_cs.bin
(PID.TID 0000.0001)  MDS_READ_FIELD: opening global file: ncep_downsolar_cs.bin
(PID.TID 0000.0001)  MDS_READ_FIELD: opening global file: ncep_downlw_cs.bin
(PID.TID 0000.0001)  MDS_READ_FIELD: opening global file: ncep_downlw_cs.bin
(PID.TID 0000.0001)  MDS_READ_FIELD: opening global file: ncep_windspeed_cs.bin
(PID.TID 0000.0001)  MDS_READ_FIELD: opening global file: ncep_windspeed_cs.bin
(PID.TID 0000.0001)  MDS_READ_FIELD: opening global file: ncep_pr_scal_cs.bin
(PID.TID 0000.0001)  MDS_READ_FIELD: opening global file: ncep_pr_scal_cs.bin
S/R EXTERNAL_FIELDS_LOAD: Reading new data:    1    2     36015  3.111696000000E+09
(PID.TID 0000.0001)  MDS_READ_FIELD: opening global file: trenberth_taux.bin
(PID.TID 0000.0001)  MDS_READ_FIELD: opening global file: trenberth_taux.bin
(PID.TID 0000.0001)  MDS_READ_FIELD: opening global file: trenberth_tauy.bin
(PID.TID 0000.0001)  MDS_READ_FIELD: opening global file: trenberth_tauy.bin
(PID.TID 0000.0001)  MDS_READ_FIELD: opening global file: lev_surfT_cs_12m.bin
(PID.TID 0000.0001)  MDS_READ_FIELD: opening global file: lev_surfT_cs_12m.bin
(PID.TID 0000.0001)  MDS_READ_FIELD: opening global file: lev_surfS_cs_12m.bin
(PID.TID 0000.0001)  MDS_READ_FIELD: opening global file: lev_surfS_cs_12m.bin
 cg2d: Sum(rhs),rhsMax =   3.91661887709831E+02  2.30500020490562E+02
(PID.TID 0000.0001)                    cg2d_init_res =    2.58651620744183E+00
(PID.TID 0000.0001)                       cg2d_iters =    69
(PID.TID 0000.0001)                         cg2d_res =    5.43394420580900E-07
(PID.TID 0000.0001) // =======================================================
(PID.TID 0000.0001) // Begin MONITOR dynamic field statistics
(PID.TID 0000.0001) // =======================================================
(PID.TID 0000.0001) %MON time_tsnumber                =                 36016
(PID.TID 0000.0001) %MON time_secondsf                =   3.1117824000000E+09
(PID.TID 0000.0001) %MON dynstat_eta_max              =   7.1418398122339E-01
(PID.TID 0000.0001) %MON dynstat_eta_min              =  -1.1950255984920E+01
(PID.TID 0000.0001) %MON dynstat_eta_mean             =  -5.8253557917520E-01
(PID.TID 0000.0001) %MON dynstat_eta_sd               =   1.6975241671320E+00
(PID.TID 0000.0001) %MON dynstat_eta_del2             =   9.8541510200518E-02
(PID.TID 0000.0001) %MON dynstat_uvel_max             =   1.7320788145120E-01
(PID.TID 0000.0001) %MON dynstat_uvel_min             =  -2.6496441900027E-01
(PID.TID 0000.0001) %MON dynstat_uvel_mean            =  -5.2058255690751E-04
(PID.TID 0000.0001) %MON dynstat_uvel_sd              =   1.2982795148774E-02
(PID.TID 0000.0001) %MON dynstat_uvel_del2            =   1.7900035728841E-03
(PID.TID 0000.0001) %MON dynstat_vvel_max             =   1.9360454930407E-01
(PID.TID 0000.0001) %MON dynstat_vvel_min             =  -2.1157084819550E-01
(PID.TID 0000.0001) %MON dynstat_vvel_mean            =  -4.1725183595855E-04
(PID.TID 0000.0001) %MON dynstat_vvel_sd              =   1.3485026922969E-02
(PID.TID 0000.0001) %MON dynstat_vvel_del2            =   1.8162180739659E-03
(PID.TID 0000.0001) %MON dynstat_wvel_max             =   9.2113074240595E-05
(PID.TID 0000.0001) %MON dynstat_wvel_min             =  -1.7701575857096E-04
(PID.TID 0000.0001) %MON dynstat_wvel_mean            =  -1.2585352214396E-09
(PID.TID 0000.0001) %MON dynstat_wvel_sd              =   4.6258111777041E-06
(PID.TID 0000.0001) %MON dynstat_wvel_del2            =   1.1356172941575E-06
(PID.TID 0000.0001) %MON dynstat_theta_max            =   2.9846714591457E+01
(PID.TID 0000.0001) %MON dynstat_theta_min            =  -3.5137919843959E+00
(PID.TID 0000.0001) %MON dynstat_theta_mean           =   3.5038351157869E+00
(PID.TID 0000.0001) %MON dynstat_theta_sd             =   4.7504727266975E+00
(PID.TID 0000.0001) %MON dynstat_theta_del2           =   9.5544711575375E-02
(PID.TID 0000.0001) %MON dynstat_salt_max             =   4.0841185548735E+01
(PID.TID 0000.0001) %MON dynstat_salt_min             =   1.8095232329719E+01
(PID.TID 0000.0001) %MON dynstat_salt_mean            =   3.4756123690596E+01
(PID.TID 0000.0001) %MON dynstat_salt_sd              =   5.1174325231967E-01
(PID.TID 0000.0001) %MON dynstat_salt_del2            =   2.0022317772910E-02
(PID.TID 0000.0001) %MON extforcing_qnet_max          =   8.1866627468304E+02
(PID.TID 0000.0001) %MON extforcing_qnet_min          =  -2.3330816160599E+02
(PID.TID 0000.0001) %MON extforcing_qnet_mean         =  -6.3568276458870E+00
(PID.TID 0000.0001) %MON extforcing_qnet_sd           =   1.2085280602153E+02
(PID.TID 0000.0001) %MON extforcing_qnet_del2         =   1.2898503238775E+01
(PID.TID 0000.0001) %MON extforcing_qsw_max           =   0.0000000000000E+00
(PID.TID 0000.0001) %MON extforcing_qsw_min           =  -3.3889598148373E+02
(PID.TID 0000.0001) %MON extforcing_qsw_mean          =  -1.8668475055125E+02
(PID.TID 0000.0001) %MON extforcing_qsw_sd            =   7.8803876539338E+01
(PID.TID 0000.0001) %MON extforcing_qsw_del2          =   3.8676392532312E+00
(PID.TID 0000.0001) %MON extforcing_empmr_max         =   3.8772312642596E-07
(PID.TID 0000.0001) %MON extforcing_empmr_min         =  -3.2092498225818E-07
(PID.TID 0000.0001) %MON extforcing_empmr_mean        =  -2.7294872463054E-10
(PID.TID 0000.0001) %MON extforcing_empmr_sd          =   5.1257062867053E-08
(PID.TID 0000.0001) %MON extforcing_empmr_del2        =   8.5235996388195E-09
(PID.TID 0000.0001) %MON extforcing_fu_max            =   2.4892781143428E-01
(PID.TID 0000.0001) %MON extforcing_fu_min            =  -2.1535754027523E-01
(PID.TID 0000.0001) %MON extforcing_fu_mean           =  -1.5044338318955E-03
(PID.TID 0000.0001) %MON extforcing_fu_sd             =   6.2251879971331E-02
(PID.TID 0000.0001) %MON extforcing_fu_del2           =   3.5863906188079E-03
(PID.TID 0000.0001) %MON extforcing_fv_max            =   2.9305960402537E-01
(PID.TID 0000.0001) %MON extforcing_fv_min            =  -3.3950131228473E-01
(PID.TID 0000.0001) %MON extforcing_fv_mean           =  -5.6789565345631E-03
(PID.TID 0000.0001) %MON extforcing_fv_sd             =   7.0480042560052E-02
(PID.TID 0000.0001) %MON extforcing_fv_del2           =   3.5172812437129E-03
(PID.TID 0000.0001) %MON advcfl_uvel_max              =   7.5148935255480E-02
(PID.TID 0000.0001) %MON advcfl_vvel_max              =   8.4389495499286E-02
(PID.TID 0000.0001) %MON advcfl_wvel_max              =   5.7713817134078E-02
(PID.TID 0000.0001) %MON advcfl_W_hf_max              =   1.1523738607948E-01
(PID.TID 0000.0001) %MON pe_b_mean                    =  -1.9251821054593E-03
(PID.TID 0000.0001) %MON ke_max                       =   3.4947600242133E-02
(PID.TID 0000.0001) %MON ke_mean                      =   1.6200566846993E-04
(PID.TID 0000.0001) %MON ke_vol                       =   1.3395904601001E+18
(PID.TID 0000.0001) %MON vort_r_min                   =  -1.2842910010130E-06
(PID.TID 0000.0001) %MON vort_r_max                   =   1.4152329921306E-06
(PID.TID 0000.0001) %MON vort_a_mean                  =  -2.0493733748264E-05
(PID.TID 0000.0001) %MON vort_a_sd                    =   7.5054012781036E-05
(PID.TID 0000.0001) %MON vort_p_mean                  =  -2.4719489242247E-05
(PID.TID 0000.0001) %MON vort_p_sd                    =   1.2782297696788E-04
(PID.TID 0000.0001) %MON surfExpan_theta_mean         =   7.4637720364483E-08
(PID.TID 0000.0001) %MON surfExpan_salt_mean          =   1.9432874428790E-08
(PID.TID 0000.0001) // =======================================================
(PID.TID 0000.0001) // End MONITOR dynamic field statistics
(PID.TID 0000.0001) // =======================================================
(PID.TID 0000.0001) // =======================================================
(PID.TID 0000.0001) // Begin MONITOR Therm.SeaIce statistics
(PID.TID 0000.0001) // =======================================================
(PID.TID 0000.0001) %MON thSI_time_sec                =   3.1117824000000E+09
(PID.TID 0000.0001) %MON thSI_Ice_Area_G              =   2.4630870437708E+13
(PID.TID 0000.0001) %MON thSI_Ice_Area_S              =   1.1433678834086E+13
(PID.TID 0000.0001) %MON thSI_Ice_Area_N              =   1.3197191603622E+13
(PID.TID 0000.0001) %MON thSI_IceH_ave_G              =   4.6256349825802E+00
(PID.TID 0000.0001) %MON thSI_IceH_ave_S              =   5.8849366548966E+00
(PID.TID 0000.0001) %MON thSI_IceH_ave_N              =   3.5346111262211E+00
(PID.TID 0000.0001) %MON thSI_IceH_max_S              =   1.0000000000000E+01
(PID.TID 0000.0001) %MON thSI_IceH_max_N              =   1.0000000000000E+01
(PID.TID 0000.0001) %MON thSI_SnwH_ave_G              =   1.0092145051354E+00
(PID.TID 0000.0001) %MON thSI_SnwH_ave_S              =   1.7342872145574E+00
(PID.TID 0000.0001) %MON thSI_SnwH_ave_N              =   3.8103172656476E-01
(PID.TID 0000.0001) %MON thSI_SnwH_max_S              =   4.0930725569760E+00
(PID.TID 0000.0001) %MON thSI_SnwH_max_N              =   4.1057633895458E+00
(PID.TID 0000.0001) %MON thSI_TotEnerg_G              =  -3.8142316382117E+22
(PID.TID 0000.0001) %MON thSI_Tsrf_ave_G              =  -1.7986913817882E+01
(PID.TID 0000.0001) %MON thSI_Tsrf_ave_S              =  -1.5250500847599E-01
(PID.TID 0000.0001) %MON thSI_Tsrf_ave_N              =  -3.3438148341641E+01
(PID.TID 0000.0001) %MON thSI_Tsrf_min_S              =  -5.5459877382131E+00
(PID.TID 0000.0001) %MON thSI_Tsrf_min_N              =  -4.7963096553359E+01
(PID.TID 0000.0001) %MON thSI_Tsrf_max_S              =   0.0000000000000E+00
(PID.TID 0000.0001) %MON thSI_Tsrf_max_N              =  -7.8749161054007E+00
(PID.TID 0000.0001) %MON thSI_Tic1_ave_G              =  -8.6690912442136E+00
(PID.TID 0000.0001) %MON thSI_Tic1_ave_S              =  -4.8154340928627E+00
(PID.TID 0000.0001) %MON thSI_Tic1_ave_N              =  -1.4227848294920E+01
(PID.TID 0000.0001) %MON thSI_Tic1_min_S              =  -1.4400238975417E+01
(PID.TID 0000.0001) %MON thSI_Tic1_min_N              =  -2.1666976307722E+01
(PID.TID 0000.0001) %MON thSI_Tic1_max_S              =  -1.5121665975476E-01
(PID.TID 0000.0001) %MON thSI_Tic1_max_N              =  -9.1674086717175E-01
(PID.TID 0000.0001) %MON thSI_Tic2_ave_G              =  -3.9274027187417E+00
(PID.TID 0000.0001) %MON thSI_Tic2_ave_S              =  -3.0469388759288E+00
(PID.TID 0000.0001) %MON thSI_Tic2_ave_N              =  -5.1974390509601E+00
(PID.TID 0000.0001) %MON thSI_Tic2_min_S              =  -8.3266001856261E+00
(PID.TID 0000.0001) %MON thSI_Tic2_min_N              =  -7.8948031218113E+00
(PID.TID 0000.0001) %MON thSI_Tic2_max_S              =  -1.0164135244579E+00
(PID.TID 0000.0001) %MON thSI_Tic2_max_N              =  -1.4079572199966E+00
(PID.TID 0000.0001) // =======================================================
(PID.TID 0000.0001) // End MONITOR Therm.SeaIce statistics
(PID.TID 0000.0001) // =======================================================
 cg2d: Sum(rhs),rhsMax =   3.91657995519150E+02  2.30605931354764E+02
(PID.TID 0000.0001)                    cg2d_init_res =    2.57414758776783E+00
(PID.TID 0000.0001)                       cg2d_iters =    69
(PID.TID 0000.0001)                         cg2d_res =    5.35059110762316E-07
(PID.TID 0000.0001) // =======================================================
(PID.TID 0000.0001) // Begin MONITOR dynamic field statistics
(PID.TID 0000.0001) // =======================================================
(PID.TID 0000.0001) %MON time_tsnumber                =                 36017
(PID.TID 0000.0001) %MON time_secondsf                =   3.1118688000000E+09
(PID.TID 0000.0001) %MON dynstat_eta_max              =   7.1308303507502E-01
(PID.TID 0000.0001) %MON dynstat_eta_min              =  -1.1947128527129E+01
(PID.TID 0000.0001) %MON dynstat_eta_mean             =  -5.8252979015252E-01
(PID.TID 0000.0001) %MON dynstat_eta_sd               =   1.6971296804997E+00
(PID.TID 0000.0001) %MON dynstat_eta_del2             =   9.8575008517531E-02
(PID.TID 0000.0001) %MON dynstat_uvel_max             =   1.7290296858034E-01
(PID.TID 0000.0001) %MON dynstat_uvel_min             =  -2.6445233961482E-01
(PID.TID 0000.0001) %MON dynstat_uvel_mean            =  -5.1978783380924E-04
(PID.TID 0000.0001) %MON dynstat_uvel_sd              =   1.2983298961151E-02
(PID.TID 0000.0001) %MON dynstat_uvel_del2            =   1.7902551092879E-03
(PID.TID 0000.0001) %MON dynstat_vvel_max             =   1.9316905530857E-01
(PID.TID 0000.0001) %MON dynstat_vvel_min             =  -2.1158446475660E-01
(PID.TID 0000.0001) %MON dynstat_vvel_mean            =  -4.1672064568200E-04
(PID.TID 0000.0001) %MON dynstat_vvel_sd              =   1.3482773842538E-02
(PID.TID 0000.0001) %MON dynstat_vvel_del2            =   1.8155294627233E-03
(PID.TID 0000.0001) %MON dynstat_wvel_max             =   9.2578776143948E-05
(PID.TID 0000.0001) %MON dynstat_wvel_min             =  -1.7676700974741E-04
(PID.TID 0000.0001) %MON dynstat_wvel_mean            =  -1.2189468117692E-09
(PID.TID 0000.0001) %MON dynstat_wvel_sd              =   4.6255825036843E-06
(PID.TID 0000.0001) %MON dynstat_wvel_del2            =   1.1357526161194E-06
(PID.TID 0000.0001) %MON dynstat_theta_max            =   2.9831961597970E+01
(PID.TID 0000.0001) %MON dynstat_theta_min            =  -3.5319618090320E+00
(PID.TID 0000.0001) %MON dynstat_theta_mean           =   3.5039079176874E+00
(PID.TID 0000.0001) %MON dynstat_theta_sd             =   4.7506391361317E+00
(PID.TID 0000.0001) %MON dynstat_theta_del2           =   9.5607975648052E-02
(PID.TID 0000.0001) %MON dynstat_salt_max             =   4.0841674829349E+01
(PID.TID 0000.0001) %MON dynstat_salt_min             =   1.8096650492257E+01
(PID.TID 0000.0001) %MON dynstat_salt_mean            =   3.4756124666900E+01
(PID.TID 0000.0001) %MON dynstat_salt_sd              =   5.1173380803473E-01
(PID.TID 0000.0001) %MON dynstat_salt_del2            =   2.0024346833199E-02
(PID.TID 0000.0001) %MON extforcing_qnet_max          =   8.1172285005486E+02
(PID.TID 0000.0001) %MON extforcing_qnet_min          =  -2.3176638473089E+02
(PID.TID 0000.0001) %MON extforcing_qnet_mean         =  -6.5861686565226E+00
(PID.TID 0000.0001) %MON extforcing_qnet_sd           =   1.1877147435070E+02
(PID.TID 0000.0001) %MON extforcing_qnet_del2         =   1.2772020361978E+01
(PID.TID 0000.0001) %MON extforcing_qsw_max           =   0.0000000000000E+00
(PID.TID 0000.0001) %MON extforcing_qsw_min           =  -3.3787837809554E+02
(PID.TID 0000.0001) %MON extforcing_qsw_mean          =  -1.8665471032211E+02
(PID.TID 0000.0001) %MON extforcing_qsw_sd            =   7.8328293453097E+01
(PID.TID 0000.0001) %MON extforcing_qsw_del2          =   3.8419308943618E+00
(PID.TID 0000.0001) %MON extforcing_empmr_max         =   4.1160556440813E-07
(PID.TID 0000.0001) %MON extforcing_empmr_min         =  -3.1718746155855E-07
(PID.TID 0000.0001) %MON extforcing_empmr_mean        =  -6.9347667566433E-11
(PID.TID 0000.0001) %MON extforcing_empmr_sd          =   5.1247946972866E-08
(PID.TID 0000.0001) %MON extforcing_empmr_del2        =   8.5459931020548E-09
(PID.TID 0000.0001) %MON extforcing_fu_max            =   2.4586080052368E-01
(PID.TID 0000.0001) %MON extforcing_fu_min            =  -2.1357997216533E-01
(PID.TID 0000.0001) %MON extforcing_fu_mean           =  -1.5675400879367E-03
(PID.TID 0000.0001) %MON extforcing_fu_sd             =   6.2042030625858E-02
(PID.TID 0000.0001) %MON extforcing_fu_del2           =   3.5486979008902E-03
(PID.TID 0000.0001) %MON extforcing_fv_max            =   2.9225622243089E-01
(PID.TID 0000.0001) %MON extforcing_fv_min            =  -3.3606226010595E-01
(PID.TID 0000.0001) %MON extforcing_fv_mean           =  -5.5267947269982E-03
(PID.TID 0000.0001) %MON extforcing_fv_sd             =   7.0068321014330E-02
(PID.TID 0000.0001) %MON extforcing_fv_del2           =   3.4842187020941E-03
(PID.TID 0000.0001) %MON advcfl_uvel_max              =   7.5003699828290E-02
(PID.TID 0000.0001) %MON advcfl_vvel_max              =   8.4199669801981E-02
(PID.TID 0000.0001) %MON advcfl_wvel_max              =   5.7632715630853E-02
(PID.TID 0000.0001) %MON advcfl_W_hf_max              =   1.1374047335764E-01
(PID.TID 0000.0001) %MON pe_b_mean                    =  -1.9246245454207E-03
(PID.TID 0000.0001) %MON ke_max                       =   3.4805087499844E-02
(PID.TID 0000.0001) %MON ke_mean                      =   1.6198292237560E-04
(PID.TID 0000.0001) %MON ke_vol                       =   1.3395904683914E+18
(PID.TID 0000.0001) %MON vort_r_min                   =  -1.2891613513081E-06
(PID.TID 0000.0001) %MON vort_r_max                   =   1.4171652479545E-06
(PID.TID 0000.0001) %MON vort_a_mean                  =  -2.0493733748264E-05
(PID.TID 0000.0001) %MON vort_a_sd                    =   7.5054012738302E-05
(PID.TID 0000.0001) %MON vort_p_mean                  =  -2.4719488719527E-05
(PID.TID 0000.0001) %MON vort_p_sd                    =   1.2782298113537E-04
(PID.TID 0000.0001) %MON surfExpan_theta_mean         =   7.3210536836169E-08
(PID.TID 0000.0001) %MON surfExpan_salt_mean          =   1.9314405123292E-08
(PID.TID 0000.0001) // =======================================================
(PID.TID 0000.0001) // End MONITOR dynamic field statistics
(PID.TID 0000.0001) // =======================================================
(PID.TID 0000.0001) // =======================================================
(PID.TID 0000.0001) // Begin MONITOR Therm.SeaIce statistics
(PID.TID 0000.0001) // =======================================================
(PID.TID 0000.0001) %MON thSI_time_sec                =   3.1118688000000E+09
(PID.TID 0000.0001) %MON thSI_Ice_Area_G              =   2.4630835799534E+13
(PID.TID 0000.0001) %MON thSI_Ice_Area_S              =   1.1397370959172E+13
(PID.TID 0000.0001) %MON thSI_Ice_Area_N              =   1.3233464840362E+13
(PID.TID 0000.0001) %MON thSI_IceH_ave_G              =   4.6259346739067E+00
(PID.TID 0000.0001) %MON thSI_IceH_ave_S              =   5.8966073649606E+00
(PID.TID 0000.0001) %MON thSI_IceH_ave_N              =   3.5315630786870E+00
(PID.TID 0000.0001) %MON thSI_IceH_max_S              =   1.0000000000000E+01
(PID.TID 0000.0001) %MON thSI_IceH_max_N              =   1.0000000000000E+01
(PID.TID 0000.0001) %MON thSI_SnwH_ave_G              =   1.0066989016489E+00
(PID.TID 0000.0001) %MON thSI_SnwH_ave_S              =   1.7310870526070E+00
(PID.TID 0000.0001) %MON thSI_SnwH_ave_N              =   3.8281690441750E-01
(PID.TID 0000.0001) %MON thSI_SnwH_max_S              =   4.0930360943987E+00
(PID.TID 0000.0001) %MON thSI_SnwH_max_N              =   4.1061240307266E+00
(PID.TID 0000.0001) %MON thSI_TotEnerg_G              =  -3.8139806863898E+22
(PID.TID 0000.0001) %MON thSI_Tsrf_ave_G              =  -1.8009781719046E+01
(PID.TID 0000.0001) %MON thSI_Tsrf_ave_S              =  -1.4851936524795E-01
(PID.TID 0000.0001) %MON thSI_Tsrf_ave_N              =  -3.3392860549954E+01
(PID.TID 0000.0001) %MON thSI_Tsrf_min_S              =  -5.7900292616704E+00
(PID.TID 0000.0001) %MON thSI_Tsrf_min_N              =  -4.7949859818978E+01
(PID.TID 0000.0001) %MON thSI_Tsrf_max_S              =   0.0000000000000E+00
(PID.TID 0000.0001) %MON thSI_Tsrf_max_N              =  -1.7864319285347E+00
(PID.TID 0000.0001) %MON thSI_Tic1_ave_G              =  -8.6892375457519E+00
(PID.TID 0000.0001) %MON thSI_Tic1_ave_S              =  -4.7958938035082E+00
(PID.TID 0000.0001) %MON thSI_Tic1_ave_N              =  -1.4287962181033E+01
(PID.TID 0000.0001) %MON thSI_Tic1_min_S              =  -1.4272205692310E+01
(PID.TID 0000.0001) %MON thSI_Tic1_min_N              =  -2.1764879950899E+01
(PID.TID 0000.0001) %MON thSI_Tic1_max_S              =  -1.4680037614505E-01
(PID.TID 0000.0001) %MON thSI_Tic1_max_N              =  -9.4352813652030E-01
(PID.TID 0000.0001) %MON thSI_Tic2_ave_G              =  -3.9370671501358E+00
(PID.TID 0000.0001) %MON thSI_Tic2_ave_S              =  -3.0429274279590E+00
(PID.TID 0000.0001) %MON thSI_Tic2_ave_N              =  -5.2228621945388E+00
(PID.TID 0000.0001) %MON thSI_Tic2_min_S              =  -8.2917469549213E+00
(PID.TID 0000.0001) %MON thSI_Tic2_min_N              =  -7.9190508860398E+00
(PID.TID 0000.0001) %MON thSI_Tic2_max_S              =  -9.9313152272028E-01
(PID.TID 0000.0001) %MON thSI_Tic2_max_N              =  -1.4200669206651E+00
(PID.TID 0000.0001) // =======================================================
(PID.TID 0000.0001) // End MONITOR Therm.SeaIce statistics
(PID.TID 0000.0001) // =======================================================
 cg2d: Sum(rhs),rhsMax =   3.91666574526887E+02  2.30707528232266E+02
(PID.TID 0000.0001)                    cg2d_init_res =    2.57694382349397E+00
(PID.TID 0000.0001)                       cg2d_iters =    69
(PID.TID 0000.0001)                         cg2d_res =    5.25456212407147E-07
(PID.TID 0000.0001) // =======================================================
(PID.TID 0000.0001) // Begin MONITOR dynamic field statistics
(PID.TID 0000.0001) // =======================================================
(PID.TID 0000.0001) %MON time_tsnumber                =                 36018
(PID.TID 0000.0001) %MON time_secondsf                =   3.1119552000000E+09
(PID.TID 0000.0001) %MON dynstat_eta_max              =   7.1203885490194E-01
(PID.TID 0000.0001) %MON dynstat_eta_min              =  -1.1944176274529E+01
(PID.TID 0000.0001) %MON dynstat_eta_mean             =  -5.8254255007989E-01
(PID.TID 0000.0001) %MON dynstat_eta_sd               =   1.6967759028929E+00
(PID.TID 0000.0001) %MON dynstat_eta_del2             =   9.8609882508453E-02
(PID.TID 0000.0001) %MON dynstat_uvel_max             =   1.7302166869927E-01
(PID.TID 0000.0001) %MON dynstat_uvel_min             =  -2.6392921170902E-01
(PID.TID 0000.0001) %MON dynstat_uvel_mean            =  -5.1898258047583E-04
(PID.TID 0000.0001) %MON dynstat_uvel_sd              =   1.2983916652820E-02
(PID.TID 0000.0001) %MON dynstat_uvel_del2            =   1.7905514461847E-03
(PID.TID 0000.0001) %MON dynstat_vvel_max             =   1.9269365669126E-01
(PID.TID 0000.0001) %MON dynstat_vvel_min             =  -2.1158975734143E-01
(PID.TID 0000.0001) %MON dynstat_vvel_mean            =  -4.1616928338435E-04
(PID.TID 0000.0001) %MON dynstat_vvel_sd              =   1.3480039295527E-02
(PID.TID 0000.0001) %MON dynstat_vvel_del2            =   1.8149053227927E-03
(PID.TID 0000.0001) %MON dynstat_wvel_max             =   9.2987285195055E-05
(PID.TID 0000.0001) %MON dynstat_wvel_min             =  -1.7652098987647E-04
(PID.TID 0000.0001) %MON dynstat_wvel_mean            =  -1.1893401707093E-09
(PID.TID 0000.0001) %MON dynstat_wvel_sd              =   4.6251696882048E-06
(PID.TID 0000.0001) %MON dynstat_wvel_del2            =   1.1357797124840E-06
(PID.TID 0000.0001) %MON dynstat_theta_max            =   2.9817341980744E+01
(PID.TID 0000.0001) %MON dynstat_theta_min            =  -3.5501222689908E+00
(PID.TID 0000.0001) %MON dynstat_theta_mean           =   3.5039825200523E+00
(PID.TID 0000.0001) %MON dynstat_theta_sd             =   4.7508160680304E+00
(PID.TID 0000.0001) %MON dynstat_theta_del2           =   9.5704323780501E-02
(PID.TID 0000.0001) %MON dynstat_salt_max             =   4.0842054706893E+01
(PID.TID 0000.0001) %MON dynstat_salt_min             =   1.8098067062919E+01
(PID.TID 0000.0001) %MON dynstat_salt_mean            =   3.4756125829140E+01
(PID.TID 0000.0001) %MON dynstat_salt_sd              =   5.1172332974897E-01
(PID.TID 0000.0001) %MON dynstat_salt_del2            =   2.0037982724361E-02
(PID.TID 0000.0001) %MON extforcing_qnet_max          =   8.0490407044774E+02
(PID.TID 0000.0001) %MON extforcing_qnet_min          =  -2.3023263199186E+02
(PID.TID 0000.0001) %MON extforcing_qnet_mean         =  -6.8323058725079E+00
(PID.TID 0000.0001) %MON extforcing_qnet_sd           =   1.1679687577942E+02
(PID.TID 0000.0001) %MON extforcing_qnet_del2         =   1.2669958009592E+01
(PID.TID 0000.0001) %MON extforcing_qsw_max           =   0.0000000000000E+00
(PID.TID 0000.0001) %MON extforcing_qsw_min           =  -3.3686077470735E+02
(PID.TID 0000.0001) %MON extforcing_qsw_mean          =  -1.8662347211762E+02
(PID.TID 0000.0001) %MON extforcing_qsw_sd            =   7.7863874833310E+01
(PID.TID 0000.0001) %MON extforcing_qsw_del2          =   3.8168754657934E+00
(PID.TID 0000.0001) %MON extforcing_empmr_max         =   8.8297887970595E-07
(PID.TID 0000.0001) %MON extforcing_empmr_min         =  -3.1628978639873E-07
(PID.TID 0000.0001) %MON extforcing_empmr_mean        =   1.5285329661857E-10
(PID.TID 0000.0001) %MON extforcing_empmr_sd          =   5.2653011278831E-08
(PID.TID 0000.0001) %MON extforcing_empmr_del2        =   8.6443437062502E-09
(PID.TID 0000.0001) %MON extforcing_fu_max            =   2.4279378961307E-01
(PID.TID 0000.0001) %MON extforcing_fu_min            =  -2.1180240405542E-01
(PID.TID 0000.0001) %MON extforcing_fu_mean           =  -1.6306464407203E-03
(PID.TID 0000.0001) %MON extforcing_fu_sd             =   6.1844576201664E-02
(PID.TID 0000.0001) %MON extforcing_fu_del2           =   3.5133153371273E-03
(PID.TID 0000.0001) %MON extforcing_fv_max            =   2.9145284083641E-01
(PID.TID 0000.0001) %MON extforcing_fv_min            =  -3.3262320792717E-01
(PID.TID 0000.0001) %MON extforcing_fv_mean           =  -5.3746331375997E-03
(PID.TID 0000.0001) %MON extforcing_fv_sd             =   6.9665585218961E-02
(PID.TID 0000.0001) %MON extforcing_fv_del2           =   3.4527246795856E-03
(PID.TID 0000.0001) %MON advcfl_uvel_max              =   7.4855330831156E-02
(PID.TID 0000.0001) %MON advcfl_vvel_max              =   8.3992450242211E-02
(PID.TID 0000.0001) %MON advcfl_wvel_max              =   5.7552503869157E-02
(PID.TID 0000.0001) %MON advcfl_W_hf_max              =   1.1220202780922E-01
(PID.TID 0000.0001) %MON pe_b_mean                    =  -1.9242193165946E-03
(PID.TID 0000.0001) %MON ke_max                       =   3.4661588863709E-02
(PID.TID 0000.0001) %MON ke_mean                      =   1.6195550579380E-04
(PID.TID 0000.0001) %MON ke_vol                       =   1.3395904704979E+18
(PID.TID 0000.0001) %MON vort_r_min                   =  -1.2938296857431E-06
(PID.TID 0000.0001) %MON vort_r_max                   =   1.4186298577519E-06
(PID.TID 0000.0001) %MON vort_a_mean                  =  -2.0493733748264E-05
(PID.TID 0000.0001) %MON vort_a_sd                    =   7.5054012713069E-05
(PID.TID 0000.0001) %MON vort_p_mean                  =  -2.4719488279983E-05
(PID.TID 0000.0001) %MON vort_p_sd                    =   1.2782298740494E-04
(PID.TID 0000.0001) %MON surfExpan_theta_mean         =   7.1896055079811E-08
(PID.TID 0000.0001) %MON surfExpan_salt_mean          =   1.9182172535748E-08
(PID.TID 0000.0001) // =======================================================
(PID.TID 0000.0001) // End MONITOR dynamic field statistics
(PID.TID 0000.0001) // =======================================================
(PID.TID 0000.0001) // =======================================================
(PID.TID 0000.0001) // Begin MONITOR Therm.SeaIce statistics
(PID.TID 0000.0001) // =======================================================
(PID.TID 0000.0001) %MON thSI_time_sec                =   3.1119552000000E+09
(PID.TID 0000.0001) %MON thSI_Ice_Area_G              =   2.4634375260891E+13
(PID.TID 0000.0001) %MON thSI_Ice_Area_S              =   1.1352039813145E+13
(PID.TID 0000.0001) %MON thSI_Ice_Area_N              =   1.3282335447746E+13
(PID.TID 0000.0001) %MON thSI_IceH_ave_G              =   4.6257772285999E+00
(PID.TID 0000.0001) %MON thSI_IceH_ave_S              =   5.9130101830556E+00
(PID.TID 0000.0001) %MON thSI_IceH_ave_N              =   3.5256153026148E+00
(PID.TID 0000.0001) %MON thSI_IceH_max_S              =   1.0000000000000E+01
(PID.TID 0000.0001) %MON thSI_IceH_max_N              =   1.0000000000000E+01
(PID.TID 0000.0001) %MON thSI_SnwH_ave_G              =   1.0044611557688E+00
(PID.TID 0000.0001) %MON thSI_SnwH_ave_S              =   1.7301496471045E+00
(PID.TID 0000.0001) %MON thSI_SnwH_ave_N              =   3.8423554273608E-01
(PID.TID 0000.0001) %MON thSI_SnwH_max_S              =   4.0930058997896E+00
(PID.TID 0000.0001) %MON thSI_SnwH_max_N              =   4.1064807743202E+00
(PID.TID 0000.0001) %MON thSI_TotEnerg_G              =  -3.8140071852906E+22
(PID.TID 0000.0001) %MON thSI_Tsrf_ave_G              =  -1.8060992467171E+01
(PID.TID 0000.0001) %MON thSI_Tsrf_ave_S              =  -1.8662829360272E-01
(PID.TID 0000.0001) %MON thSI_Tsrf_ave_N              =  -3.3337710521106E+01
(PID.TID 0000.0001) %MON thSI_Tsrf_min_S              =  -6.0831078421680E+00
(PID.TID 0000.0001) %MON thSI_Tsrf_min_N              =  -4.7936337899855E+01
(PID.TID 0000.0001) %MON thSI_Tsrf_max_S              =   0.0000000000000E+00
(PID.TID 0000.0001) %MON thSI_Tsrf_max_N              =  -1.7145242021576E+00
(PID.TID 0000.0001) %MON thSI_Tic1_ave_G              =  -8.7069648958722E+00
(PID.TID 0000.0001) %MON thSI_Tic1_ave_S              =  -4.7735801296111E+00
(PID.TID 0000.0001) %MON thSI_Tic1_ave_N              =  -1.4345153470945E+01
(PID.TID 0000.0001) %MON thSI_Tic1_min_S              =  -1.3834475939260E+01
(PID.TID 0000.0001) %MON thSI_Tic1_min_N              =  -2.1860507825496E+01
(PID.TID 0000.0001) %MON thSI_Tic1_max_S              =  -1.4265359711896E-01
(PID.TID 0000.0001) %MON thSI_Tic1_max_N              =  -9.7151767035624E-01
(PID.TID 0000.0001) %MON thSI_Tic2_ave_G              =  -3.9465630411208E+00
(PID.TID 0000.0001) %MON thSI_Tic2_ave_S              =  -3.0389132818429E+00
(PID.TID 0000.0001) %MON thSI_Tic2_ave_N              =  -5.2476054783683E+00
(PID.TID 0000.0001) %MON thSI_Tic2_min_S              =  -8.2569431579676E+00
(PID.TID 0000.0001) %MON thSI_Tic2_min_N              =  -7.9425117661295E+00
(PID.TID 0000.0001) %MON thSI_Tic2_max_S              =  -9.6899432108979E-01
(PID.TID 0000.0001) %MON thSI_Tic2_max_N              =  -1.4319305021321E+00
(PID.TID 0000.0001) // =======================================================
(PID.TID 0000.0001) // End MONITOR Therm.SeaIce statistics
(PID.TID 0000.0001) // =======================================================
 cg2d: Sum(rhs),rhsMax =   3.91678684601333E+02  2.30802917293807E+02
(PID.TID 0000.0001)                    cg2d_init_res =    2.53184381908625E+00
(PID.TID 0000.0001)                       cg2d_iters =    69
(PID.TID 0000.0001)                         cg2d_res =    5.09104028893657E-07
(PID.TID 0000.0001) // =======================================================
(PID.TID 0000.0001) // Begin MONITOR dynamic field statistics
(PID.TID 0000.0001) // =======================================================
(PID.TID 0000.0001) %MON time_tsnumber                =                 36019
(PID.TID 0000.0001) %MON time_secondsf                =   3.1120416000000E+09
(PID.TID 0000.0001) %MON dynstat_eta_max              =   7.1103807707171E-01
(PID.TID 0000.0001) %MON dynstat_eta_min              =  -1.1941417752599E+01
(PID.TID 0000.0001) %MON dynstat_eta_mean             =  -5.8256056191472E-01
(PID.TID 0000.0001) %MON dynstat_eta_sd               =   1.6964658336643E+00
(PID.TID 0000.0001) %MON dynstat_eta_del2             =   9.8642801104466E-02
(PID.TID 0000.0001) %MON dynstat_uvel_max             =   1.7308161634814E-01
(PID.TID 0000.0001) %MON dynstat_uvel_min             =  -2.6339479925053E-01
(PID.TID 0000.0001) %MON dynstat_uvel_mean            =  -5.1818607204420E-04
(PID.TID 0000.0001) %MON dynstat_uvel_sd              =   1.2984606482337E-02
(PID.TID 0000.0001) %MON dynstat_uvel_del2            =   1.7907491151864E-03
(PID.TID 0000.0001) %MON dynstat_vvel_max             =   1.9218120365389E-01
(PID.TID 0000.0001) %MON dynstat_vvel_min             =  -2.1158706733077E-01
(PID.TID 0000.0001) %MON dynstat_vvel_mean            =  -4.1557630580431E-04
(PID.TID 0000.0001) %MON dynstat_vvel_sd              =   1.3476888580445E-02
(PID.TID 0000.0001) %MON dynstat_vvel_del2            =   1.8142650185976E-03
(PID.TID 0000.0001) %MON dynstat_wvel_max             =   9.3330958615516E-05
(PID.TID 0000.0001) %MON dynstat_wvel_min             =  -1.7628365540791E-04
(PID.TID 0000.0001) %MON dynstat_wvel_mean            =  -1.1446539185908E-09
(PID.TID 0000.0001) %MON dynstat_wvel_sd              =   4.6245859935777E-06
(PID.TID 0000.0001) %MON dynstat_wvel_del2            =   1.1357280222352E-06
(PID.TID 0000.0001) %MON dynstat_theta_max            =   2.9802879974258E+01
(PID.TID 0000.0001) %MON dynstat_theta_min            =  -3.5682786293482E+00
(PID.TID 0000.0001) %MON dynstat_theta_mean           =   3.5040582628275E+00
(PID.TID 0000.0001) %MON dynstat_theta_sd             =   4.7510041088375E+00
(PID.TID 0000.0001) %MON dynstat_theta_del2           =   9.5763556989682E-02
(PID.TID 0000.0001) %MON dynstat_salt_max             =   4.0842331170893E+01
(PID.TID 0000.0001) %MON dynstat_salt_min             =   1.8099486733381E+01
(PID.TID 0000.0001) %MON dynstat_salt_mean            =   3.4756127068464E+01
(PID.TID 0000.0001) %MON dynstat_salt_sd              =   5.1171323416846E-01
(PID.TID 0000.0001) %MON dynstat_salt_del2            =   2.0042739095364E-02
(PID.TID 0000.0001) %MON extforcing_qnet_max          =   7.9820301796982E+02
(PID.TID 0000.0001) %MON extforcing_qnet_min          =  -2.2869479787797E+02
(PID.TID 0000.0001) %MON extforcing_qnet_mean         =  -6.9768366641256E+00
(PID.TID 0000.0001) %MON extforcing_qnet_sd           =   1.1499918860067E+02
(PID.TID 0000.0001) %MON extforcing_qnet_del2         =   1.2589265712974E+01
(PID.TID 0000.0001) %MON extforcing_qsw_max           =   0.0000000000000E+00
(PID.TID 0000.0001) %MON extforcing_qsw_min           =  -3.3584317131916E+02
(PID.TID 0000.0001) %MON extforcing_qsw_mean          =  -1.8659474051779E+02
(PID.TID 0000.0001) %MON extforcing_qsw_sd            =   7.7410430666970E+01
(PID.TID 0000.0001) %MON extforcing_qsw_del2          =   3.7973539811413E+00
(PID.TID 0000.0001) %MON extforcing_empmr_max         =   6.4012813773168E-07
(PID.TID 0000.0001) %MON extforcing_empmr_min         =  -3.1695307021586E-07
(PID.TID 0000.0001) %MON extforcing_empmr_mean        =   2.1576677140312E-10
(PID.TID 0000.0001) %MON extforcing_empmr_sd          =   5.1556821192066E-08
(PID.TID 0000.0001) %MON extforcing_empmr_del2        =   8.5562236129249E-09
(PID.TID 0000.0001) %MON extforcing_fu_max            =   2.3972677870247E-01
(PID.TID 0000.0001) %MON extforcing_fu_min            =  -2.1002483594552E-01
(PID.TID 0000.0001) %MON extforcing_fu_mean           =  -1.6937528841246E-03
(PID.TID 0000.0001) %MON extforcing_fu_sd             =   6.1659635773195E-02
(PID.TID 0000.0001) %MON extforcing_fu_del2           =   3.4804689803162E-03
(PID.TID 0000.0001) %MON extforcing_fv_max            =   2.9064945924193E-01
(PID.TID 0000.0001) %MON extforcing_fv_min            =  -3.2918415574839E-01
(PID.TID 0000.0001) %MON extforcing_fv_mean           =  -5.2224716863646E-03
(PID.TID 0000.0001) %MON extforcing_fv_sd             =   6.9271992002100E-02
(PID.TID 0000.0001) %MON extforcing_fv_del2           =   3.4226173805692E-03
(PID.TID 0000.0001) %MON advcfl_uvel_max              =   7.4703761320826E-02
(PID.TID 0000.0001) %MON advcfl_vvel_max              =   8.3769079182771E-02
(PID.TID 0000.0001) %MON advcfl_wvel_max              =   5.7475123876391E-02
(PID.TID 0000.0001) %MON advcfl_W_hf_max              =   1.1062334842213E-01
(PID.TID 0000.0001) %MON pe_b_mean                    =  -1.9239508590546E-03
(PID.TID 0000.0001) %MON ke_max                       =   3.4517054901659E-02
(PID.TID 0000.0001) %MON ke_mean                      =   1.6192374213090E-04
(PID.TID 0000.0001) %MON ke_vol                       =   1.3395904658547E+18
(PID.TID 0000.0001) %MON vort_r_min                   =  -1.2982818435925E-06
(PID.TID 0000.0001) %MON vort_r_max                   =   1.4196137657778E-06
(PID.TID 0000.0001) %MON vort_a_mean                  =  -2.0493733748264E-05
(PID.TID 0000.0001) %MON vort_a_sd                    =   7.5054012707093E-05
(PID.TID 0000.0001) %MON vort_p_mean                  =  -2.4719487912935E-05
(PID.TID 0000.0001) %MON vort_p_sd                    =   1.2782299607144E-04
(PID.TID 0000.0001) %MON surfExpan_theta_mean         =   7.1096265968714E-08
(PID.TID 0000.0001) %MON surfExpan_salt_mean          =   1.8982409964907E-08
(PID.TID 0000.0001) // =======================================================
(PID.TID 0000.0001) // End MONITOR dynamic field statistics
(PID.TID 0000.0001) // =======================================================
(PID.TID 0000.0001) // =======================================================
(PID.TID 0000.0001) // Begin MONITOR Therm.SeaIce statistics
(PID.TID 0000.0001) // =======================================================
(PID.TID 0000.0001) %MON thSI_time_sec                =   3.1120416000000E+09
(PID.TID 0000.0001) %MON thSI_Ice_Area_G              =   2.4630294979767E+13
(PID.TID 0000.0001) %MON thSI_Ice_Area_S              =   1.1308567844085E+13
(PID.TID 0000.0001) %MON thSI_Ice_Area_N              =   1.3321727135682E+13
(PID.TID 0000.0001) %MON thSI_IceH_ave_G              =   4.6270621610268E+00
(PID.TID 0000.0001) %MON thSI_IceH_ave_S              =   5.9287274054046E+00
(PID.TID 0000.0001) %MON thSI_IceH_ave_N              =   3.5221026031248E+00
(PID.TID 0000.0001) %MON thSI_IceH_max_S              =   1.0000000000000E+01
(PID.TID 0000.0001) %MON thSI_IceH_max_N              =   1.0000000000000E+01
(PID.TID 0000.0001) %MON thSI_SnwH_ave_G              =   1.0028609289277E+00
(PID.TID 0000.0001) %MON thSI_SnwH_ave_S              =   1.7296083207487E+00
(PID.TID 0000.0001) %MON thSI_SnwH_ave_N              =   3.8593850571522E-01
(PID.TID 0000.0001) %MON thSI_SnwH_max_S              =   4.0929773240056E+00
(PID.TID 0000.0001) %MON thSI_SnwH_max_N              =   4.1068294221686E+00
(PID.TID 0000.0001) %MON thSI_TotEnerg_G              =  -3.8140898763051E+22
(PID.TID 0000.0001) %MON thSI_Tsrf_ave_G              =  -1.8111346686571E+01
(PID.TID 0000.0001) %MON thSI_Tsrf_ave_S              =  -2.2495040547060E-01
(PID.TID 0000.0001) %MON thSI_Tsrf_ave_N              =  -3.3294777766559E+01
(PID.TID 0000.0001) %MON thSI_Tsrf_min_S              =  -6.3852919779388E+00
(PID.TID 0000.0001) %MON thSI_Tsrf_min_N              =  -4.7922591470274E+01
(PID.TID 0000.0001) %MON thSI_Tsrf_max_S              =   0.0000000000000E+00
(PID.TID 0000.0001) %MON thSI_Tsrf_max_N              =  -4.9381027561095E+00
(PID.TID 0000.0001) %MON thSI_Tic1_ave_G              =  -8.7231725900986E+00
(PID.TID 0000.0001) %MON thSI_Tic1_ave_S              =  -4.7503955577405E+00
(PID.TID 0000.0001) %MON thSI_Tic1_ave_N              =  -1.4399935347394E+01
(PID.TID 0000.0001) %MON thSI_Tic1_min_S              =  -1.3714811752006E+01
(PID.TID 0000.0001) %MON thSI_Tic1_min_N              =  -2.1953921893936E+01
(PID.TID 0000.0001) %MON thSI_Tic1_max_S              =  -1.3875528822661E-01
(PID.TID 0000.0001) %MON thSI_Tic1_max_N              =  -1.0007664394968E+00
(PID.TID 0000.0001) %MON thSI_Tic2_ave_G              =  -3.9557856509575E+00
(PID.TID 0000.0001) %MON thSI_Tic2_ave_S              =  -3.0348624693169E+00
(PID.TID 0000.0001) %MON thSI_Tic2_ave_N              =  -5.2717070775279E+00
(PID.TID 0000.0001) %MON thSI_Tic2_min_S              =  -8.2205508735644E+00
(PID.TID 0000.0001) %MON thSI_Tic2_min_N              =  -7.9652018655111E+00
(PID.TID 0000.0001) %MON thSI_Tic2_max_S              =  -9.4495205298123E-01
(PID.TID 0000.0001) %MON thSI_Tic2_max_N              =  -1.4436008934074E+00
(PID.TID 0000.0001) // =======================================================
(PID.TID 0000.0001) // End MONITOR Therm.SeaIce statistics
(PID.TID 0000.0001) // =======================================================
 Computing Diagnostic #  23  ETAN         Counter:       1   Parms: SM      M1      
 Computing Diagnostic #  76  oceFWflx     Counter:       1   Parms: SM      U1      
 Computing Diagnostic #  26  THETA        Counter:       1   Parms: SM      MR      
 Computing Diagnostic #  27  SALT         Counter:       1   Parms: SM      MR      
 Compute Stats, Diag. #  72  oceTAUX   vol(  0 ): 3.111E+15  Parms: SU      U1      
 Compute Stats, Diag. #  73  oceTAUY   vol(  0 ): 3.130E+15  Parms: SV      U1      
 Compute Stats, Diag. #  81  TRELAX    vol(  0 ): 3.275E+15  Parms: SM      U1      
 Compute Stats, Diag. #  82  SRELAX    vol(  0 ): 3.275E+15  Parms: SM      U1      
 Compute Stats, Diag. #  83  surForcT  vol(  0 ): 3.275E+15  Parms: SM      U1      
 Compute Stats, Diag. #  84  surForcS  vol(  0 ): 3.275E+15  Parms: SM      U1      
 Compute Stats, Diag. #  85  TFLUX     vol(  0 ): 3.275E+15  Parms: SM      U1      
 Compute Stats, Diag. #  86  SFLUX     vol(  0 ): 3.275E+15  Parms: SM      U1      
 Compute Stats, Diag. #  78  oceQnet   vol(  0 ): 3.275E+15  Parms: SM      U1      
 Compute Stats, Diag. #  77  oceSflux  vol(  0 ): 3.275E+15  Parms: SM      U1      
 Compute Stats, Diag. #  76  oceFWflx  vol(  0 ): 3.275E+15  Parms: SM      U1      
 cg2d: Sum(rhs),rhsMax =   3.91685073448867E+02  2.30890038753230E+02
(PID.TID 0000.0001)                    cg2d_init_res =    2.51370580811725E+00
(PID.TID 0000.0001)                       cg2d_iters =    68
(PID.TID 0000.0001)                         cg2d_res =    5.77696428565556E-07
(PID.TID 0000.0001) // =======================================================
(PID.TID 0000.0001) // Begin MONITOR dynamic field statistics
(PID.TID 0000.0001) // =======================================================
(PID.TID 0000.0001) %MON time_tsnumber                =                 36020
(PID.TID 0000.0001) %MON time_secondsf                =   3.1121280000000E+09
(PID.TID 0000.0001) %MON dynstat_eta_max              =   7.1006045203977E-01
(PID.TID 0000.0001) %MON dynstat_eta_min              =  -1.1938849589261E+01
(PID.TID 0000.0001) %MON dynstat_eta_mean             =  -5.8257006432257E-01
(PID.TID 0000.0001) %MON dynstat_eta_sd               =   1.6961942368034E+00
(PID.TID 0000.0001) %MON dynstat_eta_del2             =   9.8672763968838E-02
(PID.TID 0000.0001) %MON dynstat_uvel_max             =   1.7308339474324E-01
(PID.TID 0000.0001) %MON dynstat_uvel_min             =  -2.6284893942524E-01
(PID.TID 0000.0001) %MON dynstat_uvel_mean            =  -5.1741466770490E-04
(PID.TID 0000.0001) %MON dynstat_uvel_sd              =   1.2985330543770E-02
(PID.TID 0000.0001) %MON dynstat_uvel_del2            =   1.7908780106899E-03
(PID.TID 0000.0001) %MON dynstat_vvel_max             =   1.9163432176655E-01
(PID.TID 0000.0001) %MON dynstat_vvel_min             =  -2.1157670965373E-01
(PID.TID 0000.0001) %MON dynstat_vvel_mean            =  -4.1493943315496E-04
(PID.TID 0000.0001) %MON dynstat_vvel_sd              =   1.3473387123788E-02
(PID.TID 0000.0001) %MON dynstat_vvel_del2            =   1.8136347931691E-03
(PID.TID 0000.0001) %MON dynstat_wvel_max             =   9.3606195222806E-05
(PID.TID 0000.0001) %MON dynstat_wvel_min             =  -1.7606285633389E-04
(PID.TID 0000.0001) %MON dynstat_wvel_mean            =  -1.0888370660908E-09
(PID.TID 0000.0001) %MON dynstat_wvel_sd              =   4.6237087070150E-06
(PID.TID 0000.0001) %MON dynstat_wvel_del2            =   1.1355492621121E-06
(PID.TID 0000.0001) %MON dynstat_theta_max            =   2.9808320361359E+01
(PID.TID 0000.0001) %MON dynstat_theta_min            =  -3.5864293006433E+00
(PID.TID 0000.0001) %MON dynstat_theta_mean           =   3.5041347098152E+00
(PID.TID 0000.0001) %MON dynstat_theta_sd             =   4.7512022230430E+00
(PID.TID 0000.0001) %MON dynstat_theta_del2           =   9.5804752941012E-02
(PID.TID 0000.0001) %MON dynstat_salt_max             =   4.0842509766646E+01
(PID.TID 0000.0001) %MON dynstat_salt_min             =   1.8100914926468E+01
(PID.TID 0000.0001) %MON dynstat_salt_mean            =   3.4756128268049E+01
(PID.TID 0000.0001) %MON dynstat_salt_sd              =   5.1170376189625E-01
(PID.TID 0000.0001) %MON dynstat_salt_del2            =   2.0048007223158E-02
(PID.TID 0000.0001) %MON extforcing_qnet_max          =   7.9161689671723E+02
(PID.TID 0000.0001) %MON extforcing_qnet_min          =  -2.2680857865599E+02
(PID.TID 0000.0001) %MON extforcing_qnet_mean         =  -7.0518708721316E+00
(PID.TID 0000.0001) %MON extforcing_qnet_sd           =   1.1332890273627E+02
(PID.TID 0000.0001) %MON extforcing_qnet_del2         =   1.2492366587891E+01
(PID.TID 0000.0001) %MON extforcing_qsw_max           =   0.0000000000000E+00
(PID.TID 0000.0001) %MON extforcing_qsw_min           =  -3.3482556793097E+02
(PID.TID 0000.0001) %MON extforcing_qsw_mean          =  -1.8656582102807E+02
(PID.TID 0000.0001) %MON extforcing_qsw_sd            =   7.6963787649785E+01
(PID.TID 0000.0001) %MON extforcing_qsw_del2          =   3.7789590877833E+00
(PID.TID 0000.0001) %MON extforcing_empmr_max         =   4.6950588357853E-07
(PID.TID 0000.0001) %MON extforcing_empmr_min         =  -3.1766115838631E-07
(PID.TID 0000.0001) %MON extforcing_empmr_mean        =   1.1383092745401E-10
(PID.TID 0000.0001) %MON extforcing_empmr_sd          =   4.9705062953796E-08
(PID.TID 0000.0001) %MON extforcing_empmr_del2        =   8.3730084101394E-09
(PID.TID 0000.0001) %MON extforcing_fu_max            =   2.3665976779186E-01
(PID.TID 0000.0001) %MON extforcing_fu_min            =  -2.0824726783562E-01
(PID.TID 0000.0001) %MON extforcing_fu_mean           =  -1.7568593985567E-03
(PID.TID 0000.0001) %MON extforcing_fu_sd             =   6.1487322258792E-02
(PID.TID 0000.0001) %MON extforcing_fu_del2           =   3.4499957832840E-03
(PID.TID 0000.0001) %MON extforcing_fv_max            =   2.8984607764745E-01
(PID.TID 0000.0001) %MON extforcing_fv_min            =  -3.2574510356961E-01
(PID.TID 0000.0001) %MON extforcing_fv_mean           =  -5.0703103139695E-03
(PID.TID 0000.0001) %MON extforcing_fv_sd             =   6.8887698123998E-02
(PID.TID 0000.0001) %MON extforcing_fv_del2           =   3.3948587952260E-03
(PID.TID 0000.0001) %MON advcfl_uvel_max              =   7.4548945120132E-02
(PID.TID 0000.0001) %MON advcfl_vvel_max              =   8.3530701072669E-02
(PID.TID 0000.0001) %MON advcfl_wvel_max              =   5.7403135046218E-02
(PID.TID 0000.0001) %MON advcfl_W_hf_max              =   1.0900564354471E-01
(PID.TID 0000.0001) %MON pe_b_mean                    =  -1.9237941553364E-03
(PID.TID 0000.0001) %MON ke_max                       =   3.4371447040662E-02
(PID.TID 0000.0001) %MON ke_mean                      =   1.6188800732404E-04
(PID.TID 0000.0001) %MON ke_vol                       =   1.3395904593005E+18
(PID.TID 0000.0001) %MON vort_r_min                   =  -1.3025064336270E-06
(PID.TID 0000.0001) %MON vort_r_max                   =   1.4201332347550E-06
(PID.TID 0000.0001) %MON vort_a_mean                  =  -2.0493733748264E-05
(PID.TID 0000.0001) %MON vort_a_sd                    =   7.5054012718386E-05
(PID.TID 0000.0001) %MON vort_p_mean                  =  -2.4719487591220E-05
(PID.TID 0000.0001) %MON vort_p_sd                    =   1.2782300472660E-04
(PID.TID 0000.0001) %MON surfExpan_theta_mean         =   7.0844328877473E-08
(PID.TID 0000.0001) %MON surfExpan_salt_mean          =   1.8969239843140E-08
(PID.TID 0000.0001) // =======================================================
(PID.TID 0000.0001) // End MONITOR dynamic field statistics
(PID.TID 0000.0001) // =======================================================
(PID.TID 0000.0001) // =======================================================
(PID.TID 0000.0001) // Begin MONITOR Therm.SeaIce statistics
(PID.TID 0000.0001) // =======================================================
(PID.TID 0000.0001) %MON thSI_time_sec                =   3.1121280000000E+09
(PID.TID 0000.0001) %MON thSI_Ice_Area_G              =   2.4622387145576E+13
(PID.TID 0000.0001) %MON thSI_Ice_Area_S              =   1.1274897626433E+13
(PID.TID 0000.0001) %MON thSI_Ice_Area_N              =   1.3347489519143E+13
(PID.TID 0000.0001) %MON thSI_IceH_ave_G              =   4.6288316146029E+00
(PID.TID 0000.0001) %MON thSI_IceH_ave_S              =   5.9396120467639E+00
(PID.TID 0000.0001) %MON thSI_IceH_ave_N              =   3.5215885512424E+00
(PID.TID 0000.0001) %MON thSI_IceH_max_S              =   1.0000000000000E+01
(PID.TID 0000.0001) %MON thSI_IceH_max_N              =   1.0000000000000E+01
(PID.TID 0000.0001) %MON thSI_SnwH_ave_G              =   1.0017584613028E+00
(PID.TID 0000.0001) %MON thSI_SnwH_ave_S              =   1.7282825097895E+00
(PID.TID 0000.0001) %MON thSI_SnwH_ave_N              =   3.8804872524492E-01
(PID.TID 0000.0001) %MON thSI_SnwH_max_S              =   4.0929486668295E+00
(PID.TID 0000.0001) %MON thSI_SnwH_max_N              =   4.1071684372619E+00
(PID.TID 0000.0001) %MON thSI_TotEnerg_G              =  -3.8141109028710E+22
(PID.TID 0000.0001) %MON thSI_Tsrf_ave_G              =  -1.8143290114248E+01
(PID.TID 0000.0001) %MON thSI_Tsrf_ave_S              =  -2.3478488658525E-01
(PID.TID 0000.0001) %MON thSI_Tsrf_ave_N              =  -3.3270971075881E+01
(PID.TID 0000.0001) %MON thSI_Tsrf_min_S              =  -6.6878510178172E+00
(PID.TID 0000.0001) %MON thSI_Tsrf_min_N              =  -4.7908616547184E+01
(PID.TID 0000.0001) %MON thSI_Tsrf_max_S              =   0.0000000000000E+00
(PID.TID 0000.0001) %MON thSI_Tsrf_max_N              =  -1.7525599667962E+00
(PID.TID 0000.0001) %MON thSI_Tic1_ave_G              =  -8.7417421717130E+00
(PID.TID 0000.0001) %MON thSI_Tic1_ave_S              =  -4.7327870492256E+00
(PID.TID 0000.0001) %MON thSI_Tic1_ave_N              =  -1.4453419694627E+01
(PID.TID 0000.0001) %MON thSI_Tic1_min_S              =  -1.3599774764022E+01
(PID.TID 0000.0001) %MON thSI_Tic1_min_N              =  -2.2045182162303E+01
(PID.TID 0000.0001) %MON thSI_Tic1_max_S              =  -1.3508668197431E-01
(PID.TID 0000.0001) %MON thSI_Tic1_max_N              =  -1.0313329371957E+00
(PID.TID 0000.0001) %MON thSI_Tic2_ave_G              =  -3.9647453303285E+00
(PID.TID 0000.0001) %MON thSI_Tic2_ave_S              =  -3.0307348391139E+00
(PID.TID 0000.0001) %MON thSI_Tic2_ave_N              =  -5.2954578391595E+00
(PID.TID 0000.0001) %MON thSI_Tic2_min_S              =  -8.1847751063093E+00
(PID.TID 0000.0001) %MON thSI_Tic2_min_N              =  -7.9871377981505E+00
(PID.TID 0000.0001) %MON thSI_Tic2_max_S              =  -9.2142670167848E-01
(PID.TID 0000.0001) %MON thSI_Tic2_max_N              =  -1.4551354516948E+00
(PID.TID 0000.0001) // =======================================================
(PID.TID 0000.0001) // End MONITOR Therm.SeaIce statistics
(PID.TID 0000.0001) // =======================================================
 Computing Diagnostic #  23  ETAN         Counter:       1   Parms: SM      M1      
 Compute Stats, Diag. #  23  ETAN      vol(  0 ): 3.639E+15  Parms: SM      M1      
 Compute Stats, Diag. #  24  ETANSQ    vol(  0 ): 3.639E+15  Parms: SM      M1      
 Compute Stats, Diag. #  25  DETADT2   vol(  0 ): 3.639E+15  Parms: SM      M1      
 Compute Stats, Diag. #  26  THETA     vol(  0 ): 1.340E+19  Parms: SM      MR      
 Compute Stats, Diag. #  27  SALT      vol(  0 ): 1.340E+19  Parms: SM      MR      
 Compute Stats, Diag. #  71  CONVADJ   vol(  0 ): 1.315E+19  Parms: SM      LR      
 Compute Stats, Diag. #  23  ETAN      vol(  0 ): 3.639E+14  Parms: SM      M1      
 Compute Stats, Diag. #  26  THETA     vol(  0 ): 1.340E+18  Parms: SM      MR      
 Compute Stats, Diag. #  27  SALT      vol(  0 ): 1.340E+18  Parms: SM      MR      
 Compute Stats, Diag. # 187  SI_Fract  vol(  0 ): 3.639E+15  Parms: SM P    M1      
 Compute Stats, Diag. # 187  SI_Fract  vol(  1 ): 1.289E+15  Parms: SM P    M1      
 Compute Stats, Diag. # 187  SI_Fract  vol(  3 ): 7.935E+14  Parms: SM P    M1      
 Compute Stats, Diag. # 188  SI_Thick  vol(  0 ): 2.467E+14  Parms: SM PC187M1      
    use Counter Mate  # 187  SI_Fract  vol(  0 ): 3.639E+15 integral 2.467E+14
 Compute Stats, Diag. # 188  SI_Thick  vol(  1 ): 1.149E+14  Parms: SM PC187M1      
    use Counter Mate  # 187  SI_Fract  vol(  1 ): 1.289E+15 integral 1.149E+14
 Compute Stats, Diag. # 188  SI_Thick  vol(  3 ): 1.319E+14  Parms: SM PC187M1      
    use Counter Mate  # 187  SI_Fract  vol(  3 ): 7.935E+14 integral 1.319E+14
 Compute Stats, Diag. # 189  SI_SnowH  vol(  0 ): 2.467E+14  Parms: SM PC187M1      
    use Counter Mate  # 187  SI_Fract  vol(  0 ): 3.639E+15 integral 2.467E+14
 Compute Stats, Diag. # 189  SI_SnowH  vol(  1 ): 1.149E+14  Parms: SM PC187M1      
    use Counter Mate  # 187  SI_Fract  vol(  1 ): 1.289E+15 integral 1.149E+14
 Compute Stats, Diag. # 189  SI_SnowH  vol(  3 ): 1.319E+14  Parms: SM PC187M1      
    use Counter Mate  # 187  SI_Fract  vol(  3 ): 7.935E+14 integral 1.319E+14
 Compute Stats, Diag. # 190  SI_Tsrf   vol(  0 ): 2.467E+14  Parms: SM  C187M1      
    use Counter Mate  # 187  SI_Fract  vol(  0 ): 3.639E+15 integral 2.467E+14
 Compute Stats, Diag. # 190  SI_Tsrf   vol(  1 ): 1.149E+14  Parms: SM  C187M1      
    use Counter Mate  # 187  SI_Fract  vol(  1 ): 1.289E+15 integral 1.149E+14
 Compute Stats, Diag. # 190  SI_Tsrf   vol(  3 ): 1.319E+14  Parms: SM  C187M1      
    use Counter Mate  # 187  SI_Fract  vol(  3 ): 7.935E+14 integral 1.319E+14
 Compute Stats, Diag. # 191  SI_Tice1  vol(  0 ): 2.467E+14  Parms: SM  C187M1      
    use Counter Mate  # 187  SI_Fract  vol(  0 ): 3.639E+15 integral 2.467E+14
 Compute Stats, Diag. # 191  SI_Tice1  vol(  1 ): 1.149E+14  Parms: SM  C187M1      
    use Counter Mate  # 187  SI_Fract  vol(  1 ): 1.289E+15 integral 1.149E+14
 Compute Stats, Diag. # 191  SI_Tice1  vol(  3 ): 1.319E+14  Parms: SM  C187M1      
    use Counter Mate  # 187  SI_Fract  vol(  3 ): 7.935E+14 integral 1.319E+14
 Compute Stats, Diag. # 192  SI_Tice2  vol(  0 ): 2.467E+14  Parms: SM  C187M1      
    use Counter Mate  # 187  SI_Fract  vol(  0 ): 3.639E+15 integral 2.467E+14
 Compute Stats, Diag. # 192  SI_Tice2  vol(  1 ): 1.149E+14  Parms: SM  C187M1      
    use Counter Mate  # 187  SI_Fract  vol(  1 ): 1.289E+15 integral 1.149E+14
 Compute Stats, Diag. # 192  SI_Tice2  vol(  3 ): 1.319E+14  Parms: SM  C187M1      
    use Counter Mate  # 187  SI_Fract  vol(  3 ): 7.935E+14 integral 1.319E+14
 Compute Stats, Diag. # 193  SI_Qice1  vol(  0 ): 1.139E+15  Parms: SM  C188M1      
    use Counter Mate  # 188  SI_Thick  vol(  0 ): 2.467E+14 integral 1.139E+15
 Compute Stats, Diag. # 193  SI_Qice1  vol(  1 ): 6.741E+14  Parms: SM  C188M1      
    use Counter Mate  # 188  SI_Thick  vol(  1 ): 1.149E+14 integral 6.741E+14
 Compute Stats, Diag. # 193  SI_Qice1  vol(  3 ): 4.651E+14  Parms: SM  C188M1      
    use Counter Mate  # 188  SI_Thick  vol(  3 ): 1.319E+14 integral 4.651E+14
 Compute Stats, Diag. # 194  SI_Qice2  vol(  0 ): 1.139E+15  Parms: SM  C188M1      
    use Counter Mate  # 188  SI_Thick  vol(  0 ): 2.467E+14 integral 1.139E+15
 Compute Stats, Diag. # 194  SI_Qice2  vol(  1 ): 6.741E+14  Parms: SM  C188M1      
    use Counter Mate  # 188  SI_Thick  vol(  1 ): 1.149E+14 integral 6.741E+14
 Compute Stats, Diag. # 194  SI_Qice2  vol(  3 ): 4.651E+14  Parms: SM  C188M1      
    use Counter Mate  # 188  SI_Thick  vol(  3 ): 1.319E+14 integral 4.651E+14
 Compute Stats, Diag. # 198  SIsnwPrc  vol(  0 ): 2.467E+14  Parms: SM  C196M1      
    use Counter Mate  # 196  SI_FrcFx  vol(  0 ): 3.639E+15 integral 2.467E+14
 Compute Stats, Diag. # 198  SIsnwPrc  vol(  1 ): 1.149E+14  Parms: SM  C196M1      
    use Counter Mate  # 196  SI_FrcFx  vol(  1 ): 1.289E+15 integral 1.149E+14
 Compute Stats, Diag. # 198  SIsnwPrc  vol(  3 ): 1.319E+14  Parms: SM  C196M1      
    use Counter Mate  # 196  SI_FrcFx  vol(  3 ): 7.935E+14 integral 1.319E+14
 Compute Stats, Diag. # 197  SIalbedo  vol(  0 ): 2.467E+14  Parms: SM PC196M1      
    use Counter Mate  # 196  SI_FrcFx  vol(  0 ): 3.639E+15 integral 2.467E+14
 Compute Stats, Diag. # 197  SIalbedo  vol(  1 ): 1.149E+14  Parms: SM PC196M1      
    use Counter Mate  # 196  SI_FrcFx  vol(  1 ): 1.289E+15 integral 1.149E+14
 Compute Stats, Diag. # 197  SIalbedo  vol(  3 ): 1.319E+14  Parms: SM PC196M1      
    use Counter Mate  # 196  SI_FrcFx  vol(  3 ): 7.935E+14 integral 1.319E+14
 Compute Stats, Diag. # 195  SIsnwAge  vol(  0 ): 3.639E+15  Parms: SM P    M1      
 Compute Stats, Diag. # 195  SIsnwAge  vol(  1 ): 1.289E+15  Parms: SM P    M1      
 Compute Stats, Diag. # 195  SIsnwAge  vol(  3 ): 7.935E+14  Parms: SM P    M1      
 Compute Stats, Diag. # 201  SIflx2oc  vol(  0 ): 3.639E+15  Parms: SM      M1      
 Compute Stats, Diag. # 201  SIflx2oc  vol(  1 ): 1.289E+15  Parms: SM      M1      
 Compute Stats, Diag. # 201  SIflx2oc  vol(  3 ): 7.935E+14  Parms: SM      M1      
 Compute Stats, Diag. # 202  SIfrw2oc  vol(  0 ): 3.639E+15  Parms: SM      M1      
 Compute Stats, Diag. # 202  SIfrw2oc  vol(  1 ): 1.289E+15  Parms: SM      M1      
 Compute Stats, Diag. # 202  SIfrw2oc  vol(  3 ): 7.935E+14  Parms: SM      M1      
 Compute Stats, Diag. # 203  SIsaltFx  vol(  0 ): 3.639E+15  Parms: SM      M1      
 Compute Stats, Diag. # 203  SIsaltFx  vol(  1 ): 1.289E+15  Parms: SM      M1      
 Compute Stats, Diag. # 203  SIsaltFx  vol(  3 ): 7.935E+14  Parms: SM      M1      
 Compute Stats, Diag. # 199  SIflxAtm  vol(  0 ): 3.639E+15  Parms: SM      M1      
 Compute Stats, Diag. # 199  SIflxAtm  vol(  1 ): 1.289E+15  Parms: SM      M1      
 Compute Stats, Diag. # 199  SIflxAtm  vol(  3 ): 7.935E+14  Parms: SM      M1      
 Compute Stats, Diag. # 200  SIfrwAtm  vol(  0 ): 3.639E+15  Parms: SM      M1      
 Compute Stats, Diag. # 200  SIfrwAtm  vol(  1 ): 1.289E+15  Parms: SM      M1      
 Compute Stats, Diag. # 200  SIfrwAtm  vol(  3 ): 7.935E+14  Parms: SM      M1      
(PID.TID 0000.0001) %CHECKPOINT     36020 ckptA
(PID.TID 0000.0001) DIAGSTATS_CLOSE_IO: close file: dynStDiag.0000036000.txt , unit=     9
(PID.TID 0000.0001) DIAGSTATS_CLOSE_IO: close file: surfStDiag.0000036000.txt , unit=    10
(PID.TID 0000.0001) DIAGSTATS_CLOSE_IO: close file: instStDiag.0000036000.txt , unit=    11
(PID.TID 0000.0001) DIAGSTATS_CLOSE_IO: close file: thSIceStDiag.0000036000.txt , unit=    12
(PID.TID 0000.0001)   Seconds in section "ALL                    [THE_MODEL_MAIN]":
(PID.TID 0000.0001)           User time:  56.6763854
(PID.TID 0000.0001)         System time:  1.27480604
(PID.TID 0000.0001)     Wall clock time:  58.585429
(PID.TID 0000.0001)          No. starts: 1
(PID.TID 0000.0001)           No. stops: 1
(PID.TID 0000.0001)   Seconds in section "INITIALISE_FIXED       [THE_MODEL_MAIN]":
(PID.TID 0000.0001)           User time:  0.562915017
(PID.TID 0000.0001)         System time:  0.186971998
(PID.TID 0000.0001)     Wall clock time:  0.838464022
(PID.TID 0000.0001)          No. starts: 1
(PID.TID 0000.0001)           No. stops: 1
(PID.TID 0000.0001)   Seconds in section "THE_MAIN_LOOP          [THE_MODEL_MAIN]":
(PID.TID 0000.0001)           User time:  55.8475097
(PID.TID 0000.0001)         System time:  0.815876052
(PID.TID 0000.0001)     Wall clock time:  57.183737
(PID.TID 0000.0001)          No. starts: 1
(PID.TID 0000.0001)           No. stops: 1
(PID.TID 0000.0001)   Seconds in section "INITIALISE_VARIA    [THE_MAIN_LOOP]":
(PID.TID 0000.0001)           User time:  1.47577506
(PID.TID 0000.0001)         System time:  0.362945005
(PID.TID 0000.0001)     Wall clock time:  2.14313102
(PID.TID 0000.0001)          No. starts: 1
(PID.TID 0000.0001)           No. stops: 1
(PID.TID 0000.0001)   Seconds in section "MAIN LOOP           [THE_MAIN_LOOP]":
(PID.TID 0000.0001)           User time:  54.3717346
(PID.TID 0000.0001)         System time:  0.452931046
(PID.TID 0000.0001)     Wall clock time:  55.040472
(PID.TID 0000.0001)          No. starts: 1
(PID.TID 0000.0001)           No. stops: 1
(PID.TID 0000.0001)   Seconds in section "FORWARD_STEP        [THE_MAIN_LOOP]":
(PID.TID 0000.0001)           User time:  54.3717346
(PID.TID 0000.0001)         System time:  0.452931046
(PID.TID 0000.0001)     Wall clock time:  55.0396268
(PID.TID 0000.0001)          No. starts: 20
(PID.TID 0000.0001)           No. stops: 20
(PID.TID 0000.0001)   Seconds in section "DO_STATEVARS_DIAGS  [FORWARD_STEP]":
(PID.TID 0000.0001)           User time:  2.288656
(PID.TID 0000.0001)         System time:  0.00399798155
(PID.TID 0000.0001)     Wall clock time:  2.28971958
(PID.TID 0000.0001)          No. starts: 60
(PID.TID 0000.0001)           No. stops: 60
(PID.TID 0000.0001)   Seconds in section "LOAD_FIELDS_DRIVER  [FORWARD_STEP]":
(PID.TID 0000.0001)           User time:  0.274957657
(PID.TID 0000.0001)         System time:  0.0189970136
(PID.TID 0000.0001)     Wall clock time:  0.455494881
(PID.TID 0000.0001)          No. starts: 20
(PID.TID 0000.0001)           No. stops: 20
(PID.TID 0000.0001)   Seconds in section "BULKF_FIELDS_LOAD  [LOAD_FLDS_DRIVER]":
(PID.TID 0000.0001)           User time:  0.18495822
(PID.TID 0000.0001)         System time:  0.015996933
(PID.TID 0000.0001)     Wall clock time:  0.358703375
(PID.TID 0000.0001)          No. starts: 20
(PID.TID 0000.0001)           No. stops: 20
(PID.TID 0000.0001)   Seconds in section "EXTERNAL_FLDS_LOAD [LOAD_FLDS_DRIVER]":
(PID.TID 0000.0001)           User time:  0.0870010853
(PID.TID 0000.0001)         System time:  0.00300008059
(PID.TID 0000.0001)     Wall clock time:  0.0943143368
(PID.TID 0000.0001)          No. starts: 20
(PID.TID 0000.0001)           No. stops: 20
(PID.TID 0000.0001)   Seconds in section "BULKF_FORCING       [FORWARD_STEP]":
(PID.TID 0000.0001)           User time:  1.02083874
(PID.TID 0000.0001)         System time:  0.00199902058
(PID.TID 0000.0001)     Wall clock time:  1.02086163
(PID.TID 0000.0001)          No. starts: 20
(PID.TID 0000.0001)           No. stops: 20
(PID.TID 0000.0001)   Seconds in section "DO_ATMOSPHERIC_PHYS [FORWARD_STEP]":
(PID.TID 0000.0001)           User time:  0.000999450684
(PID.TID 0000.0001)         System time:  0.
(PID.TID 0000.0001)     Wall clock time:  0.000815153122
(PID.TID 0000.0001)          No. starts: 20
(PID.TID 0000.0001)           No. stops: 20
(PID.TID 0000.0001)   Seconds in section "DO_OCEANIC_PHYS     [FORWARD_STEP]":
(PID.TID 0000.0001)           User time:  7.96879482
(PID.TID 0000.0001)         System time:  0.00499892235
(PID.TID 0000.0001)     Wall clock time:  7.97834897
(PID.TID 0000.0001)          No. starts: 20
(PID.TID 0000.0001)           No. stops: 20
(PID.TID 0000.0001)   Seconds in section "THSICE_MAIN     [DO_OCEANIC_PHYS]":
(PID.TID 0000.0001)           User time:  0.489930868
(PID.TID 0000.0001)         System time:  0.
(PID.TID 0000.0001)     Wall clock time:  0.496833801
(PID.TID 0000.0001)          No. starts: 20
(PID.TID 0000.0001)           No. stops: 20
(PID.TID 0000.0001)   Seconds in section "DYNAMICS            [FORWARD_STEP]":
(PID.TID 0000.0001)           User time:  14.2248414
(PID.TID 0000.0001)         System time:  0.0100000501
(PID.TID 0000.0001)     Wall clock time:  14.2357256
(PID.TID 0000.0001)          No. starts: 20
(PID.TID 0000.0001)           No. stops: 20
(PID.TID 0000.0001)   Seconds in section "UPDATE_R_STAR       [FORWARD_STEP]":
(PID.TID 0000.0001)           User time:  0.80587554
(PID.TID 0000.0001)         System time:  0.
(PID.TID 0000.0001)     Wall clock time:  0.804767132
(PID.TID 0000.0001)          No. starts: 20
(PID.TID 0000.0001)           No. stops: 20
(PID.TID 0000.0001)   Seconds in section "UPDATE_CG2D         [FORWARD_STEP]":
(PID.TID 0000.0001)           User time:  0.279950142
(PID.TID 0000.0001)         System time:  0.
(PID.TID 0000.0001)     Wall clock time:  0.279691458
(PID.TID 0000.0001)          No. starts: 20
(PID.TID 0000.0001)           No. stops: 20
(PID.TID 0000.0001)   Seconds in section "SOLVE_FOR_PRESSURE  [FORWARD_STEP]":
(PID.TID 0000.0001)           User time:  5.53215694
(PID.TID 0000.0001)         System time:  0.0059979558
(PID.TID 0000.0001)     Wall clock time:  5.53734016
(PID.TID 0000.0001)          No. starts: 20
(PID.TID 0000.0001)           No. stops: 20
(PID.TID 0000.0001)   Seconds in section "MOM_CORRECTION_STEP [FORWARD_STEP]":
(PID.TID 0000.0001)           User time:  1.22581697
(PID.TID 0000.0001)         System time:  0.000999987125
(PID.TID 0000.0001)     Wall clock time:  1.22593427
(PID.TID 0000.0001)          No. starts: 20
(PID.TID 0000.0001)           No. stops: 20
(PID.TID 0000.0001)   Seconds in section "UPDATE_ETAH         [FORWARD_STEP]":
(PID.TID 0000.0001)           User time:  0.00900030136
(PID.TID 0000.0001)         System time:  0.000999033451
(PID.TID 0000.0001)     Wall clock time:  0.00916194916
(PID.TID 0000.0001)          No. starts: 20
(PID.TID 0000.0001)           No. stops: 20
(PID.TID 0000.0001)   Seconds in section "CALC_R_STAR         [FORWARD_STEP]":
(PID.TID 0000.0001)           User time:  0.166974545
(PID.TID 0000.0001)         System time:  0.
(PID.TID 0000.0001)     Wall clock time:  0.167737007
(PID.TID 0000.0001)          No. starts: 20
(PID.TID 0000.0001)           No. stops: 20
(PID.TID 0000.0001)   Seconds in section "BLOCKING_EXCHANGES  [FORWARD_STEP]":
(PID.TID 0000.0001)           User time:  1.63374901
(PID.TID 0000.0001)         System time:  0.00399905443
(PID.TID 0000.0001)     Wall clock time:  1.63667774
(PID.TID 0000.0001)          No. starts: 40
(PID.TID 0000.0001)           No. stops: 40
(PID.TID 0000.0001)   Seconds in section "THERMODYNAMICS      [FORWARD_STEP]":
(PID.TID 0000.0001)           User time:  11.0093255
(PID.TID 0000.0001)         System time:  0.0179989934
(PID.TID 0000.0001)     Wall clock time:  11.033443
(PID.TID 0000.0001)          No. starts: 20
(PID.TID 0000.0001)           No. stops: 20
(PID.TID 0000.0001)   Seconds in section "TRC_CORRECTION_STEP [FORWARD_STEP]":
(PID.TID 0000.0001)           User time:  0.18697834
(PID.TID 0000.0001)         System time:  0.
(PID.TID 0000.0001)     Wall clock time:  0.190956831
(PID.TID 0000.0001)          No. starts: 20
(PID.TID 0000.0001)           No. stops: 20
(PID.TID 0000.0001)   Seconds in section "DO_STATEVARS_TAVE   [FORWARD_STEP]":
(PID.TID 0000.0001)           User time:  3.00554228
(PID.TID 0000.0001)         System time:  0.00199997425
(PID.TID 0000.0001)     Wall clock time:  3.01115584
(PID.TID 0000.0001)          No. starts: 20
(PID.TID 0000.0001)           No. stops: 20
(PID.TID 0000.0001)   Seconds in section "MONITOR             [FORWARD_STEP]":
(PID.TID 0000.0001)           User time:  4.26735115
(PID.TID 0000.0001)         System time:  0.00499999523
(PID.TID 0000.0001)     Wall clock time:  4.27270842
(PID.TID 0000.0001)          No. starts: 20
(PID.TID 0000.0001)           No. stops: 20
(PID.TID 0000.0001)   Seconds in section "DO_THE_MODEL_IO     [FORWARD_STEP]":
(PID.TID 0000.0001)           User time:  0.454926014
(PID.TID 0000.0001)         System time:  0.372943103
(PID.TID 0000.0001)     Wall clock time:  0.868985176
(PID.TID 0000.0001)          No. starts: 20
(PID.TID 0000.0001)           No. stops: 20
(PID.TID 0000.0001)   Seconds in section "DO_WRITE_PICKUP     [FORWARD_STEP]":
(PID.TID 0000.0001)           User time:  0.00200271606
(PID.TID 0000.0001)         System time:  0.
(PID.TID 0000.0001)     Wall clock time:  0.000838518143
(PID.TID 0000.0001)          No. starts: 20
(PID.TID 0000.0001)           No. stops: 20
(PID.TID 0000.0001)   Seconds in section "DO_WRITE_PICKUP        [THE_MODEL_MAIN]":
(PID.TID 0000.0001)           User time:  0.265960693
(PID.TID 0000.0001)         System time:  0.271957994
(PID.TID 0000.0001)     Wall clock time:  0.563055038
(PID.TID 0000.0001)          No. starts: 1
(PID.TID 0000.0001)           No. stops: 1
(PID.TID 0000.0001) // ======================================================
(PID.TID 0000.0001) // Tile <-> Tile communication statistics
(PID.TID 0000.0001) // ======================================================
(PID.TID 0000.0001) // o Tile number: 000001
(PID.TID 0000.0001) //         No. X exchanges =              0
(PID.TID 0000.0001) //            Max. X spins =              0
(PID.TID 0000.0001) //            Min. X spins =     1000000000
(PID.TID 0000.0001) //          Total. X spins =              0
(PID.TID 0000.0001) //            Avg. X spins =       0.00E+00
(PID.TID 0000.0001) //         No. Y exchanges =              0
(PID.TID 0000.0001) //            Max. Y spins =              0
(PID.TID 0000.0001) //            Min. Y spins =     1000000000
(PID.TID 0000.0001) //          Total. Y spins =              0
(PID.TID 0000.0001) //            Avg. Y spins =       0.00E+00
(PID.TID 0000.0001) // o Tile number: 000002
(PID.TID 0000.0001) //         No. X exchanges =              0
(PID.TID 0000.0001) //            Max. X spins =              0
(PID.TID 0000.0001) //            Min. X spins =     1000000000
(PID.TID 0000.0001) //          Total. X spins =              0
(PID.TID 0000.0001) //            Avg. X spins =       0.00E+00
(PID.TID 0000.0001) //         No. Y exchanges =              0
(PID.TID 0000.0001) //            Max. Y spins =              0
(PID.TID 0000.0001) //            Min. Y spins =     1000000000
(PID.TID 0000.0001) //          Total. Y spins =              0
(PID.TID 0000.0001) //            Avg. Y spins =       0.00E+00
(PID.TID 0000.0001) // o Tile number: 000003
(PID.TID 0000.0001) //         No. X exchanges =              0
(PID.TID 0000.0001) //            Max. X spins =              0
(PID.TID 0000.0001) //            Min. X spins =     1000000000
(PID.TID 0000.0001) //          Total. X spins =              0
(PID.TID 0000.0001) //            Avg. X spins =       0.00E+00
(PID.TID 0000.0001) //         No. Y exchanges =              0
(PID.TID 0000.0001) //            Max. Y spins =              0
(PID.TID 0000.0001) //            Min. Y spins =     1000000000
(PID.TID 0000.0001) //          Total. Y spins =              0
(PID.TID 0000.0001) //            Avg. Y spins =       0.00E+00
(PID.TID 0000.0001) // o Tile number: 000004
(PID.TID 0000.0001) //         No. X exchanges =              0
(PID.TID 0000.0001) //            Max. X spins =              0
(PID.TID 0000.0001) //            Min. X spins =     1000000000
(PID.TID 0000.0001) //          Total. X spins =              0
(PID.TID 0000.0001) //            Avg. X spins =       0.00E+00
(PID.TID 0000.0001) //         No. Y exchanges =              0
(PID.TID 0000.0001) //            Max. Y spins =              0
(PID.TID 0000.0001) //            Min. Y spins =     1000000000
(PID.TID 0000.0001) //          Total. Y spins =              0
(PID.TID 0000.0001) //            Avg. Y spins =       0.00E+00
(PID.TID 0000.0001) // o Tile number: 000005
(PID.TID 0000.0001) //         No. X exchanges =              0
(PID.TID 0000.0001) //            Max. X spins =              0
(PID.TID 0000.0001) //            Min. X spins =     1000000000
(PID.TID 0000.0001) //          Total. X spins =              0
(PID.TID 0000.0001) //            Avg. X spins =       0.00E+00
(PID.TID 0000.0001) //         No. Y exchanges =              0
(PID.TID 0000.0001) //            Max. Y spins =              0
(PID.TID 0000.0001) //            Min. Y spins =     1000000000
(PID.TID 0000.0001) //          Total. Y spins =              0
(PID.TID 0000.0001) //            Avg. Y spins =       0.00E+00
(PID.TID 0000.0001) // o Tile number: 000006
(PID.TID 0000.0001) //         No. X exchanges =              0
(PID.TID 0000.0001) //            Max. X spins =              0
(PID.TID 0000.0001) //            Min. X spins =     1000000000
(PID.TID 0000.0001) //          Total. X spins =              0
(PID.TID 0000.0001) //            Avg. X spins =       0.00E+00
(PID.TID 0000.0001) //         No. Y exchanges =              0
(PID.TID 0000.0001) //            Max. Y spins =              0
(PID.TID 0000.0001) //            Min. Y spins =     1000000000
(PID.TID 0000.0001) //          Total. Y spins =              0
(PID.TID 0000.0001) //            Avg. Y spins =       0.00E+00
(PID.TID 0000.0001) // o Thread number: 000001
(PID.TID 0000.0001) //            No. barriers =          58765
(PID.TID 0000.0001) //      Max. barrier spins =              1
(PID.TID 0000.0001) //      Min. barrier spins =              1
(PID.TID 0000.0001) //     Total barrier spins =          58765
(PID.TID 0000.0001) //      Avg. barrier spins =       1.00E+00
