(PID.TID 0000.0001) 
(PID.TID 0000.0001) // ======================================================
(PID.TID 0000.0001) //                      MITgcm UV
(PID.TID 0000.0001) //                      =========
(PID.TID 0000.0001) // ======================================================
(PID.TID 0000.0001) // execution environment starting up...
(PID.TID 0000.0001) 
(PID.TID 0000.0001) // MITgcmUV version:  checkpoint61o
(PID.TID 0000.0001) // Build user:        jmc
(PID.TID 0000.0001) // Build host:        faulks
(PID.TID 0000.0001) // Build date:        Thu May 28 19:23:33 EDT 2009
(PID.TID 0000.0001) 
(PID.TID 0000.0001) // =======================================================
(PID.TID 0000.0001) // Execution Environment parameter file "eedata"
(PID.TID 0000.0001) // =======================================================
(PID.TID 0000.0001) ># Example "eedata" file
(PID.TID 0000.0001) ># Lines beginning "#" are comments
(PID.TID 0000.0001) ># nTx - No. threads per process in X
(PID.TID 0000.0001) ># nTy - No. threads per process in Y
(PID.TID 0000.0001) > &EEPARMS
(PID.TID 0000.0001) > useCubedSphereExchange=.TRUE.,
(PID.TID 0000.0001) > nTx=1,
(PID.TID 0000.0001) > nTy=1,
(PID.TID 0000.0001) > &
(PID.TID 0000.0001) ># Note: Some systems use & as the
(PID.TID 0000.0001) ># namelist terminator. Other systems
(PID.TID 0000.0001) ># use a / character (as shown here).
(PID.TID 0000.0001) 
(PID.TID 0000.0001) // =======================================================
(PID.TID 0000.0001) // Computational Grid Specification ( see files "SIZE.h" )
(PID.TID 0000.0001) //                                  ( and "eedata"       )
(PID.TID 0000.0001) // =======================================================
(PID.TID 0000.0001)      nPx =    1 ; /* No. processes in X */
(PID.TID 0000.0001)      nPy =    1 ; /* No. processes in Y */
(PID.TID 0000.0001)      nSx =   12 ; /* No. tiles in X per process */
(PID.TID 0000.0001)      nSy =    1 ; /* No. tiles in Y per process */
(PID.TID 0000.0001)      sNx =   32 ; /* Tile size in X */
(PID.TID 0000.0001)      sNy =   16 ; /* Tile size in Y */
(PID.TID 0000.0001)      OLx =    4 ; /* Tile overlap distance in X */
(PID.TID 0000.0001)      OLy =    4 ; /* Tile overlap distance in Y */
(PID.TID 0000.0001)      nTx =    1 ; /* No. threads in X per process */
(PID.TID 0000.0001)      nTy =    1 ; /* No. threads in Y per process */
(PID.TID 0000.0001)       Nr =   15 ; /* No. levels in the vertical   */
(PID.TID 0000.0001)       Nx =  384 ; /* Total domain size in X ( = nPx*nSx*sNx ) */
(PID.TID 0000.0001)       Ny =   16 ; /* Total domain size in Y ( = nPy*nSy*sNy ) */
(PID.TID 0000.0001)   nTiles =   12 ; /* Total no. tiles per process ( = nSx*nSy ) */
(PID.TID 0000.0001)   nProcs =    1 ; /* Total no. processes ( = nPx*nPy ) */
(PID.TID 0000.0001) nThreads =    1 ; /* Total no. threads per process ( = nTx*nTy ) */
(PID.TID 0000.0001) usingMPI =    F ; /* Flag used to control whether MPI is in use */
(PID.TID 0000.0001)                   /*  note: To execute a program with MPI calls */
(PID.TID 0000.0001)                   /*  it must be launched appropriately e.g     */
(PID.TID 0000.0001)                   /*  "mpirun -np 64 ......"                    */
(PID.TID 0000.0001) useCoupler=    F ;/* Flag used to control communications with   */
(PID.TID 0000.0001)                   /*  other model components, through a coupler */
(PID.TID 0000.0001) printMapIncludesZeros=    F ; /* print zeros in Std.Output maps */
(PID.TID 0000.0001) maxLengthPrt1D=   65 /* maxLength of 1D array printed to StdOut */
(PID.TID 0000.0001) 
(PID.TID 0000.0001) // ======================================================
(PID.TID 0000.0001) // Mapping of tiles to threads
(PID.TID 0000.0001) // ======================================================
(PID.TID 0000.0001) // -o- Thread   1, tiles (   1:  12,   1:   1)
(PID.TID 0000.0001) 
(PID.TID 0000.0001) W2_READPARMS: file data.exch2 not found
(PID.TID 0000.0001) => use W2_EXCH2 default: regular 6-facets Cube
(PID.TID 0000.0001) ===== Start setting W2 TOPOLOGY:
(PID.TID 0000.0001)  write to log-file: w2_tile_topology.0000.log
(PID.TID 0000.0001) =====       setting W2 TOPOLOGY: Done
(PID.TID 0000.0001) 
(PID.TID 0000.0001) // =======================================================
(PID.TID 0000.0001) // Model parameter file "data"
(PID.TID 0000.0001) // =======================================================
(PID.TID 0000.0001) ># ====================
(PID.TID 0000.0001) ># | Model parameters |
(PID.TID 0000.0001) ># ====================
(PID.TID 0000.0001) >#
(PID.TID 0000.0001) ># Continuous equation parameters
(PID.TID 0000.0001) > &PARM01
(PID.TID 0000.0001) > tRef=15*20.,
(PID.TID 0000.0001) > sRef=15*35.,
(PID.TID 0000.0001) > viscAh =3.E5,
(PID.TID 0000.0001) > viscAr =1.E-3,
(PID.TID 0000.0001) > diffKhT=0.,
(PID.TID 0000.0001) > diffK4T=0.,
(PID.TID 0000.0001) > diffKrT=3.E-5,
(PID.TID 0000.0001) > diffKhS=0.,
(PID.TID 0000.0001) > diffK4S=0.,
(PID.TID 0000.0001) > diffKrS=3.E-5,
(PID.TID 0000.0001) > ivdc_kappa=10.,
(PID.TID 0000.0001) > implicitDiffusion=.TRUE.,
(PID.TID 0000.0001) > gravity=9.81,
(PID.TID 0000.0001) > rhonil=1035.,
(PID.TID 0000.0001) > rhoConstFresh=1000.,
(PID.TID 0000.0001) > eosType='JMD95Z',
(PID.TID 0000.0001) > staggerTimeStep=.TRUE.,
(PID.TID 0000.0001) > vectorInvariantMomentum=.TRUE.,
(PID.TID 0000.0001) > implicitFreeSurface=.TRUE.,
(PID.TID 0000.0001) > exactConserv=.TRUE.,
(PID.TID 0000.0001) > select_rStar=2,
(PID.TID 0000.0001) > nonlinFreeSurf=4,
(PID.TID 0000.0001) > hFacInf=0.2,
(PID.TID 0000.0001) > hFacSup=2.0,
(PID.TID 0000.0001) > useRealFreshWaterFlux=.TRUE.,
(PID.TID 0000.0001) > hFacMin=.1,
(PID.TID 0000.0001) > hFacMinDr=20.,
(PID.TID 0000.0001) >#tempAdvScheme=77,
(PID.TID 0000.0001) >#saltAdvScheme=77,
(PID.TID 0000.0001) > readBinaryPrec=64,
(PID.TID 0000.0001) > writeBinaryPrec=64,
(PID.TID 0000.0001) > useSingleCpuIO=.TRUE.,
(PID.TID 0000.0001) >#debugLevel = 2,
(PID.TID 0000.0001) > &
(PID.TID 0000.0001) >
(PID.TID 0000.0001) ># Elliptic solver parameters
(PID.TID 0000.0001) > &PARM02
(PID.TID 0000.0001) > cg2dMaxIters=200,
(PID.TID 0000.0001) >#cg2dTargetResidual=1.E-9,
(PID.TID 0000.0001) > cg2dTargetResWunit=1.E-14,
(PID.TID 0000.0001) > &
(PID.TID 0000.0001) >
(PID.TID 0000.0001) ># Time stepping parameters
(PID.TID 0000.0001) > &PARM03
(PID.TID 0000.0001) > nIter0=72000,
(PID.TID 0000.0001) > nTimeSteps=10,
(PID.TID 0000.0001) >#endTime=31104000.,
(PID.TID 0000.0001) > deltaTmom   =1200.,
(PID.TID 0000.0001) > deltaTtracer=86400.,
(PID.TID 0000.0001) > deltaTfreesurf=86400.,
(PID.TID 0000.0001) > deltaTClock =86400.,
(PID.TID 0000.0001) > abEps = 0.1,
(PID.TID 0000.0001) > forcing_In_AB=.FALSE.,
(PID.TID 0000.0001) > pChkptFreq   =3110400000.,
(PID.TID 0000.0001) > chkptFreq    = 155520000.,
(PID.TID 0000.0001) >#tave_lastIter=0.,
(PID.TID 0000.0001) >#taveFreq     = 2592000.,
(PID.TID 0000.0001) >#dumpFreq     =  864000.,
(PID.TID 0000.0001) > monitorFreq  = 15552000.,
(PID.TID 0000.0001) > periodicExternalForcing=.TRUE.,
(PID.TID 0000.0001) > externForcingPeriod=2592000.,
(PID.TID 0000.0001) > externForcingCycle=31104000.,
(PID.TID 0000.0001) ># 6 months restoring timescale for temperature
(PID.TID 0000.0001) >#tauThetaClimRelax = 15552000.,
(PID.TID 0000.0001) ># 2 months restoring timescale for tsalinity
(PID.TID 0000.0001) >#tauSaltClimRelax = 5184000.,
(PID.TID 0000.0001) >#latBandClimRelax=60.,
(PID.TID 0000.0001) > monitorFreq =1.,
(PID.TID 0000.0001) > &
(PID.TID 0000.0001) >
(PID.TID 0000.0001) ># Gridding parameters
(PID.TID 0000.0001) > &PARM04
(PID.TID 0000.0001) > usingCurvilinearGrid=.TRUE.,
(PID.TID 0000.0001) > horizGridFile='grid_cs32',
(PID.TID 0000.0001) > delR= 50., 70., 100., 140., 190.,
(PID.TID 0000.0001) >       240., 290., 340., 390., 440.,
(PID.TID 0000.0001) >       490., 540., 590., 640., 690.,
(PID.TID 0000.0001) > &
(PID.TID 0000.0001) >
(PID.TID 0000.0001) ># Input datasets
(PID.TID 0000.0001) > &PARM05
(PID.TID 0000.0001) > bathyFile      ='bathy_Hmin50.bin',
(PID.TID 0000.0001) > hydrogThetaFile='lev_T_cs_15k.bin',
(PID.TID 0000.0001) > hydrogSaltFile ='lev_S_cs_15k.bin',
(PID.TID 0000.0001) > &
(PID.TID 0000.0001) 
(PID.TID 0000.0001) S/R INI_PARMS ; starts to read PARM01
(PID.TID 0000.0001) S/R INI_PARMS ; read PARM01 : OK
(PID.TID 0000.0001) S/R INI_PARMS ; starts to read PARM02
(PID.TID 0000.0001) S/R INI_PARMS ; read PARM02 : OK
(PID.TID 0000.0001) S/R INI_PARMS ; starts to read PARM03
(PID.TID 0000.0001) S/R INI_PARMS ; read PARM03 : OK
(PID.TID 0000.0001) S/R INI_PARMS ; starts to read PARM04
(PID.TID 0000.0001) S/R INI_PARMS ; read PARM04 : OK
(PID.TID 0000.0001) S/R INI_PARMS ; starts to read PARM05
(PID.TID 0000.0001) S/R INI_PARMS ; read PARM05 : OK
(PID.TID 0000.0001)  PACKAGES_BOOT: opening data.pkg
(PID.TID 0000.0001)  OPEN_COPY_DATA_FILE: opening file data.pkg
(PID.TID 0000.0001) // =======================================================
(PID.TID 0000.0001) // Parameter file "data.pkg"
(PID.TID 0000.0001) // =======================================================
(PID.TID 0000.0001) ># Packages
(PID.TID 0000.0001) > &PACKAGES
(PID.TID 0000.0001) > useGMRedi=.TRUE.,
(PID.TID 0000.0001) > useEXF   =.TRUE.,
(PID.TID 0000.0001) > useSEAICE=.TRUE.,
(PID.TID 0000.0001) > useThSIce=.TRUE.,
(PID.TID 0000.0001) >#useBulkforce=.TRUE.,
(PID.TID 0000.0001) > useDiagnostics=.TRUE.,
(PID.TID 0000.0001) >#useMNC = .TRUE.,
(PID.TID 0000.0001) > &
(PID.TID 0000.0001) 
(PID.TID 0000.0001)  PACKAGES_BOOT: finished reading data.pkg
(PID.TID 0000.0001) CAL_READPARMS: opening data.cal
(PID.TID 0000.0001)  OPEN_COPY_DATA_FILE: opening file data.cal
(PID.TID 0000.0001) // =======================================================
(PID.TID 0000.0001) // Parameter file "data.cal"
(PID.TID 0000.0001) // =======================================================
(PID.TID 0000.0001) >#
(PID.TID 0000.0001) ># *******************
(PID.TID 0000.0001) ># Calendar Parameters
(PID.TID 0000.0001) ># *******************
(PID.TID 0000.0001) > &CAL_NML
(PID.TID 0000.0001) > TheCalendar='model',
(PID.TID 0000.0001) > startDate_1=00010101,
(PID.TID 0000.0001) > startDate_2=000000,
(PID.TID 0000.0001) > &
(PID.TID 0000.0001) 
(PID.TID 0000.0001) CAL_READPARMS: finished reading data.cal
(PID.TID 0000.0001) 
(PID.TID 0000.0001) // =======================================================
(PID.TID 0000.0001) // Calendar configuration >>> START <<<
(PID.TID 0000.0001) // =======================================================
(PID.TID 0000.0001) 
(PID.TID 0000.0001) Calendar version: 0.2.0
(PID.TID 0000.0001) 
(PID.TID 0000.0001) startTime =   /* Start time of the model integration [s] */
(PID.TID 0000.0001)                 6.220800000000000E+09
(PID.TID 0000.0001)     ;
(PID.TID 0000.0001) endTime =   /* End time of the model integration [s] */
(PID.TID 0000.0001)                 6.221664000000000E+09
(PID.TID 0000.0001)     ;
(PID.TID 0000.0001) deltatclock =   /* Time interval for a model forward step [s] */
(PID.TID 0000.0001)                 8.640000000000000E+04
(PID.TID 0000.0001)     ;
(PID.TID 0000.0001) usingGregorianCalendar =  /* Calendar Type: Gregorian Calendar */
(PID.TID 0000.0001)                   F
(PID.TID 0000.0001)     ;
(PID.TID 0000.0001) usingJulianCalendar =  /* Calendar Type: Julian Calendar */
(PID.TID 0000.0001)                   F
(PID.TID 0000.0001)     ;
(PID.TID 0000.0001) usingModelCalendar =  /* Calendar Type: Model Calendar */
(PID.TID 0000.0001)                   T
(PID.TID 0000.0001)     ;
(PID.TID 0000.0001) usingNoCalendar =  /* Calendar Type: No Calendar */
(PID.TID 0000.0001)                   F
(PID.TID 0000.0001)     ;
(PID.TID 0000.0001) modelstartdate (YYYYMMDD) =   /* Model start date YYYY-MM-DD  */
(PID.TID 0000.0001)                 2010101
(PID.TID 0000.0001)     ;
(PID.TID 0000.0001) modelstartdate (HHMMSS) =   /* Model start date HH-MM-SS  */
(PID.TID 0000.0001)                       0
(PID.TID 0000.0001)     ;
(PID.TID 0000.0001) modelenddate (YYYYMMDD) =   /* Model end date YYYY-MM-DD  */
(PID.TID 0000.0001)                 2010111
(PID.TID 0000.0001)     ;
(PID.TID 0000.0001) modelenddate (HHMMSS) =   /* Model end date HH-MM-SS  */
(PID.TID 0000.0001)                       0
(PID.TID 0000.0001)     ;
(PID.TID 0000.0001) intyears =   /* Number of calendar years affected by the integration  */
(PID.TID 0000.0001)                       1
(PID.TID 0000.0001)     ;
(PID.TID 0000.0001) intmonths =   /* Number of calendar months affected by the integration  */
(PID.TID 0000.0001)                       1
(PID.TID 0000.0001)     ;
(PID.TID 0000.0001) intdays =   /* Number of calendar days affected by the integration  */
(PID.TID 0000.0001)                      10
(PID.TID 0000.0001)     ;
(PID.TID 0000.0001) nIter0 =   /* Base timestep number  */
(PID.TID 0000.0001)                   72000
(PID.TID 0000.0001)     ;
(PID.TID 0000.0001) nEndIter =   /* Final timestep number  */
(PID.TID 0000.0001)                   72010
(PID.TID 0000.0001)     ;
(PID.TID 0000.0001) nTimeSteps =   /* Number of model timesteps  */
(PID.TID 0000.0001)                      10
(PID.TID 0000.0001)     ;
(PID.TID 0000.0001) 
(PID.TID 0000.0001) // =======================================================
(PID.TID 0000.0001) // Calendar configuration  >>> END <<<
(PID.TID 0000.0001) // =======================================================
(PID.TID 0000.0001) 
(PID.TID 0000.0001)  GM_READPARMS: opening data.gmredi
(PID.TID 0000.0001)  OPEN_COPY_DATA_FILE: opening file data.gmredi
(PID.TID 0000.0001) // =======================================================
(PID.TID 0000.0001) // Parameter file "data.gmredi"
(PID.TID 0000.0001) // =======================================================
(PID.TID 0000.0001) ># GM+Redi package parameters:
(PID.TID 0000.0001) >
(PID.TID 0000.0001) >#-from MOM :
(PID.TID 0000.0001) ># GM_background_K: 	G & Mc.W  diffusion coefficient
(PID.TID 0000.0001) ># GM_maxSlope    :	max slope of isopycnals
(PID.TID 0000.0001) ># GM_Scrit       :	transition for scaling diffusion coefficient
(PID.TID 0000.0001) ># GM_Sd          :	half width scaling for diffusion coefficient
(PID.TID 0000.0001) ># GM_taper_scheme:	slope clipping or one of the tapering schemes
(PID.TID 0000.0001) ># GM_Kmin_horiz  :	horizontal diffusion minimum value
(PID.TID 0000.0001) >
(PID.TID 0000.0001) >#-Option parameters (needs to "define" options in GMREDI_OPTIONS.h")
(PID.TID 0000.0001) ># GM_isopycK     :	isopycnal diffusion coefficient (default=GM_background_K)
(PID.TID 0000.0001) ># GM_AdvForm     :	turn on GM Advective form       (default=Skew flux form)
(PID.TID 0000.0001) >
(PID.TID 0000.0001) > &GM_PARM01
(PID.TID 0000.0001) >  GM_Visbeck_alpha   = 0.,
(PID.TID 0000.0001) >  GM_background_K    = 800.,
(PID.TID 0000.0001) ># GM_AdvForm         = .TRUE.,
(PID.TID 0000.0001) ># GM_background_K    = 10.,
(PID.TID 0000.0001) ># GM_Visbeck_alpha   = 1.e-2,
(PID.TID 0000.0001) >  GM_Visbeck_length  = 2.e+5,
(PID.TID 0000.0001) >  GM_Visbeck_depth   = 1.e+3,
(PID.TID 0000.0001) >  GM_Visbeck_maxval_K= 2.5e+3,
(PID.TID 0000.0001) >  GM_taper_scheme    = 'gkw91',
(PID.TID 0000.0001) ># GM_Small_Number    = 1.e-18,
(PID.TID 0000.0001) >  GM_maxSlope        = 1.e-2,
(PID.TID 0000.0001) >  GM_Kmin_horiz      = 50.,
(PID.TID 0000.0001) >  GM_Scrit           = 4.e-3,
(PID.TID 0000.0001) >  GM_Sd              = 1.e-3,
(PID.TID 0000.0001) > &
(PID.TID 0000.0001) >
(PID.TID 0000.0001) 
(PID.TID 0000.0001)  GM_READPARMS: finished reading data.gmredi
(PID.TID 0000.0001) 
(PID.TID 0000.0001)  SEAICE_READPARMS: opening data.seaice
(PID.TID 0000.0001)  OPEN_COPY_DATA_FILE: opening file data.seaice
(PID.TID 0000.0001) // =======================================================
(PID.TID 0000.0001) // Parameter file "data.seaice"
(PID.TID 0000.0001) // =======================================================
(PID.TID 0000.0001) ># SEAICE parameters
(PID.TID 0000.0001) > &SEAICE_PARM01
(PID.TID 0000.0001) >#SEAICE_monFreq = 2592000.,
(PID.TID 0000.0001) >#SEAICEwriteState   = .TRUE.,
(PID.TID 0000.0001) >#SEAICE_clipVelocities=.FALSE.,
(PID.TID 0000.0001) >#SEAICE_maskRHS   = .TRUE.,
(PID.TID 0000.0001) > LSR_ERROR        = 1.E-12,
(PID.TID 0000.0001) >#SEAICE_deltaTevp = 60.,
(PID.TID 0000.0001) >#SEAICEuseDynamics = .FALSE.,
(PID.TID 0000.0001) ># for backward compatibility only
(PID.TID 0000.0001) > SEAICE_clipVelocities = .TRUE.,
(PID.TID 0000.0001) > SEAICEuseFlooding  = .FALSE.,
(PID.TID 0000.0001) > &
(PID.TID 0000.0001) 
(PID.TID 0000.0001)  SEAICE_READPARMS: finished reading data.seaice
(PID.TID 0000.0001) 
(PID.TID 0000.0001) // =======================================================
(PID.TID 0000.0001) // Seaice configuration (SEAICE_PARM01) >>> START <<<
(PID.TID 0000.0001) // =======================================================
(PID.TID 0000.0001) 
(PID.TID 0000.0001) model grid type   = /* type of sea ice model grid */
(PID.TID 0000.0001)               'C-GRID'
(PID.TID 0000.0001)     ;
(PID.TID 0000.0001) SEAICEwriteState  = /* write sea ice state to file */
(PID.TID 0000.0001)                   F
(PID.TID 0000.0001)     ;
(PID.TID 0000.0001) SEAICEuseDYNAMICS = /* use dynamics */
(PID.TID 0000.0001)                   T
(PID.TID 0000.0001)     ;
(PID.TID 0000.0001) SEAICEuseTEM      = /* use truncated ellipse rheology */
(PID.TID 0000.0001)                   F
(PID.TID 0000.0001)     ;
(PID.TID 0000.0001) SEAICEuseMetricTerms = /* use metric terms */
(PID.TID 0000.0001)                   T
(PID.TID 0000.0001)     ;
(PID.TID 0000.0001) SEAICEuseEVP      = /* use EVP solver */
(PID.TID 0000.0001)                   F
(PID.TID 0000.0001)     ;
(PID.TID 0000.0001) SEAICE_no_slip    = /* no slip boundary conditions */
(PID.TID 0000.0001)                   F
(PID.TID 0000.0001)     ;
(PID.TID 0000.0001) SEAICE_maskRHS    = /* mask RHS of solver */
(PID.TID 0000.0001)                   F
(PID.TID 0000.0001)     ;
(PID.TID 0000.0001) SEAICE_clipVeloctities = /* impose max. vels. */
(PID.TID 0000.0001)                   T
(PID.TID 0000.0001)     ;
(PID.TID 0000.0001) useHB87stressCoupling  = /* altern. ice-ocean stress */
(PID.TID 0000.0001)                   F
(PID.TID 0000.0001)     ;
(PID.TID 0000.0001) SEAICErestoreUnderIce  = /* restore T and S under ice */
(PID.TID 0000.0001)                   F
(PID.TID 0000.0001)     ;
(PID.TID 0000.0001) usePW79thermodynamics  = /* default 0-layer TD */
(PID.TID 0000.0001)                   F
(PID.TID 0000.0001)     ;
(PID.TID 0000.0001) SEAICEadvHeff = /* advect effective ice thickness */
(PID.TID 0000.0001)                   F
(PID.TID 0000.0001)     ;
(PID.TID 0000.0001) SEAICEadvArea = /* advect fractional ice area */
(PID.TID 0000.0001)                   F
(PID.TID 0000.0001)     ;
(PID.TID 0000.0001) SEAICEadvSnow = /* advect snow layer together with ice */
(PID.TID 0000.0001)                   F
(PID.TID 0000.0001)     ;
(PID.TID 0000.0001) SEAICEadvSalt = /* advect salinity together with ice */
(PID.TID 0000.0001)                   F
(PID.TID 0000.0001)     ;
(PID.TID 0000.0001) SEAICEuseFlooding = /* turn submerged snow into ice */
(PID.TID 0000.0001)                   F
(PID.TID 0000.0001)     ;
(PID.TID 0000.0001) LAD               = /* time stepping scheme */
(PID.TID 0000.0001)                       2
(PID.TID 0000.0001)     ;
(PID.TID 0000.0001) IMAX_TICE         = /* iterations for ice heat budget */
(PID.TID 0000.0001)                      10
(PID.TID 0000.0001)     ;
(PID.TID 0000.0001) SEAICEadvScheme   = /* advection scheme for ice */
(PID.TID 0000.0001)                       2
(PID.TID 0000.0001)     ;
(PID.TID 0000.0001) SEAICEuseFluxForm = /* advection in FV flux form */
(PID.TID 0000.0001)                   F
(PID.TID 0000.0001)     ;
(PID.TID 0000.0001) SEAICE_deltaTtherm= /* thermodynamic timestep */
(PID.TID 0000.0001)                 8.640000000000000E+04
(PID.TID 0000.0001)     ;
(PID.TID 0000.0001) SEAICE_deltaTdyn  = /* dynamic timestep */
(PID.TID 0000.0001)                 8.640000000000000E+04
(PID.TID 0000.0001)     ;
(PID.TID 0000.0001) SEAICE_deltaTevp  = /* EVP timestep */
(PID.TID 0000.0001)                 1.234567000000000E+05
(PID.TID 0000.0001)     ;
(PID.TID 0000.0001) SEAICE_elasticParm= /* EVP elastic parameter */
(PID.TID 0000.0001)                 3.333333333333333E-01
(PID.TID 0000.0001)     ;
(PID.TID 0000.0001) SEAICE_evpTauRelax= /* EVP relaxation timescale */
(PID.TID 0000.0001)                -1.000000000000000E+00
(PID.TID 0000.0001)     ;
(PID.TID 0000.0001) SEAICE_evpDampC   = /* EVP damping parameter */
(PID.TID 0000.0001)                -1.000000000000000E+00
(PID.TID 0000.0001)     ;
(PID.TID 0000.0001) SEAICE_availHeatFrac = /* fraction used from melting */
(PID.TID 0000.0001)                 1.000000000000000E+00
(PID.TID 0000.0001)     ;
(PID.TID 0000.0001) SEAICE_gamma_t    = /* melting timescale due to warm ML*/
(PID.TID 0000.0001)                 1.234567000000000E+05
(PID.TID 0000.0001)     ;
(PID.TID 0000.0001) SEAICE_zetaMin    = /* lower bound for viscosity */
(PID.TID 0000.0001)                 0.000000000000000E+00
(PID.TID 0000.0001)     ;
(PID.TID 0000.0001) SEAICE_monFreq  = /* monitor frequency */
(PID.TID 0000.0001)                 1.000000000000000E+00
(PID.TID 0000.0001)     ;
(PID.TID 0000.0001) SEAICE_dumpFreq   = /* dump frequency */
(PID.TID 0000.0001)                 0.000000000000000E+00
(PID.TID 0000.0001)     ;
(PID.TID 0000.0001) SEAICE_taveFreq   = /* time-averaging frequency */
(PID.TID 0000.0001)                 0.000000000000000E+00
(PID.TID 0000.0001)     ;
(PID.TID 0000.0001) SEAICE_mon_stdio  = /* write monitor to std-outp */
(PID.TID 0000.0001)                   T
(PID.TID 0000.0001)     ;
(PID.TID 0000.0001) SEAICE_dump_mdsio = /* write snap-shot   using MDSIO */
(PID.TID 0000.0001)                   T
(PID.TID 0000.0001)     ;
(PID.TID 0000.0001) SEAICE_tave_mdsio = /* write TimeAverage using MDSIO */
(PID.TID 0000.0001)                   T
(PID.TID 0000.0001)     ;
(PID.TID 0000.0001) SEAICE_mon_mnc    = /* write monitor to netcdf file */
(PID.TID 0000.0001)                   F
(PID.TID 0000.0001)     ;
(PID.TID 0000.0001) SEAICE_dump_mnc   = /* write snap-shot   using MNC */
(PID.TID 0000.0001)                   F
(PID.TID 0000.0001)     ;
(PID.TID 0000.0001) SEAICE_tave_mnc   = /* write TimeAverage using MNC */
(PID.TID 0000.0001)                   F
(PID.TID 0000.0001)     ;
(PID.TID 0000.0001) SEAICE_initialHEFF= /* initial sea-ice thickness */
(PID.TID 0000.0001)                 0.000000000000000E+00
(PID.TID 0000.0001)     ;
(PID.TID 0000.0001) OCEAN_drag        = /* air-ocean drag coefficient */
(PID.TID 0000.0001)                 1.000000000000000E-03
(PID.TID 0000.0001)     ;
(PID.TID 0000.0001) SEAICE_drag       = /* air-ice drag coefficient */
(PID.TID 0000.0001)                 2.000000000000000E-03
(PID.TID 0000.0001)     ;
(PID.TID 0000.0001) SEAICE_waterDrag  = /* water-ice drag * density */
(PID.TID 0000.0001)                 5.500000000000000E+00
(PID.TID 0000.0001)     ;
(PID.TID 0000.0001) SEAICE_dryIceAlb  = /* winter albedo */
(PID.TID 0000.0001)                 7.500000000000000E-01
(PID.TID 0000.0001)     ;
(PID.TID 0000.0001) SEAICE_wetIceAlb  = /* summer albedo */
(PID.TID 0000.0001)                 6.600000000000000E-01
(PID.TID 0000.0001)     ;
(PID.TID 0000.0001) SEAICE_drySnowAlb = /* dry snow albedo */
(PID.TID 0000.0001)                 8.400000000000000E-01
(PID.TID 0000.0001)     ;
(PID.TID 0000.0001) SEAICE_wetSnowAlb = /* wet snow albedo */
(PID.TID 0000.0001)                 7.000000000000000E-01
(PID.TID 0000.0001)     ;
(PID.TID 0000.0001) HO                = /* demarcation ice thickness */
(PID.TID 0000.0001)                 5.000000000000000E-01
(PID.TID 0000.0001)     ;
(PID.TID 0000.0001) SEAICE_drag_south      = /* Southern Ocean SEAICE_drag */
(PID.TID 0000.0001)                 2.000000000000000E-03
(PID.TID 0000.0001)     ;
(PID.TID 0000.0001) SEAICE_waterDrag_south = /* Southern Ocean waterDrag */
(PID.TID 0000.0001)                 5.500000000000000E+00
(PID.TID 0000.0001)     ;
(PID.TID 0000.0001) SEAICE_dryIceAlb_south = /* Southern Ocean dryIceAlb */
(PID.TID 0000.0001)                 7.500000000000000E-01
(PID.TID 0000.0001)     ;
(PID.TID 0000.0001) SEAICE_wetIceAlb_south = /* Southern Ocean wetIceAlb */
(PID.TID 0000.0001)                 6.600000000000000E-01
(PID.TID 0000.0001)     ;
(PID.TID 0000.0001) SEAICE_drySnowAlb_south= /* Southern Ocean drySnowAlb */
(PID.TID 0000.0001)                 8.400000000000000E-01
(PID.TID 0000.0001)     ;
(PID.TID 0000.0001) SEAICE_wetSnowAlb_south= /* Southern Ocean wetSnowAlb */
(PID.TID 0000.0001)                 7.000000000000000E-01
(PID.TID 0000.0001)     ;
(PID.TID 0000.0001) HO_south               = /* Southern Ocean HO */
(PID.TID 0000.0001)                 5.000000000000000E-01
(PID.TID 0000.0001)     ;
(PID.TID 0000.0001) SEAICE_waterAlbedo= /* water albedo */
(PID.TID 0000.0001)                 1.000000000000000E-01
(PID.TID 0000.0001)     ;
(PID.TID 0000.0001) SEAICE_strength   = /* sea-ice strength Pstar */
(PID.TID 0000.0001)                 2.750000000000000E+04
(PID.TID 0000.0001)     ;
(PID.TID 0000.0001) SEAICE_sensHeat   = /* sensible heat transfer */
(PID.TID 0000.0001)                 2.284000000000000E+00
(PID.TID 0000.0001)     ;
(PID.TID 0000.0001) SEAICE_latentWater= /* latent heat transfer for water */
(PID.TID 0000.0001)                 5.687500000000000E+03
(PID.TID 0000.0001)     ;
(PID.TID 0000.0001) SEAICE_latentIce  = /* latent heat transfer for ice */
(PID.TID 0000.0001)                 6.447400000000000E+03
(PID.TID 0000.0001)     ;
(PID.TID 0000.0001) SEAICE_iceConduct = /* sea-ice conductivity */
(PID.TID 0000.0001)                 2.165600000000000E+00
(PID.TID 0000.0001)     ;
(PID.TID 0000.0001) SEAICE_snowConduct= /* snow conductivity */
(PID.TID 0000.0001)                 3.100000000000000E-01
(PID.TID 0000.0001)     ;
(PID.TID 0000.0001) SEAICE_emissivity = /* Stefan-Boltzman * emissivity */
(PID.TID 0000.0001)                 5.500000000000000E-08
(PID.TID 0000.0001)     ;
(PID.TID 0000.0001) SEAICE_snowThick  = /* cutoff snow thickness */
(PID.TID 0000.0001)                 1.500000000000000E-01
(PID.TID 0000.0001)     ;
(PID.TID 0000.0001) SEAICE_shortwave  = /* penetration shortwave radiation */
(PID.TID 0000.0001)                 3.000000000000000E-01
(PID.TID 0000.0001)     ;
(PID.TID 0000.0001) SEAICE_freeze     = /* freezing temp. of sea water */
(PID.TID 0000.0001)                -1.960000000000000E+00
(PID.TID 0000.0001)     ;
(PID.TID 0000.0001) Initial sea-ice concentration is read from file:
(PID.TID 0000.0001)    >>    <<
(PID.TID 0000.0001) Initial sea-ice thickness is read from file:
(PID.TID 0000.0001)    >>    <<
(PID.TID 0000.0001)     ;
(PID.TID 0000.0001) SOLV_MAX_ITERS    = /* max. number of LSR solver steps */
(PID.TID 0000.0001)                    1500
(PID.TID 0000.0001)     ;
(PID.TID 0000.0001) SOLV_NCHECK       = /* test interval for LSR solver */
(PID.TID 0000.0001)                       2
(PID.TID 0000.0001)     ;
(PID.TID 0000.0001) NPSEUDOTIMESTEPS  = /* num. of extra pseudo time steps */
(PID.TID 0000.0001)                       2
(PID.TID 0000.0001)     ;
(PID.TID 0000.0001) LSR_ERROR         = /* sets accuracy of LSR solver */
(PID.TID 0000.0001)                 1.000000000000000E-12
(PID.TID 0000.0001)     ;
(PID.TID 0000.0001) DIFF1             = /* parameter used in advect.F */
(PID.TID 0000.0001)                 4.000000000000000E-03
(PID.TID 0000.0001)     ;
(PID.TID 0000.0001) A22               = /* parameter used in growth.F */
(PID.TID 0000.0001)                 1.500000000000000E-01
(PID.TID 0000.0001)     ;
(PID.TID 0000.0001) MAX_HEFF          = /* maximum ice thickness */
(PID.TID 0000.0001)                 1.000000000000000E+01
(PID.TID 0000.0001)     ;
(PID.TID 0000.0001) MIN_ATEMP         = /* minimum air temperature */
(PID.TID 0000.0001)                -5.000000000000000E+01
(PID.TID 0000.0001)     ;
(PID.TID 0000.0001) MIN_LWDOWN        = /* minimum downward longwave */
(PID.TID 0000.0001)                 6.000000000000000E+01
(PID.TID 0000.0001)     ;
(PID.TID 0000.0001) MAX_TICE          = /* maximum ice temperature */
(PID.TID 0000.0001)                 3.000000000000000E+01
(PID.TID 0000.0001)     ;
(PID.TID 0000.0001) MIN_TICE          = /* minimum ice temperature */
(PID.TID 0000.0001)                -5.000000000000000E+01
(PID.TID 0000.0001)     ;
(PID.TID 0000.0001) SEAICE_EPS        = /* reduce derivative singularities */
(PID.TID 0000.0001)                 1.000000000000000E-10
(PID.TID 0000.0001)     ;
(PID.TID 0000.0001) // =======================================================
(PID.TID 0000.0001) // Seaice configuration (SEAICE_PARM01) >>> END <<<
(PID.TID 0000.0001) // =======================================================
(PID.TID 0000.0001)  THSICE_READPARMS: opening data.ice
(PID.TID 0000.0001)  OPEN_COPY_DATA_FILE: opening file data.ice
(PID.TID 0000.0001) // =======================================================
(PID.TID 0000.0001) // Parameter file "data.ice"
(PID.TID 0000.0001) // =======================================================
(PID.TID 0000.0001) > &THSICE_CONST
(PID.TID 0000.0001) > Tf0kel  = 273.15,
(PID.TID 0000.0001) >#- with LANL albedo:
(PID.TID 0000.0001) >#albWarmSnow= 0.75,
(PID.TID 0000.0001) >#- for full ice-fraction :
(PID.TID 0000.0001) >#iceMaskMin = 1.,
(PID.TID 0000.0001) >#hThinIce   = 0.01,
(PID.TID 0000.0001) >#fracEnMelt = 0.,
(PID.TID 0000.0001) >#hThickIce  = 100.,
(PID.TID 0000.0001) >#- with fractional ice:
(PID.TID 0000.0001) > iceMaskMin = 0.05,
(PID.TID 0000.0001) > hiMax      = 10.,
(PID.TID 0000.0001) > hsMax      = 10.,
(PID.TID 0000.0001) > dhSnowLin  = 0.1,
(PID.TID 0000.0001) > fracEnFreez= 0.4,
(PID.TID 0000.0001) > hNewIceMax = 1.,
(PID.TID 0000.0001) >#albIceMax  = 0.7,
(PID.TID 0000.0001) >#albIceMin  = 0.7,
(PID.TID 0000.0001) >#albColdSnow= 0.85,
(PID.TID 0000.0001) > albWarmSnow= 0.60,
(PID.TID 0000.0001) > tempSnowAlb= -5.,
(PID.TID 0000.0001) > albOldSnow = 0.60,
(PID.TID 0000.0001) >#hNewSnowAge= 2.e-3,
(PID.TID 0000.0001) >#snowAgTime = 4320000.,
(PID.TID 0000.0001) > albIceMax  = 0.60,
(PID.TID 0000.0001) >#albIceMin  = 0.20,
(PID.TID 0000.0001) > hAlbIce    = 0.44,
(PID.TID 0000.0001) > hAlbSnow   = 0.15,
(PID.TID 0000.0001) > &
(PID.TID 0000.0001) >
(PID.TID 0000.0001) > &THSICE_PARM01
(PID.TID 0000.0001) >#StartIceModel=1,
(PID.TID 0000.0001) > thSIceAdvScheme=77,
(PID.TID 0000.0001) >#thSIce_diffK   =800.,
(PID.TID 0000.0001) > stressReduction=0.,
(PID.TID 0000.0001) >#thSIce_taveFreq=2592000.,
(PID.TID 0000.0001) >#thSIce_diagFreq=2592000.,
(PID.TID 0000.0001) >#thSIce_monFreq =2592000.,
(PID.TID 0000.0001) > &
(PID.TID 0000.0001) >
(PID.TID 0000.0001) 
(PID.TID 0000.0001)  THSICE_READPARMS: read THSICE_CONST
(PID.TID 0000.0001)  THSICE_READPARMS: read THSICE_PARM01
 ThSI: rhos      =  330.
 ThSI: rhoi      =  900.
 ThSI: rhosw     =  1035.
 ThSI: rhofw     =  1000.
 ThSI: floodFac  =  0.409090909
 ThSI: cpIce     =  2106.
 ThSI: cpWater   =  3994.
 ThSI: kIce      =  2.03
 ThSI: kSnow     =  0.3
 ThSI: bMeltCoef =  0.006
 ThSI: Lfresh    =  334000.
 ThSI: qsnow     =  334000.
 ThSI: albColdSnow=  0.85
 ThSI: albWarmSnow=  0.6
 ThSI: tempSnowAlb= -5.
 ThSI: albOldSnow =  0.6
 ThSI: hNewSnowAge=  0.002
 ThSI: snowAgTime =  4320000.
 ThSI: albIceMax =  0.6
 ThSI: albIceMin =  0.2
 ThSI: hAlbIce   =  0.44
 ThSI: hAlbSnow  =  0.15
 ThSI: i0swFrac  =  0.3
 ThSI: ksolar    =  1.5
 ThSI: dhSnowLin =  0.1
 ThSI: saltIce   =  4.
 ThSI: S_winton  =  1.
 ThSI: mu_Tf     =  0.054
 ThSI: Tf0kel    =  273.15
 ThSI: Tmlt1     = -0.054
 ThSI: Terrmax   =  0.5
 ThSI: nitMaxTsf = 20
 ThSI: hIceMin   =  0.01
 ThSI: hiMax     =  10.
 ThSI: hsMax     =  10.
 ThSI: iceMaskMax =  1.
 ThSI: iceMaskMin =  0.05
 ThSI: fracEnMelt =  0.4
 ThSI: fracEnFreez=  0.4
 ThSI: hThinIce   =  0.2
 ThSI: hThickIce  =  2.5
 ThSI: hNewIceMax =  1.
 ThSI: stressReduction =  0.
 ThSI: thSIceAdvScheme = 77
 ThSI: thSIce_diffK  =  0.
 ThSI: thSIce_deltaT =  86400.
 ThSI: ocean_deltaT  =  86400.
 ThSI: stepFwd_oceMxL= F
 ThSI: tauRelax_MxL  =  0.
 ThSI: hMxL_default  =  50.
 ThSI: sMxL_default  =  35.
 ThSI: vMxL_default  =  0.05
 ThSI: thSIce_taveFreq=  0.
 ThSI: thSIce_diagFreq=  0.
 ThSI: thSIce_monFreq =  1.
 ThSI: startIceModel = 0
(PID.TID 0000.0001) EXF_READPARMS: opening data.exf
(PID.TID 0000.0001)  OPEN_COPY_DATA_FILE: opening file data.exf
(PID.TID 0000.0001) // =======================================================
(PID.TID 0000.0001) // Parameter file "data.exf"
(PID.TID 0000.0001) // =======================================================
(PID.TID 0000.0001) ># $Header: /home/jahn/src/cvs2git/MITgcm/20170915-2/gcmpack-all-patch/MITgcm/verification/global_ocean.cs32x15/results/output.icedyn.txt,v 1.11 2009/05/28 23:37:15 jmc Exp $
(PID.TID 0000.0001) >#
(PID.TID 0000.0001) ># *********************
(PID.TID 0000.0001) ># External Forcing Data
(PID.TID 0000.0001) ># *********************
(PID.TID 0000.0001) > &EXF_NML_01
(PID.TID 0000.0001) >#
(PID.TID 0000.0001) >#useExfCheckRange  = .TRUE.,
(PID.TID 0000.0001) >#useStabilityFct_overIce=.TRUE.,
(PID.TID 0000.0001) >#snow_emissivity   = 0.98,
(PID.TID 0000.0001) >#ice_emissivity    = 0.98,
(PID.TID 0000.0001) > ocean_emissivity  = 1.,
(PID.TID 0000.0001) > atmrho            = 1.22,
(PID.TID 0000.0001) > humid_fac         = .608,
(PID.TID 0000.0001) > ht                = 10.,
(PID.TID 0000.0001) > exf_albedo        = 0.066,
(PID.TID 0000.0001) >#readStressOnAgrid = .TRUE.,
(PID.TID 0000.0001) > readStressOnCgrid = .TRUE.,
(PID.TID 0000.0001) > exf_monFreq       = 0.,
(PID.TID 0000.0001) > repeatPeriod      = 31104000.,
(PID.TID 0000.0001) > exf_iprec         = 64,
(PID.TID 0000.0001) > exf_yftype        = 'RL',
(PID.TID 0000.0001) > &
(PID.TID 0000.0001) >
(PID.TID 0000.0001) ># *********************
(PID.TID 0000.0001) > &EXF_NML_02
(PID.TID 0000.0001) >#
(PID.TID 0000.0001) > atempstartdate1   = 00010115,
(PID.TID 0000.0001) >#atempstartdate2   = 180000,
(PID.TID 0000.0001) > atempperiod       = 2592000.0,
(PID.TID 0000.0001) >#
(PID.TID 0000.0001) > aqhstartdate1     = 00010115,
(PID.TID 0000.0001) >#aqhstartdate2     = 180000,
(PID.TID 0000.0001) > aqhperiod         = 2592000.0,
(PID.TID 0000.0001) >#
(PID.TID 0000.0001) > precipstartdate1  = 00010115,
(PID.TID 0000.0001) >#precipstartdate2  = 180000,
(PID.TID 0000.0001) > precipperiod      = 2592000.0,
(PID.TID 0000.0001) >#
(PID.TID 0000.0001) > snowprecipstartdate1= 00010115,
(PID.TID 0000.0001) >#snowprecipstartdate2= 180000,
(PID.TID 0000.0001) > snowprecipperiod    = 2592000.,
(PID.TID 0000.0001) >#
(PID.TID 0000.0001) > runoffstartdate1  = 00010115,
(PID.TID 0000.0001) >#runoffstartdate2  = 180000,
(PID.TID 0000.0001) > runoffperiod      = 2592000.0,
(PID.TID 0000.0001) >#
(PID.TID 0000.0001) > uwindstartdate1   = 00010115,
(PID.TID 0000.0001) >#uwindstartdate2   = 180000,
(PID.TID 0000.0001) > uwindperiod       = 2592000.0,
(PID.TID 0000.0001) >#
(PID.TID 0000.0001) > vwindstartdate1   = 00010115,
(PID.TID 0000.0001) >#vwindstartdate2   = 180000,
(PID.TID 0000.0001) > vwindperiod       = 2592000.0,
(PID.TID 0000.0001) >#
(PID.TID 0000.0001) > ustressstartdate1 = 00010115,
(PID.TID 0000.0001) >#ustressstartdate2 = 180000,
(PID.TID 0000.0001) > ustressperiod     = 2592000.0,
(PID.TID 0000.0001) >#
(PID.TID 0000.0001) > vstressstartdate1 = 00010115,
(PID.TID 0000.0001) >#vstressstartdate2 = 180000,
(PID.TID 0000.0001) > vstressperiod     = 2592000.0,
(PID.TID 0000.0001) >#
(PID.TID 0000.0001) > wspeedstartdate1  = 00010115,
(PID.TID 0000.0001) >#wspeedstartdate2  = 180000,
(PID.TID 0000.0001) > wspeedperiod      = 2592000.0,
(PID.TID 0000.0001) >#
(PID.TID 0000.0001) > swdownstartdate1  = 00010115,
(PID.TID 0000.0001) >#swdownstartdate2  = 180000,
(PID.TID 0000.0001) > swdownperiod      = 2592000.0,
(PID.TID 0000.0001) >#
(PID.TID 0000.0001) > lwdownstartdate1  = 00010115,
(PID.TID 0000.0001) >#lwdownstartdate2  = 180000,
(PID.TID 0000.0001) > lwdownperiod      = 2592000.0,
(PID.TID 0000.0001) >#
(PID.TID 0000.0001) > climsssstartdate1  = 00010115,
(PID.TID 0000.0001) >#climsssstartdate2  = 180000,
(PID.TID 0000.0001) > climsssperiod      = 2592000.0,
(PID.TID 0000.0001) >#
(PID.TID 0000.0001) > climsststartdate1  = 00010115,
(PID.TID 0000.0001) >#climsststartdate2  = 180000,
(PID.TID 0000.0001) > climsstperiod      = 2592000.0,
(PID.TID 0000.0001) >#
(PID.TID 0000.0001) > atempfile         = 'core_t_Air_cs32.bin',
(PID.TID 0000.0001) > aqhfile           = 'core_q_air_cs32.bin',
(PID.TID 0000.0001) > ustressfile       = 'trenberth_taux.bin',
(PID.TID 0000.0001) > vstressfile       = 'trenberth_tauy.bin',
(PID.TID 0000.0001) >#uwindfile         = 'core_u_wind_cs32.bin',
(PID.TID 0000.0001) >#vwindfile         = 'core_v_wind_cs32.bin',
(PID.TID 0000.0001) > wspeedfile        = 'core_wndSpd_cs32.bin',
(PID.TID 0000.0001) > precipfile        = 'core_prec_1_cs32.bin',
(PID.TID 0000.0001) > snowprecipfile    = 'core_snwP_1_cs32.bin',
(PID.TID 0000.0001) > lwdownfile        = 'core_dwnLw_cs32.bin',
(PID.TID 0000.0001) > swdownfile        = 'core_dwnSw_cs32.bin',
(PID.TID 0000.0001) > runoffFile        = 'core_rnof_1_cs32.bin'
(PID.TID 0000.0001) > climsstfile       = 'lev_surfT_cs_12m.bin',
(PID.TID 0000.0001) > climsssfile       = 'lev_surfS_cs_12m.bin',
(PID.TID 0000.0001) >#
(PID.TID 0000.0001) > &
(PID.TID 0000.0001) >
(PID.TID 0000.0001) ># *********************
(PID.TID 0000.0001) > &EXF_NML_03
(PID.TID 0000.0001) > &
(PID.TID 0000.0001) >
(PID.TID 0000.0001) ># *********************
(PID.TID 0000.0001) > &EXF_NML_04
(PID.TID 0000.0001) > &
(PID.TID 0000.0001) 
(PID.TID 0000.0001) EXF_READPARMS: reading EXF_NML_01
(PID.TID 0000.0001) EXF_READPARMS: reading EXF_NML_02
(PID.TID 0000.0001) EXF_READPARMS: reading EXF_NML_03
(PID.TID 0000.0001) EXF_READPARMS: reading EXF_NML_04
(PID.TID 0000.0001) EXF_READPARMS: finished reading data.exf
(PID.TID 0000.0001)  DIAGNOSTICS_READPARMS: opening data.diagnostics
(PID.TID 0000.0001)  OPEN_COPY_DATA_FILE: opening file data.diagnostics
(PID.TID 0000.0001) // =======================================================
(PID.TID 0000.0001) // Parameter file "data.diagnostics"
(PID.TID 0000.0001) // =======================================================
(PID.TID 0000.0001) ># Diagnostic Package Choices
(PID.TID 0000.0001) >#-----------------
(PID.TID 0000.0001) ># for each output-stream:
(PID.TID 0000.0001) >#  filename(n) : prefix of the output file name (only 8.c long) for outp.stream n
(PID.TID 0000.0001) >#  frequency(n):< 0 : write snap-shot output every |frequency| seconds
(PID.TID 0000.0001) >#               > 0 : write time-average output every frequency seconds
(PID.TID 0000.0001) >#  timePhase(n)     : write at time = timePhase + multiple of |frequency|
(PID.TID 0000.0001) >#  averagingFreq(n) : frequency (in s) for periodic averaging interval
(PID.TID 0000.0001) >#  averagingPhase(n): phase     (in s) for periodic averaging interval
(PID.TID 0000.0001) >#  repeatCycle(n)   : number of averaging intervals in 1 cycle
(PID.TID 0000.0001) >#  levels(:,n) : list of levels to write to file (Notes: declared as REAL)
(PID.TID 0000.0001) >#                 when this entry is missing, select all common levels of this list
(PID.TID 0000.0001) >#  fields(:,n) : list of diagnostics fields (8.c) (see "available_diagnostics.log"
(PID.TID 0000.0001) >#                 file for the list of all available diag. in this particular config)
(PID.TID 0000.0001) >#-----------------
(PID.TID 0000.0001) > &DIAGNOSTICS_LIST
(PID.TID 0000.0001) ># diag_mnc     = .FALSE.,
(PID.TID 0000.0001) ># dumpAtLast   = .TRUE.,
(PID.TID 0000.0001) >   fields(1,1) = 'ETAN    ','ETANSQ  ','DETADT2 ','PHIBOT  ','PHIBOTSQ',
(PID.TID 0000.0001) >                 'oceTAUX ','oceTAUY ',
(PID.TID 0000.0001) >                 'oceQnet ','oceSflux','oceFWflx',
(PID.TID 0000.0001) >#                'surForcT','surForcS','TFLUX   ','SFLUX   ','oceFreez',
(PID.TID 0000.0001) >                 'TRELAX  ','SRELAX  ',
(PID.TID 0000.0001) >#                'GM_VisbK',
(PID.TID 0000.0001) >   filename(1) = 'surfDiag',
(PID.TID 0000.0001) >  frequency(1) = 1555200000.,
(PID.TID 0000.0001) >   fields(1,2) = 'UVEL    ','VVEL    ','WVEL    ','PHIHYD  ',
(PID.TID 0000.0001) >                 'VVELMASS','UVELMASS','WVELSQ  ',
(PID.TID 0000.0001) >                 'THETA   ','UTHMASS ','VTHMASS ','WTHMASS ',
(PID.TID 0000.0001) >                 'SALT    ','USLTMASS','VSLTMASS','WSLTMASS',
(PID.TID 0000.0001) ># do not specify levels => all levels are selected
(PID.TID 0000.0001) >#  filename(2) = 'dynDiag',
(PID.TID 0000.0001) >  frequency(2) = 1555200000.,
(PID.TID 0000.0001) >   fields(1,3) = 'DRHODR  ','RHOAnoma','CONVADJ ',
(PID.TID 0000.0001) >#                'GM_PsiX ','GM_PsiY ',
(PID.TID 0000.0001) >                 'GM_Kwx  ','GM_Kwy  ','GM_Kwz  ',
(PID.TID 0000.0001) >                 'GM_Kux  ','GM_Kvy  ',
(PID.TID 0000.0001) >#                'GM_Kuz  ','GM_Kvz  ',
(PID.TID 0000.0001) >#- disable this output list by commenting out the file name
(PID.TID 0000.0001) >#  filename(3) = 'oceDiag',
(PID.TID 0000.0001) >  frequency(3) = 1555200000.,
(PID.TID 0000.0001) >   fields(1,4) = 'ADVx_TH ','ADVy_TH ','ADVr_TH ',
(PID.TID 0000.0001) >                 'DIFx_TH ','DIFy_TH ','DFrE_TH ',
(PID.TID 0000.0001) >                 'DFrI_TH ',
(PID.TID 0000.0001) >#                'ADVx_SLT',
(PID.TID 0000.0001) >#  filename(4) = 'flxDiag',
(PID.TID 0000.0001) >  frequency(4) = 1728000.,
(PID.TID 0000.0001) >   fields(1,5) = 'SI_Fract','SI_Thick','SI_SnowH',
(PID.TID 0000.0001) >                 'SI_Tsrf ','SI_Tice1','SI_Tice2',
(PID.TID 0000.0001) >                 'SI_Qice1','SI_Qice2','SIsnwAge',
(PID.TID 0000.0001) >                 'SIsnwPrc','SIalbedo',
(PID.TID 0000.0001) >                 'SIflx2oc','SIfrw2oc','SIsaltFx',
(PID.TID 0000.0001) >                 'SIflxAtm','SIfrwAtm',
(PID.TID 0000.0001) >#                'SItOcMxL','SIsOcMxL',
(PID.TID 0000.0001) >                 'THETA   ','SALT    ',
(PID.TID 0000.0001) >   levels(1,5) = 1.,
(PID.TID 0000.0001) >#  filename(5) = 'thSIceDiag',
(PID.TID 0000.0001) >  frequency(5) = 1555200000.,
(PID.TID 0000.0001) > averagingFreq(5) = 2592000.,
(PID.TID 0000.0001) >   repeatCycle(5) = 12,
(PID.TID 0000.0001) > &
(PID.TID 0000.0001) >
(PID.TID 0000.0001) ># Parameter for Diagnostics of per level statistics:
(PID.TID 0000.0001) >#-----------------
(PID.TID 0000.0001) ># for each output-stream:
(PID.TID 0000.0001) >#  stat_fname(n) : prefix of the output file name (only 8.c long) for outp.stream n
(PID.TID 0000.0001) >#  stat_freq(n):< 0 : write snap-shot output every |stat_freq| seconds
(PID.TID 0000.0001) >#               > 0 : write time-average output every stat_freq seconds
(PID.TID 0000.0001) >#  stat_phase(n)    : write at time = stat_phase + multiple of |stat_freq|
(PID.TID 0000.0001) >#  stat_region(:,n) : list of "regions" (default: 1 region only=global)
(PID.TID 0000.0001) >#  stat_fields(:,n) : list of diagnostics fields (8.c) (see "available_diagnostics.log"
(PID.TID 0000.0001) >#                 file for the list of all available diag. in this particular config)
(PID.TID 0000.0001) >#-----------------
(PID.TID 0000.0001) > &DIAG_STATIS_PARMS
(PID.TID 0000.0001) >#- regional mask: 3 lat. band: 1 : y <= -24 ; 2 : -24<y<24 ; 3 : 24 <= y
(PID.TID 0000.0001) > diagSt_regMaskFile='regMask_lat24.bin',
(PID.TID 0000.0001) > nSetRegMskFile=1,
(PID.TID 0000.0001) > set_regMask(1)= 1,  1,  1,
(PID.TID 0000.0001) > val_regMask(1)= 1., 2., 3.,
(PID.TID 0000.0001) >#---
(PID.TID 0000.0001) > stat_fields(1,1)= 'ETAN    ','UVEL    ','VVEL    ','WVEL    ',
(PID.TID 0000.0001) >                   'THETA   ','SALT    ','CONVADJ ','DETADT2 ',
(PID.TID 0000.0001) >    stat_fname(1)= 'dynStDiag',
(PID.TID 0000.0001) >     stat_freq(1)= 864000.,
(PID.TID 0000.0001) > stat_fields(1,5)= 'SI_Fract','SI_Thick','SI_SnowH',
(PID.TID 0000.0001) >                   'SI_Tsrf ','SI_Tice1','SI_Tice2',
(PID.TID 0000.0001) >                   'SI_Qice1','SI_Qice2',
(PID.TID 0000.0001) >                   'SIsnwPrc','SIalbedo','SIsnwAge',
(PID.TID 0000.0001) >                   'SIflx2oc','SIfrw2oc','SIsaltFx',
(PID.TID 0000.0001) >                   'SIflxAtm','SIfrwAtm',
(PID.TID 0000.0001) >#                  'SItOcMxL','SIsOcMxL',
(PID.TID 0000.0001) > stat_region(1,5)= 1, 3, 0,
(PID.TID 0000.0001) >    stat_fname(5)= 'thSIceStDiag',
(PID.TID 0000.0001) >     stat_freq(5)= 864000.,
(PID.TID 0000.0001) > &
(PID.TID 0000.0001) >
(PID.TID 0000.0001) 
(PID.TID 0000.0001) S/R DIAGNOSTICS_READPARMS, read namelist "diagnostics_list": start
(PID.TID 0000.0001) S/R DIAGNOSTICS_READPARMS, read namelist "diagnostics_list": OK
(PID.TID 0000.0001) S/R DIAGNOSTICS_READPARMS, read namelist "DIAG_STATIS_PARMS": start
(PID.TID 0000.0001) S/R DIAGNOSTICS_READPARMS, read namelist "DIAG_STATIS_PARMS": OK
(PID.TID 0000.0001) -----------------------------------------------------
(PID.TID 0000.0001)  DIAGNOSTICS_READPARMS: active diagnostics summary:
(PID.TID 0000.0001) -----------------------------------------------------
(PID.TID 0000.0001) Creating Output Stream: surfDiag
(PID.TID 0000.0001) Output Frequency: 1555200000.000000 ; Phase:           0.000000
(PID.TID 0000.0001)  Averaging Freq.: 1555200000.000000 , Phase:           0.000000 , Cycle:   1
(PID.TID 0000.0001)  missing value:  1.234567000000E+05 ; for integers:   123456789
(PID.TID 0000.0001)  Levels:    will be set later
(PID.TID 0000.0001)  Fields:    ETAN     ETANSQ   DETADT2  PHIBOT   PHIBOTSQ oceTAUX  oceTAUY  oceQnet  oceSflux oceFWflx
(PID.TID 0000.0001)  Fields:    TRELAX   SRELAX
(PID.TID 0000.0001) -----------------------------------------------------
(PID.TID 0000.0001)  DIAGNOSTICS_READPARMS: statistics diags. summary:
(PID.TID 0000.0001) Creating Stats. Output Stream: dynStDiag
(PID.TID 0000.0001) Output Frequency:     864000.000000 ; Phase:           0.000000
(PID.TID 0000.0001)  Regions:   0
(PID.TID 0000.0001)  Fields:    ETAN     UVEL     VVEL     WVEL     THETA    SALT     CONVADJ  DETADT2
(PID.TID 0000.0001) Creating Stats. Output Stream: thSIceStDiag
(PID.TID 0000.0001) Output Frequency:     864000.000000 ; Phase:           0.000000
(PID.TID 0000.0001)  Regions:   0  1  3
(PID.TID 0000.0001)  Fields:    SI_Fract SI_Thick SI_SnowH SI_Tsrf  SI_Tice1 SI_Tice2 SI_Qice1 SI_Qice2 SIsnwPrc SIalbedo
(PID.TID 0000.0001)  Fields:    SIsnwAge SIflx2oc SIfrw2oc SIsaltFx SIflxAtm SIfrwAtm
(PID.TID 0000.0001) -----------------------------------------------------
(PID.TID 0000.0001) 
(PID.TID 0000.0001) SET_PARMS: done
(PID.TID 0000.0001) Enter INI_VERTICAL_GRID: setInterFDr=    T ; setCenterDr=    F
(PID.TID 0000.0001) tile:   1 ; Read from file grid_cs32.face001.bin
(PID.TID 0000.0001)   => xC yC dxF dyF rA xG yG dxV dyU rAz dxC dyC rAw rAs dxG dyG AngleCS AngleSN
(PID.TID 0000.0001) tile:   2 ; Read from file grid_cs32.face001.bin
(PID.TID 0000.0001)   => xC yC dxF dyF rA xG yG dxV dyU rAz dxC dyC rAw rAs dxG dyG AngleCS AngleSN
(PID.TID 0000.0001) tile:   3 ; Read from file grid_cs32.face002.bin
(PID.TID 0000.0001)   => xC yC dxF dyF rA xG yG dxV dyU rAz dxC dyC rAw rAs dxG dyG AngleCS AngleSN
(PID.TID 0000.0001) tile:   4 ; Read from file grid_cs32.face002.bin
(PID.TID 0000.0001)   => xC yC dxF dyF rA xG yG dxV dyU rAz dxC dyC rAw rAs dxG dyG AngleCS AngleSN
(PID.TID 0000.0001) tile:   5 ; Read from file grid_cs32.face003.bin
(PID.TID 0000.0001)   => xC yC dxF dyF rA xG yG dxV dyU rAz dxC dyC rAw rAs dxG dyG AngleCS AngleSN
(PID.TID 0000.0001) tile:   6 ; Read from file grid_cs32.face003.bin
(PID.TID 0000.0001)   => xC yC dxF dyF rA xG yG dxV dyU rAz dxC dyC rAw rAs dxG dyG AngleCS AngleSN
(PID.TID 0000.0001) tile:   7 ; Read from file grid_cs32.face004.bin
(PID.TID 0000.0001)   => xC yC dxF dyF rA xG yG dxV dyU rAz dxC dyC rAw rAs dxG dyG AngleCS AngleSN
(PID.TID 0000.0001) tile:   8 ; Read from file grid_cs32.face004.bin
(PID.TID 0000.0001)   => xC yC dxF dyF rA xG yG dxV dyU rAz dxC dyC rAw rAs dxG dyG AngleCS AngleSN
(PID.TID 0000.0001) tile:   9 ; Read from file grid_cs32.face005.bin
(PID.TID 0000.0001)   => xC yC dxF dyF rA xG yG dxV dyU rAz dxC dyC rAw rAs dxG dyG AngleCS AngleSN
(PID.TID 0000.0001) tile:  10 ; Read from file grid_cs32.face005.bin
(PID.TID 0000.0001)   => xC yC dxF dyF rA xG yG dxV dyU rAz dxC dyC rAw rAs dxG dyG AngleCS AngleSN
(PID.TID 0000.0001) tile:  11 ; Read from file grid_cs32.face006.bin
(PID.TID 0000.0001)   => xC yC dxF dyF rA xG yG dxV dyU rAz dxC dyC rAw rAs dxG dyG AngleCS AngleSN
(PID.TID 0000.0001) tile:  12 ; Read from file grid_cs32.face006.bin
(PID.TID 0000.0001)   => xC yC dxF dyF rA xG yG dxV dyU rAz dxC dyC rAw rAs dxG dyG AngleCS AngleSN
(PID.TID 0000.0001) %MON XC_max                       =   1.7854351589505E+02
(PID.TID 0000.0001) %MON XC_min                       =  -1.7854351589505E+02
(PID.TID 0000.0001) %MON XC_mean                      =  -1.4199289892029E-14
(PID.TID 0000.0001) %MON XC_sd                        =   1.0355545336287E+02
(PID.TID 0000.0001) %MON XG_max                       =   1.8000000000000E+02
(PID.TID 0000.0001) %MON XG_min                       =  -1.7708797161002E+02
(PID.TID 0000.0001) %MON XG_mean                      =   1.8603515625000E+00
(PID.TID 0000.0001) %MON XG_sd                        =   1.0357130300504E+02
(PID.TID 0000.0001) %MON DXC_max                      =   3.2375185836900E+05
(PID.TID 0000.0001) %MON DXC_min                      =   1.1142031410131E+05
(PID.TID 0000.0001) %MON DXC_mean                     =   2.8605689051214E+05
(PID.TID 0000.0001) %MON DXC_sd                       =   3.4042087138252E+04
(PID.TID 0000.0001) %MON DXF_max                      =   3.2369947500827E+05
(PID.TID 0000.0001) %MON DXF_min                      =   1.2020820513318E+05
(PID.TID 0000.0001) %MON DXF_mean                     =   2.8605437324820E+05
(PID.TID 0000.0001) %MON DXF_sd                       =   3.4050524252539E+04
(PID.TID 0000.0001) %MON DXG_max                      =   3.2375195872773E+05
(PID.TID 0000.0001) %MON DXG_min                      =   1.0098378008791E+05
(PID.TID 0000.0001) %MON DXG_mean                     =   2.8603818508931E+05
(PID.TID 0000.0001) %MON DXG_sd                       =   3.4140406908005E+04
(PID.TID 0000.0001) %MON DXV_max                      =   3.2380418162750E+05
(PID.TID 0000.0001) %MON DXV_min                      =   8.0152299824136E+04
(PID.TID 0000.0001) %MON DXV_mean                     =   2.8603970633619E+05
(PID.TID 0000.0001) %MON DXV_sd                       =   3.4145142117723E+04
(PID.TID 0000.0001) %MON YC_max                       =   8.7940663871962E+01
(PID.TID 0000.0001) %MON YC_min                       =  -8.7940663871962E+01
(PID.TID 0000.0001) %MON YC_mean                      =  -2.3684757858670E-15
(PID.TID 0000.0001) %MON YC_sd                        =   3.8676242969072E+01
(PID.TID 0000.0001) %MON YG_max                       =   9.0000000000000E+01
(PID.TID 0000.0001) %MON YG_min                       =  -9.0000000000000E+01
(PID.TID 0000.0001) %MON YG_mean                      =  -4.1448326252673E-15
(PID.TID 0000.0001) %MON YG_sd                        =   3.8676895860710E+01
(PID.TID 0000.0001) %MON DYC_max                      =   3.2375185836900E+05
(PID.TID 0000.0001) %MON DYC_min                      =   1.1142031410131E+05
(PID.TID 0000.0001) %MON DYC_mean                     =   2.8605689051214E+05
(PID.TID 0000.0001) %MON DYC_sd                       =   3.4042087138252E+04
(PID.TID 0000.0001) %MON DYF_max                      =   3.2369947500827E+05
(PID.TID 0000.0001) %MON DYF_min                      =   1.2020820513318E+05
(PID.TID 0000.0001) %MON DYF_mean                     =   2.8605437324820E+05
(PID.TID 0000.0001) %MON DYF_sd                       =   3.4050524252539E+04
(PID.TID 0000.0001) %MON DYG_max                      =   3.2375195872773E+05
(PID.TID 0000.0001) %MON DYG_min                      =   1.0098378008791E+05
(PID.TID 0000.0001) %MON DYG_mean                     =   2.8603818508931E+05
(PID.TID 0000.0001) %MON DYG_sd                       =   3.4140406908005E+04
(PID.TID 0000.0001) %MON DYU_max                      =   3.2380418162750E+05
(PID.TID 0000.0001) %MON DYU_min                      =   8.0152299824136E+04
(PID.TID 0000.0001) %MON DYU_mean                     =   2.8603970633619E+05
(PID.TID 0000.0001) %MON DYU_sd                       =   3.4145142117723E+04
(PID.TID 0000.0001) %MON RA_max                       =   1.0479260248419E+11
(PID.TID 0000.0001) %MON RA_min                       =   1.4019007022556E+10
(PID.TID 0000.0001) %MON RA_mean                      =   8.2992246709265E+10
(PID.TID 0000.0001) %MON RA_sd                        =   1.7509089299457E+10
(PID.TID 0000.0001) %MON RAW_max                      =   1.0480965274559E+11
(PID.TID 0000.0001) %MON RAW_min                      =   1.2166903467143E+10
(PID.TID 0000.0001) %MON RAW_mean                     =   8.2992246709235E+10
(PID.TID 0000.0001) %MON RAW_sd                       =   1.7481917919656E+10
(PID.TID 0000.0001) %MON RAS_max                      =   1.0480965274559E+11
(PID.TID 0000.0001) %MON RAS_min                      =   1.2166903467143E+10
(PID.TID 0000.0001) %MON RAS_mean                     =   8.2992246709235E+10
(PID.TID 0000.0001) %MON RAS_sd                       =   1.7481917919656E+10
(PID.TID 0000.0001) %MON RAZ_max                      =   1.0484349334619E+11
(PID.TID 0000.0001) %MON RAZ_min                      =   8.8317900612505E+09
(PID.TID 0000.0001) %MON RAZ_mean                     =   8.2992246709235E+10
(PID.TID 0000.0001) %MON RAZ_sd                       =   1.7482297311044E+10
(PID.TID 0000.0001) %MON AngleCS_max                  =   9.9999994756719E-01
(PID.TID 0000.0001) %MON AngleCS_min                  =  -9.9968286884824E-01
(PID.TID 0000.0001) %MON AngleCS_mean                 =   3.3078850405987E-01
(PID.TID 0000.0001) %MON AngleCS_sd                   =   6.2496317138039E-01
(PID.TID 0000.0001) %MON AngleSN_max                  =   9.9968286884824E-01
(PID.TID 0000.0001) %MON AngleSN_min                  =  -9.9999994756719E-01
(PID.TID 0000.0001) %MON AngleSN_mean                 =  -3.3078850405987E-01
(PID.TID 0000.0001) %MON AngleSN_sd                   =   6.2496317138039E-01
(PID.TID 0000.0001)  MDS_READ_FIELD: opening global file: bathy_Hmin50.bin
(PID.TID 0000.0001) // =======================================================
(PID.TID 0000.0001) // Field Model R_low (ini_masks_etc) at iteration          1
(PID.TID 0000.0001) // CMIN =         -5.200000000000000E+03
(PID.TID 0000.0001) // CMAX =         -5.000000000000000E+01
(PID.TID 0000.0001) // CINT =          1.907407407407407E+02
(PID.TID 0000.0001) // SYMBOLS (CMIN->CMAX): -abcdefghijklmnopqrstuvwxyz+
(PID.TID 0000.0001) //                  0.0: .
(PID.TID 0000.0001) // RANGE I (Lo:Hi:Step):(  -3: 388:   1)
(PID.TID 0000.0001) // RANGE J (Lo:Hi:Step):(  20:  -3:  -1)
(PID.TID 0000.0001) // RANGE K (Lo:Hi:Step):(   1:   1:   1)
(PID.TID 0000.0001) // =======================================================
(PID.TID 0000.0001) K =   1
(PID.TID 0000.0001) //                I=6       I=16      I=26      I=36      I=38      I=48      I=58      I=68      I=70      I=80      I=90      I=100     I=102     I=112     I=122     I=132     I=134     I=144     I=154     I=164     I=166     I=176     I=186     I=196     I=198     I=208     I=218     I=228     I=230     I=240     I=250     I=260     I=262     I=272     I=282     I=292     I=294     I=304     I=314     I=324     I=326     I=336     I=346     I=356     I=358     I=368     I=378     I=388
(PID.TID 0000.0001) // |--J--|321012345|789012345|789012345|789012345|901234567|901234567|901234567|901234567|123456789|123456789|123456789|123456789|345678901|345678901|345678901|345678901|567890123|567890123|567890123|567890123|789012345|789012345|789012345|789012345|901234567|901234567|901234567|901234567|123456789|123456789|123456789|123456789|345678901|345678901|345678901|345678901|567890123|567890123|567890123|567890123|789012345|789012345|789012345|789012345|901234567|901234567|901234567|901234567|
(PID.TID 0000.0001) //     20 fbbbcgfcaa-aae+.......................lccbbc-ddcbcdehkhhmn..++........................lcgfdddhq.+hiilnz++.+oquxyz--adgkf................................okn.skkodcaabcfmtooyxz......+yuiiy....++gb--------a-fc----bba-cp.............tfeecccbbdegb--------ddcca-a-----acbaa------bbaaaabecccbbdeddedcdcccdddcddffggghiggfffdeeff........ywxy.lulo.lv...kcdgddffefffilyx+ijlihjlica---a--cgffel.+edfgeedflcbahgflfffilyx+fffk.+xyyy.........mgeimvskjkllllcbahgfllfhdffhkfffca-aady...llnabdoa--a
(PID.TID 0000.0001) //     19 zmfeccdghfeegcbt......................aadcac--cbbeefjkfefw+..........zpu..............aafifccgnrzgghjry.+++sr+lq.--edfkk................................kqnzrqqkoxtkblwnnsp.vv......skhggt...+++t---------b-da----bbbbfu..............fdddccaadct---------bdaf---------edd-------adlaaaaddccaadcdddcbbbbcdddcccdffffghgffffddeff+..........vnhzy.tllqiedccdhggfggffiiggflligfiljfba---aafddehy...pwvlhfffcbagfccgffiiggfcbdgy..yz..........xigqophijkkiifcbagfcceeffffjlkjgaa---bfvheeln-aesaaab
(PID.TID 0000.0001) //     18 ..wifedfkhfegbbcivlqfoz..............jaad--ba-abcehjnldcclz+........spps.............jaacfihggokeeffgt..++++..hhlfdeddke...............................vkqn+xnnnz..qcz+.zwxtsttz..ysrkhot++++++zig------cabbcbba--aabfu+..............hcbaaaaaccig--------b--f---------egqqqaa----frb---baaaaaccdccbaaabbddddccdffffghfeeeeedeff+........+kkrhw.vqmlnieddcdehgggffgigedbjiffefilhfcaaaacgceei.......zomggfcaecbbffgigedbaaceiy.............zilrddefikkhhgfcaecbbccddefilihecbaacbaajfega-aesfeed
(PID.TID 0000.0001) //     17 ..+wfeefikhgcbbccaaacgn.............icaa--abbbccceiomkfdbbc+.......+s...............icaaccfihfoedddeedy..++...nnqwgfeeke...............................xsrxzz+z.yy.z++..+zsjjllllljllpjos+++.+zhhi-----efdcddb-----adu+...............hcbaa--acchi-----e-----ea--------foqqoqqo--hlwgea-baa--accddba--bbbddddccdfffhhgfeeddccedd.........+nk+..xiioonhfefddegihhghigfdbahfeddfgikhfffdfgccffw........zohhgebbaaaghigfdbaaabdgx..............nheddefiklhghgebbaaaaaccdfhlhfefdcccaabjefbaaafoosso
(PID.TID 0000.0001) //     16 ....wiheddeccdfhfbabdfl............jdbad--bddefhhkqqlgfaakqz..v.+..+...............jdbaddddgifkccccdccd+.++..++ynvz.tkkq.............................++..u+....z.mu....++zyslllllkhggkmpy++...ihhi-----eigfdba----adu+................kdcaaa-acchi-----ea---feb-----a-acnoohfghknvmwnucacaaa-accdcb---bbbcdddddefffggfeeedcccccb..........qhu..hhhkojgffgeefghihhiieedbaccbbdcdfgghhiihcbeiw.........+ynjgebaaaahiieedbaaabcdy..............ygddeghiljgfjgebaaaa-aacccfikkhecccbbbaaabaadfklnqpp
(PID.TID 0000.0001) //     15 ......ylea--acfihebcbbes..........sfcbbnabbcffijnpnqneaaat..umrr+s.z..............sfcbbngfffigcaaabdbcac+.+++++zgmpx...y.............................+++++.ztsvd.mm....++..zslwz.yhhhhnz+++...rhgc----ablifeb--dfdfu+................+lkdca--abcgc----ab----ige----acaaalllkddfiy..yswxbdca--abcccb---bbbbddddeffflhfeeeecbbbbaa..........thk.xgghiligfghfefhhhhiiheedcdba-abbacbcdceffbbfw+..........++ujfbaaa-iiheedcdbbabdmz.............zfdeghikkifdujfbaaa----aacffiljgfffcca--adfikkiihhhf
(PID.TID 0000.0001) //     14 ........c---acgkhdcc--di..........ofddch--adgillkkkifcadcx.ymmqzqikvnnps..........ofddchohffikaaaaabaaa-aw+.+ysnggox++...............................+++++wmegt-.qrv..........yzzzzrjil+++....qhgd-----ajlifcacdlqx+++...............mligea---abgd-----a-----i---cccdeabkklldinqssy..xxvgea---abbbb---abaaddddeedkmeddefdbbbaaaa...........+y.uhghikihgfghefgihhhgeeeeedbc---b--aaaaabaabm..............+viba---hgeeeeeddbaadhw.............nedeghjjhfed+viba-------acdefinmlgiieb-chnnnmlmlgffc
(PID.TID 0000.0001) //     13 .......+b----cfkhec---afz.........nhfdff--cfiljigfjd--efdozy...+ximpnnuz..........nhfdffholghkaaaaaba-a---flkkuswyy++++y..............................+++yqddhp-+zr...........zzzzz++ry++......yd-------iljhcbbchz+......++.........+mmhffc----ad--------------aeecdeidfkkqnqlmqquukqqmfffc----aaba------acdddcbcineddgdbaaa----..............iihiijjhfefgefhjihiffgggffcdd--a------aa-bfz...............+qe---aiffgggffecaabelx...........zjecehijhfecc.+qe---aa---aedeegknmlgiigcdfhpokkimlfdb
(PID.TID 0000.0001) //     12 .......ec----chjhec---ag..........skiqdd-abgkhfcccea-bdei........t................skiqddeiiiifaaabae--a---dd--iu+++.+++s..............................++zwgfcfk-xq++..........+z+++++.+++....++.s-------gknhccbbhwwy.....+++........+njfeed-----s------------a-ceccdejhlllkqlkklssiccdeeeed-----aa-------abddcabcnfddegcaaa-----.............wjkkkjjjigeefffgjiiighiiihhhlf------------dk+................+ja---ighiiihhhdaabdffghtxx......mfccehjiffdb-..+ja------bffdddehfd--bedaacfhpnligiihd
(PID.TID 0000.0001) //     11 ......pdca--achlheba--ai..........nkn.fd-acghfbaaaa-achmy......................+..nkn.fdemijidaaaabi-------a--q+....++.z.......+++....................++vnbbbcleiis...........+++++..........+yyza----b-fkpkeeecflmqxy....++........+lhfeecc----za----b-----a--ccccddkhieekkossssfbbbbcdeecc------------aaadcbabcfhddccba-------............njjijhhihijhgggggjjjjijkkkkjzqd-----------irw.................++e---jijkkkkjjhcaacddeegpy.....xfdccdhjgfdda-..++e-----mhmijddda--------ahhfiokhedegg
(PID.TID 0000.0001) //     10 ......wfdb--achlhea---an.........uos..dc-adhfca-----bfiv.......................+.uos..dcemikkfdcaabi-------equ+................++sy...................+tq-fdbblcmk...........................zyvuq----ccjknqiheddefhiksz++++........zkhfdccb----uq----cc----a---dcfhkopqjeissrnpfbbcccdedccb------------aabdcaaaacfddbca-------a..........zslihhigghgijjihhhhkllkkkkkkjk+xfa-abb-----vvv...................+wa--kkkkkkjkkkedccdeeeeipz..zwhccbcdhgfddcam...+wa---mlmkijhc----------cjjffiheb-aad
(PID.TID 0000.0001) //      9 ......vgec---bfikca--cjl+.......+nnv.+cc-achfa------ch+..................w......+nnv.+ccffhkkiddaadha-----as++...........w.......njo+................+x-----bcgipvz++........................zxuuk------diqqojfefiiiijmy.++.........zkhfdbaa----uk------a---a----djmqrrnlllsoiddcccccdjfdbaa-------daa---acccaaaacccca--------ac.........+zjijhfgfggffhjkkkiillljihhghgi.+udaabbb----tei...................++qdejihhghgihighdeeffgghimnnjgecbbcdgfeccbas...++qdeqnghiljcaaaaidaa----beedeeca--bb
(PID.TID 0000.0001) //      8 .....zleca---afjfca--hdfz.......vkky.jceaaeifa--acbcei...................w......vkky.jceddefijffdddhb--a-afv.............w.......likn+.....++.....++znpa----bbdinn..ss.........................+yku------fnlmnjhinlksssw............qhfeca------yku--------------ejnpqqnninnritqdccchkmfca--------addc--aeffaaaaaaccb-a----a--bd+.......wihgghgeffffeefhijkjkljiigeeffef.++udbbaba---ven....................++xyigeeffefffhjhhikkklljklmhffeeeggfdcbaay.....++xywnfgllcbbabegkecba----ddddcaacdc
(PID.TID 0000.0001) //      7 ...+zohec--abcfkhecbchbdx.......qiht.faaabfida-aabchjk...................zz.....qiht.faaaabdgijgfededcdcb-f+.............zz.....nhhijz....tqq.....+ujgzgd---abcinn...pz.........................+zu------cegklkkknols..xuu..........zgfdba------+zu--------------edefqgqddsz+......+yuddba--------bcd---affaaadffabbb-----aa-bccmm+....tiggfggfeeeefeeefiiiijkiihheddddd.+.+ufb-----l.gx...........s.........++zhheddddddddjjllliijhfkmmkkjjhijgdcba--q......++zzkfilfccccoz..ulkcd---bccnfddddd
(PID.TID 0000.0001) //      6 ..+yomfddcaabefkifdchaadt......uqdeisc---afhfaa---bfgi....................zz..rnqdeisc----dfefgifffkklldc--v..............zz..rnjffggm...nlmn+....+sffzya--aabciup...pp.........................v.x-----eaaffdfhimrmp...yuu.++.......zudba------v.x---------a----fbbpqgzenx+........zdbcba--------adc---dda-adffe-aa--------aaacmllkhhfffffffgfeeeeeeeefhhhhijihhffddcbb....+ufc-baaqvhh..........dcfeeh......++hffddcbbbbdhhiihedddb-cfhhhjjjieca----+.......++zggqvifefhz......zobbaccfwuffeee
(PID.TID 0000.0001) //      5 ..+nhgffkghccfhkhffgdaackz....uoibcimlaababcgca----abe.....................ysstlibcimlaaacfbddfjjhijeehf-a-c...............ysstlgeeeeoz..ijklt+....lfjzzf---adfczs...su.........................qk.yi---fdaadcehllotq....yy+++zzs.....+zcba-----qk.yi-------gha-fjddqs+xkrz.........q-bccba-------cdd--aaa----df------------aaachikdccdeeeeeeedddedddddgghhhhjhhgffcbbaa.....+upjdcy.vohq.......+idcdfeeefwz....gffcbbaaaaddfegecca----dfeefhfgdb-----+.efwz....+hhn.vklox.........gdccfjwrigffh
(PID.TID 0000.0001) //      4 .+ujhgfllfhdffhkfffca-aady...llnabdopfcbfbbbcgfcaa-aae+.......................lcabdopfcbdgdbcdehlihgfddc--ms..................lcgfdddhq.+hiilnz++.+oquxyz--adgkf................................okn.zd--dcaabcfmtooyxz......+yuiiy....++gb------okn.zd---eciiiicfkeeqy.ysz..........n-aagb--------ddcca-a-----acbaa------bbaaaabfgdcbbdeddedcdcccdddcddffggghiggfffdbaa-........ywxy.lulo.lv...kcdgddffefffilyx+fffdbaa---acdcccba--abvfedeffdcca----b+.fffilyx+fffk.+xyyy.........mgeimvskjklll
(PID.TID 0000.0001) //      3 +vjggfcceeffffjlkjgaa---bfvheeln-aesphfdzmfeccdghfeegcbt......................aa-aesphfdhgabddeflihhgfecbaaayq+++++...........aafifccgnrzgghjry.+++sr+lq.--edfkk................................kqnz.vtpoxtkblwnnsp.vv......skhggt...+++t-------kqnz.vtpkllgdccfkkkkk..++..........+g---t---------bdaf---------edd-------adlaaaafecaaadcdddcbbbbcdddcccdffffghgffffdcaa-+..........vnhzy.tllqiedccdhggfggffiiggffffdcaa----abcaaaa-acxxmecdjmdbba----r+.gffiiggfcbdgy..yz..........xigqophijkkii
(PID.TID 0000.0001) //      2 qifeecbbccddefilihecbaacbaajfega-aesqhff..wifedfkhfegbbcivlqfoz..............jaa-aesqhffiea-cdeflkkljifeddcba---bry+.........jaacfihggokeeffgt..++++..hhlfdeddke...............................vkqn+.sghz..qcz+.zwxtsttz..ysrkhot++++++zig------kqn+.sghfcbcbbbdgfdek.++++.........+l---ig--------b--f---------egqqqaa----frb---caaaaaccdccbaaabbddddccdffffghfeeeeecba-+........+kkrhw.vqmlnieddcdehgggffgigedbeeeecba------baaaa-euwxqdbcdkud-----sy+.ffgigedbaaceiy.............zilrddefikkhh
(PID.TID 0000.0001) //      1 ebbbbaaaaaccdfhlhfefdcccaabjefbaaafonhgl..+wfeefikhgcbbccaaacgn.............icaaaafonhglid--adfgkkkklkhffddca-----s++++.....icaaccfihfoedddeedy..++...nnqwgfeeke...............................xsrxz.tedyy.z++..+zsjjllllljllpjos+++.+zhhi-----esrxz.tedcbbbbaaadddet.++++.........+l---hi-----e-----ea--------foqqoqqo--hlwgea----a-accddba--bbbddddccdfffhhgfeeddccba-.........+nk+..xiioonhfefddegihhghigfdbaeddccba-------aaaabgns.qcbcchyzqngll++..ghigfdbaaabdgx..............nheddefiklhg
(PID.TID 0000.0001) //      0 -aaaaaaa-aacccfikkhecccbbbaaabaadfkllilm....wiheddeccdfhfbabdfl............jdbaddfkllilmgebaadfijjiiikjhffdcba-----lllgn...jdbaddddgifkccccdccd+.++..++ynvz.tkkq.............................++..u+..zmd.mu....++zyslllllkhggkmpy++...ihhi-----e.u+..zmdfbd---a-aeef.xx+..........+++s--hi-----ea---feb-----a-acnoohfghknvmwnuca-----accdcb---bbbcdddddefffggfeeedcccbba..........qhu..hhhkojgffgeefghihhiieedbaedcccbba----aa--alrwwy.kcbccc+...++++...hiieedbaaabcdy..............ygddeghiljgf
(PID.TID 0000.0001) //     -1 --aaaaa----aacffiljgfffcca--adfikkiikimi......ylea--acfihebcbbes..........sfcbbnkkiikimiiheccfurkiffhijjigfecb-----l----..sfcbbngfffigcaaabdbcac+.+++++zgmpx...y.............................+++++.z+.wq.mm....++..zslwz.yhhhhnz+++...rhgc----ab++.z+.wqgbf-------dgzpoy+........+ys+yrbgc----ab----ige----acaaalllkddfiy..yswxb--aa-abcccb---bbbbddddeffflhfeeeecbbcbba..........thk.xgghiligfghfefhhhhiiheedcdecbbcbbaa----a--bdflm.yuibbcc.......+...iiheedcdbbabdmz.............zfdeghikkifd
(PID.TID 0000.0001) //     -2 --aaa-------acdefinmlgiieb-chnnnmlmlfklk........c---acgkhdcc--di..........ofddchmlmlfklklkhednwwsheeghhijjgfdca----g---a..ofddchohffikaaaaabaaa-aw+.+ysnggox++...............................+++++wmu++y.qrv..........yzzzzrjil+++....qhgd-----a++wmu++ywn--------fwvmgy+........+r-.+++gd-----a-----i---cccdeabkklldinqssy..xxv-abc--abbbb---abaaddddeedkmeddefdbbbdcba...........+y.uhghikihgfghefgihhhgeeeeeddbbbdcbaa-------ba-hv.susfbcc.......+...hgeeeeeddbaadhw.............nedeghjjhfed
(PID.TID 0000.0001) //     -3 a--a---aa---aedeegknmlgiigcdfhpokkimdkmk.......+b----cfkhec---afz.........nhfdffkkimdkmknoiedcfjvpddegghhhhgfdcbaa-n---a..nhfdffholghkaaaaaba-a---flkkuswyy++++y..............................+++yqd.++++zr...........zzzzz++ry++......yd-------+yqd.+++zvq--dafz.lqnggw+........+b-....d--------------aeecdeidfkkqnqlmqquukqqmfabcc---aaba------acdddcbcineddgdbaaaeedb..............iihiijjhfefgefhjihiffgggffbaaaeedbaa----------nysqssfcd...........iffgggffecaabelx...........zjecehijhfecc
(PID.TID 0000.0001) // =======================================================
(PID.TID 0000.0001) // END OF FIELD                                          =
(PID.TID 0000.0001) // =======================================================
(PID.TID 0000.0001) 
(PID.TID 0000.0001) // =======================================================
(PID.TID 0000.0001) // Field Model Ro_surf (ini_masks_etc) at iteration          1
(PID.TID 0000.0001) // CMIN =         -7.105427357601002E-15
(PID.TID 0000.0001) // CMAX =         -7.105427357601002E-15
(PID.TID 0000.0001) // CINT =          0.000000000000000E+00
(PID.TID 0000.0001) // SYMBOLS (CMIN->CMAX): -abcdefghijklmnopqrstuvwxyz+
(PID.TID 0000.0001) //                  0.0: .
(PID.TID 0000.0001) // RANGE I (Lo:Hi:Step):(  -3: 388:   1)
(PID.TID 0000.0001) // RANGE J (Lo:Hi:Step):(  20:  -3:  -1)
(PID.TID 0000.0001) // RANGE K (Lo:Hi:Step):(   1:   1:   1)
(PID.TID 0000.0001) // =======================================================
(PID.TID 0000.0001) // =======================================================
(PID.TID 0000.0001) // END OF FIELD                                          =
(PID.TID 0000.0001) // =======================================================
(PID.TID 0000.0001) 
(PID.TID 0000.0001) // =======================================================
(PID.TID 0000.0001) // Field hFacC at iteration          1
(PID.TID 0000.0001) // CMIN =          1.000000000000000E+00
(PID.TID 0000.0001) // CMAX =          1.000000000000000E+00
(PID.TID 0000.0001) // CINT =          0.000000000000000E+00
(PID.TID 0000.0001) // SYMBOLS (CMIN->CMAX): -abcdefghijklmnopqrstuvwxyz+
(PID.TID 0000.0001) //                  0.0: .
(PID.TID 0000.0001) // RANGE I (Lo:Hi:Step):(  -3: 388:   1)
(PID.TID 0000.0001) // RANGE J (Lo:Hi:Step):(  20:  -3:  -1)
(PID.TID 0000.0001) // RANGE K (Lo:Hi:Step):(   1:   1:   1)
(PID.TID 0000.0001) // =======================================================
(PID.TID 0000.0001) // =======================================================
(PID.TID 0000.0001) // END OF FIELD                                          =
(PID.TID 0000.0001) // =======================================================
(PID.TID 0000.0001) 
(PID.TID 0000.0001) // =======================================================
(PID.TID 0000.0001) // Field hFacW at iteration          1
(PID.TID 0000.0001) // CMIN =          1.000000000000000E+00
(PID.TID 0000.0001) // CMAX =          1.000000000000000E+00
(PID.TID 0000.0001) // CINT =          0.000000000000000E+00
(PID.TID 0000.0001) // SYMBOLS (CMIN->CMAX): -abcdefghijklmnopqrstuvwxyz+
(PID.TID 0000.0001) //                  0.0: .
(PID.TID 0000.0001) // RANGE I (Lo:Hi:Step):(  -3: 388:   1)
(PID.TID 0000.0001) // RANGE J (Lo:Hi:Step):(  20:  -3:  -1)
(PID.TID 0000.0001) // RANGE K (Lo:Hi:Step):(   1:   1:   1)
(PID.TID 0000.0001) // =======================================================
(PID.TID 0000.0001) // =======================================================
(PID.TID 0000.0001) // END OF FIELD                                          =
(PID.TID 0000.0001) // =======================================================
(PID.TID 0000.0001) 
(PID.TID 0000.0001) // =======================================================
(PID.TID 0000.0001) // Field hFacS at iteration          1
(PID.TID 0000.0001) // CMIN =          1.000000000000000E+00
(PID.TID 0000.0001) // CMAX =          1.000000000000000E+00
(PID.TID 0000.0001) // CINT =          0.000000000000000E+00
(PID.TID 0000.0001) // SYMBOLS (CMIN->CMAX): -abcdefghijklmnopqrstuvwxyz+
(PID.TID 0000.0001) //                  0.0: .
(PID.TID 0000.0001) // RANGE I (Lo:Hi:Step):(  -3: 388:   1)
(PID.TID 0000.0001) // RANGE J (Lo:Hi:Step):(  20:  -3:  -1)
(PID.TID 0000.0001) // RANGE K (Lo:Hi:Step):(   1:   1:   1)
(PID.TID 0000.0001) // =======================================================
(PID.TID 0000.0001) // =======================================================
(PID.TID 0000.0001) // END OF FIELD                                          =
(PID.TID 0000.0001) // =======================================================
(PID.TID 0000.0001) 
(PID.TID 0000.0001) 
(PID.TID 0000.0001) // ===================================
(PID.TID 0000.0001) // GAD parameters :
(PID.TID 0000.0001) // ===================================
(PID.TID 0000.0001) tempAdvScheme =   /* Temp. Horiz.Advection scheme selector */
(PID.TID 0000.0001)                       2
(PID.TID 0000.0001)     ;
(PID.TID 0000.0001) tempVertAdvScheme =   /* Temp. Vert. Advection scheme selector */
(PID.TID 0000.0001)                       2
(PID.TID 0000.0001)     ;
(PID.TID 0000.0001) tempMultiDimAdvec =   /* use Muti-Dim Advec method for Temp */
(PID.TID 0000.0001)                   F
(PID.TID 0000.0001)     ;
(PID.TID 0000.0001) tempSOM_Advection = /* use 2nd Order Moment Advection for Temp */
(PID.TID 0000.0001)                   F
(PID.TID 0000.0001)     ;
(PID.TID 0000.0001) AdamsBashforthGt = /* apply Adams-Bashforth extrapolation on Gt */
(PID.TID 0000.0001)                   T
(PID.TID 0000.0001)     ;
(PID.TID 0000.0001) AdamsBashforth_T = /* apply Adams-Bashforth extrapolation on Temp */
(PID.TID 0000.0001)                   F
(PID.TID 0000.0001)     ;
(PID.TID 0000.0001) saltAdvScheme =   /* Salt. Horiz.advection scheme selector */
(PID.TID 0000.0001)                       2
(PID.TID 0000.0001)     ;
(PID.TID 0000.0001) saltVertAdvScheme =   /* Salt. Vert. Advection scheme selector */
(PID.TID 0000.0001)                       2
(PID.TID 0000.0001)     ;
(PID.TID 0000.0001) saltMultiDimAdvec =   /* use Muti-Dim Advec method for Salt */
(PID.TID 0000.0001)                   F
(PID.TID 0000.0001)     ;
(PID.TID 0000.0001) saltSOM_Advection = /* use 2nd Order Moment Advection for Salt */
(PID.TID 0000.0001)                   F
(PID.TID 0000.0001)     ;
(PID.TID 0000.0001) AdamsBashforthGs = /* apply Adams-Bashforth extrapolation on Gs */
(PID.TID 0000.0001)                   T
(PID.TID 0000.0001)     ;
(PID.TID 0000.0001) AdamsBashforth_S = /* apply Adams-Bashforth extrapolation on Salt */
(PID.TID 0000.0001)                   F
(PID.TID 0000.0001)     ;
(PID.TID 0000.0001) // ===================================
(PID.TID 0000.0001) 
(PID.TID 0000.0001) // =======================================================
(PID.TID 0000.0001) // External forcing configuration >>> START <<<
(PID.TID 0000.0001) // =======================================================
(PID.TID 0000.0001) 
(PID.TID 0000.0001)  EXF general parameters:
(PID.TID 0000.0001) 
(PID.TID 0000.0001) exf_yftype =  /* ? */
(PID.TID 0000.0001)               'RL'
(PID.TID 0000.0001)     ;
(PID.TID 0000.0001) exf_iprec = /* exf file precision */
(PID.TID 0000.0001)                      64
(PID.TID 0000.0001)     ;
(PID.TID 0000.0001) useExfYearlyFields = /* add extension _YEAR to input file names */
(PID.TID 0000.0001)                   F
(PID.TID 0000.0001)     ;
(PID.TID 0000.0001) twoDigitYear = /* use 2-digit year extension */
(PID.TID 0000.0001)                   F
(PID.TID 0000.0001)     ;
(PID.TID 0000.0001) useExfCheckRange = /* check for fields range */
(PID.TID 0000.0001)                   T
(PID.TID 0000.0001)     ;
(PID.TID 0000.0001) exf_monFreq = /* EXF monitor frequency [ s ] */
(PID.TID 0000.0001)                 0.000000000000000E+00
(PID.TID 0000.0001)     ;
(PID.TID 0000.0001) repeatPeriod = /* period for cycling forcing dataset [ s ] */
(PID.TID 0000.0001)                 3.110400000000000E+07
(PID.TID 0000.0001)     ;
(PID.TID 0000.0001) climTempFreeze= /* Minimum climatological temperature [deg.C] */
(PID.TID 0000.0001)                -1.900000000000000E+00
(PID.TID 0000.0001)     ;
(PID.TID 0000.0001) windStressMax = /* Maximum absolute windstress [ Pa ] */
(PID.TID 0000.0001)                 2.000000000000000E+00
(PID.TID 0000.0001)     ;
(PID.TID 0000.0001) stressIsOnCgrid = /* set u,v_stress on Arakawa C-grid */
(PID.TID 0000.0001)                   T
(PID.TID 0000.0001)     ;
(PID.TID 0000.0001) cen2kel = /* conversion of deg. Centigrade to Kelvin [K] */
(PID.TID 0000.0001)                 2.731500000000000E+02
(PID.TID 0000.0001)     ;
(PID.TID 0000.0001) gravity_mks= /* gravitational acceleration [m/s^2] */
(PID.TID 0000.0001)                 9.810000000000000E+00
(PID.TID 0000.0001)     ;
(PID.TID 0000.0001) atmrho =  /* mean atmospheric density [kg/m^3] */
(PID.TID 0000.0001)                 1.220000000000000E+00
(PID.TID 0000.0001)     ;
(PID.TID 0000.0001) atmcp =  /* mean atmospheric specific heat [J/kg/K] */
(PID.TID 0000.0001)                 1.005000000000000E+03
(PID.TID 0000.0001)     ;
(PID.TID 0000.0001) flamb =  /* latent heat of evaporation [J/kg] */
(PID.TID 0000.0001)                 2.500000000000000E+06
(PID.TID 0000.0001)     ;
(PID.TID 0000.0001) flami =  /* latent heat of pure-ice melting [J/kg] */
(PID.TID 0000.0001)                 3.340000000000000E+05
(PID.TID 0000.0001)     ;
(PID.TID 0000.0001) cvapor_fac = /* const. for Saturation calculation [?] */
(PID.TID 0000.0001)                 6.403800000000000E+05
(PID.TID 0000.0001)     ;
(PID.TID 0000.0001) cvapor_exp = /* const. for Saturation calculation [?] */
(PID.TID 0000.0001)                 5.107400000000000E+03
(PID.TID 0000.0001)     ;
(PID.TID 0000.0001) cvapor_fac_ice= /* const. for Saturation calculation [?] */
(PID.TID 0000.0001)                 1.163780000000000E+07
(PID.TID 0000.0001)     ;
(PID.TID 0000.0001) cvapor_exp_ice= /* const. for Saturation calculation [?] */
(PID.TID 0000.0001)                 5.897800000000000E+03
(PID.TID 0000.0001)     ;
(PID.TID 0000.0001) humid_fac = /* humidity coef. in virtual temp. [(kg/kg)^-1] */
(PID.TID 0000.0001)                 6.080000000000000E-01
(PID.TID 0000.0001)     ;
(PID.TID 0000.0001) gamma_blk = /* adiabatic lapse rate [?] */
(PID.TID 0000.0001)                 1.000000000000000E-02
(PID.TID 0000.0001)     ;
(PID.TID 0000.0001) saltsat = /* reduction of Qsat over salty water [-] */
(PID.TID 0000.0001)                 9.800000000000000E-01
(PID.TID 0000.0001)     ;
(PID.TID 0000.0001) noNegativeEvap = /* prevent negative Evaporation */
(PID.TID 0000.0001)                   F
(PID.TID 0000.0001)     ;
(PID.TID 0000.0001) sstExtrapol = /* extrapolation coeff from lev. 1 & 2 to surf [-] */
(PID.TID 0000.0001)                 0.000000000000000E+00
(PID.TID 0000.0001)     ;
(PID.TID 0000.0001) cDrag_1 = /* coef used in drag calculation [?] */
(PID.TID 0000.0001)                 2.700000000000000E-03
(PID.TID 0000.0001)     ;
(PID.TID 0000.0001) cDrag_2 = /* coef used in drag calculation [?] */
(PID.TID 0000.0001)                 1.420000000000000E-04
(PID.TID 0000.0001)     ;
(PID.TID 0000.0001) cDrag_3 = /* coef used in drag calculation [?] */
(PID.TID 0000.0001)                 7.640000000000000E-05
(PID.TID 0000.0001)     ;
(PID.TID 0000.0001) cStanton_1 = /* coef used in Stanton number calculation [?] */
(PID.TID 0000.0001)                 3.270000000000000E-02
(PID.TID 0000.0001)     ;
(PID.TID 0000.0001) cStanton_2 = /* coef used in Stanton number calculation [?] */
(PID.TID 0000.0001)                 1.800000000000000E-02
(PID.TID 0000.0001)     ;
(PID.TID 0000.0001) cDalton = /* coef used in Dalton number calculation [?] */
(PID.TID 0000.0001)                 3.460000000000000E-02
(PID.TID 0000.0001)     ;
(PID.TID 0000.0001) exf_scal_BulkCdn= /* Drag coefficient scaling factor [-] */
(PID.TID 0000.0001)                 1.000000000000000E+00
(PID.TID 0000.0001)     ;
(PID.TID 0000.0001) zolmin = /* minimum stability parameter [?] */
(PID.TID 0000.0001)                -1.000000000000000E+02
(PID.TID 0000.0001)     ;
(PID.TID 0000.0001) psim_fac = /* coef used in turbulent fluxes calculation [-] */
(PID.TID 0000.0001)                 5.000000000000000E+00
(PID.TID 0000.0001)     ;
(PID.TID 0000.0001) zref =  /* reference height [ m ] */
(PID.TID 0000.0001)                 1.000000000000000E+01
(PID.TID 0000.0001)     ;
(PID.TID 0000.0001) hu =  /* height of mean wind [ m ] */
(PID.TID 0000.0001)                 1.000000000000000E+01
(PID.TID 0000.0001)     ;
(PID.TID 0000.0001) ht =  /* height of mean temperature [ m ] */
(PID.TID 0000.0001)                 1.000000000000000E+01
(PID.TID 0000.0001)     ;
(PID.TID 0000.0001) hq =  /* height of mean spec.humidity [ m ] */
(PID.TID 0000.0001)                 1.000000000000000E+01
(PID.TID 0000.0001)     ;
(PID.TID 0000.0001) uMin = /* minimum wind speed [m/s] */
(PID.TID 0000.0001)                 5.000000000000000E-01
(PID.TID 0000.0001)     ;
(PID.TID 0000.0001) useStabilityFct_overIce= /* transfert Coeffs over sea-ice depend on stability */
(PID.TID 0000.0001)                   F
(PID.TID 0000.0001)     ;
(PID.TID 0000.0001) exf_iceCd = /* drag coefficient over sea-ice (fixed) [-] */
(PID.TID 0000.0001)                 1.630000000000000E-03
(PID.TID 0000.0001)     ;
(PID.TID 0000.0001) exf_iceCe = /* transfert coeff. over sea-ice, for Evap (fixed) [-] */
(PID.TID 0000.0001)                 1.630000000000000E-03
(PID.TID 0000.0001)     ;
(PID.TID 0000.0001) exf_iceCh = /* transfert coeff. over sea-ice, Sens.Heat.(fixed)[-] */
(PID.TID 0000.0001)                 1.630000000000000E-03
(PID.TID 0000.0001)     ;
(PID.TID 0000.0001) exf_albedo =  /* Sea-water albedo [-] */
(PID.TID 0000.0001)                 6.600000000000000E-02
(PID.TID 0000.0001)     ;
(PID.TID 0000.0001) ocean_emissivity = /* longwave ocean-surface emissivity [-] */
(PID.TID 0000.0001)                 1.000000000000000E+00
(PID.TID 0000.0001)     ;
(PID.TID 0000.0001) ice_emissivity = /* longwave seaice emissivity [-] */
(PID.TID 0000.0001)                 9.500000000000000E-01
(PID.TID 0000.0001)     ;
(PID.TID 0000.0001) snow_emissivity = /* longwave snow  emissivity [-] */
(PID.TID 0000.0001)                 9.500000000000000E-01
(PID.TID 0000.0001)     ;
(PID.TID 0000.0001) 
(PID.TID 0000.0001)  EXF main CPP flags:
(PID.TID 0000.0001) 
(PID.TID 0000.0001) // ALLOW_ATM_TEMP:                     defined
(PID.TID 0000.0001) // ALLOW_ATM_WIND:                 NOT defined
(PID.TID 0000.0001) // ALLOW_DOWNWARD_RADIATION:           defined
(PID.TID 0000.0001) // ALLOW_BULKFORMULAE:                 defined
(PID.TID 0000.0001) 
(PID.TID 0000.0001)    Zonal wind stress forcing starts at             1209600.
(PID.TID 0000.0001)    Zonal wind stress forcing period is             2592000.
(PID.TID 0000.0001)    Zonal wind stress forcing is read from file:
(PID.TID 0000.0001)    >>  trenberth_taux.bin  <<
(PID.TID 0000.0001) 
(PID.TID 0000.0001)    Meridional wind stress forcing starts at        1209600.
(PID.TID 0000.0001)    Meridional wind stress forcing period is        2592000.
(PID.TID 0000.0001)    Meridional wind stress forcing is read from file:
(PID.TID 0000.0001)    >>  trenberth_tauy.bin  <<
(PID.TID 0000.0001) 
(PID.TID 0000.0001)    Net shortwave flux forcing starts at                0.
(PID.TID 0000.0001)    Net shortwave flux forcing period is                0.
(PID.TID 0000.0001)    Net shortwave flux forcing is read from file:
(PID.TID 0000.0001)    >>    <<
(PID.TID 0000.0001) 
(PID.TID 0000.0001)    Atmospheric temperature starts at               1209600.
(PID.TID 0000.0001)    Atmospheric temperature period is               2592000.
(PID.TID 0000.0001)    Atmospheric temperature is read from file:
(PID.TID 0000.0001)    >>  core_t_Air_cs32.bin  <<
(PID.TID 0000.0001) 
(PID.TID 0000.0001)    Atmospheric specific humidity starts at         1209600.
(PID.TID 0000.0001)    Atmospheric specific humidity period is         2592000.
(PID.TID 0000.0001)    Atmospheric specific humidity is read from file:
(PID.TID 0000.0001)    >>  core_q_air_cs32.bin  <<
(PID.TID 0000.0001) 
(PID.TID 0000.0001)    Net longwave flux forcing starts at                 0.
(PID.TID 0000.0001)    Net longwave flux forcing period is                 0.
(PID.TID 0000.0001)    Net longwave flux forcing is read from file:
(PID.TID 0000.0001)    >>    <<
(PID.TID 0000.0001) 
(PID.TID 0000.0001)    Precipitation data set starts at                1209600.
(PID.TID 0000.0001)    Precipitation data period is                    2592000.
(PID.TID 0000.0001)    Precipitation data is read from file:
(PID.TID 0000.0001)    >>  core_prec_1_cs32.bin  <<
(PID.TID 0000.0001) 
(PID.TID 0000.0001) // EXF_READ_EVAP:                  NOT defined
(PID.TID 0000.0001) 
(PID.TID 0000.0001) // ALLOW_RUNOFF:                       defined
(PID.TID 0000.0001)    Runoff starts at         1209600.
(PID.TID 0000.0001)    Runoff period is         2592000.
(PID.TID 0000.0001)    Runoff is read from file:
(PID.TID 0000.0001)    >>  core_rnof_1_cs32.bin  <<
(PID.TID 0000.0001) 
(PID.TID 0000.0001)    Atmospheric pressure forcing starts at                0.
(PID.TID 0000.0001)    Atmospheric pressure forcing period is                0.
(PID.TID 0000.0001)    Atmospheric pressureforcing is read from file:
(PID.TID 0000.0001)    >>    <<
(PID.TID 0000.0001) 
(PID.TID 0000.0001) // =======================================================
(PID.TID 0000.0001) // External forcing configuration  >>> END <<<
(PID.TID 0000.0001) // =======================================================
(PID.TID 0000.0001) 
(PID.TID 0000.0001) 
(PID.TID 0000.0001) // =======================================================
(PID.TID 0000.0001) // External forcing climatology configuration >>> START <<<
(PID.TID 0000.0001) // =======================================================
(PID.TID 0000.0001) 
(PID.TID 0000.0001) // ALLOW_CLIMSST_RELAXATION:           defined
(PID.TID 0000.0001) // ALLOW_CLIMSSS_RELAXATION:           defined
(PID.TID 0000.0001) 
(PID.TID 0000.0001)    Climatological SST starts at             1209600.
(PID.TID 0000.0001)    Climatological SST period is             2592000.
(PID.TID 0000.0001)    Climatological SST is read from file:
(PID.TID 0000.0001)    >>  lev_surfT_cs_12m.bin  <<
(PID.TID 0000.0001) 
(PID.TID 0000.0001)    Climatological SSS starts at             1209600.
(PID.TID 0000.0001)    Climatological SSS period is             2592000.
(PID.TID 0000.0001)    Climatological SSS is read from file:
(PID.TID 0000.0001)    >>  lev_surfS_cs_12m.bin  <<
(PID.TID 0000.0001) 
(PID.TID 0000.0001) // =======================================================
(PID.TID 0000.0001) // External forcing climatology configuration  >>> END <<<
(PID.TID 0000.0001) // =======================================================
(PID.TID 0000.0001) 
(PID.TID 0000.0001) ------------------------------------------------------------
(PID.TID 0000.0001) DIAGNOSTICS_SET_LEVELS: done
(PID.TID 0000.0001)  Total Nb of available Diagnostics: ndiagt=   285
(PID.TID 0000.0001)  write list of available Diagnostics to file: available_diagnostics.log
(PID.TID 0000.0001) SETDIAG: Allocate  1 x  1 Levels for Diagnostic #    23 ETAN
(PID.TID 0000.0001) SETDIAG: Allocate  1 x  1 Levels for Diagnostic #    24 ETANSQ
(PID.TID 0000.0001) SETDIAG: Allocate  1 x  1 Levels for Diagnostic #    25 DETADT2
(PID.TID 0000.0001) SETDIAG: Allocate  1 x  1 Levels for Diagnostic #    69 PHIBOT
(PID.TID 0000.0001) SETDIAG: Allocate  1 x  1 Levels for Diagnostic #    70 PHIBOTSQ
(PID.TID 0000.0001) SETDIAG: Allocate  1 x  1 Levels for Diagnostic #    75 oceTAUX
(PID.TID 0000.0001) SETDIAG: Allocate  1 x  1 Levels for Diagnostic #    76 oceTAUY
(PID.TID 0000.0001) SETDIAG: Allocate  1 x  1 Levels for Diagnostic #    81 oceQnet
(PID.TID 0000.0001) SETDIAG: Allocate  1 x  1 Levels for Diagnostic #    80 oceSflux
(PID.TID 0000.0001) SETDIAG: Allocate  1 x  1 Levels for Diagnostic #    79 oceFWflx
(PID.TID 0000.0001) SETDIAG: Allocate  1 x  1 Levels for Diagnostic #    84 TRELAX
(PID.TID 0000.0001) SETDIAG: Allocate  1 x  1 Levels for Diagnostic #    85 SRELAX
(PID.TID 0000.0001)   space allocated for all diagnostics:      12 levels
(PID.TID 0000.0001)   set mate pointer for diag #    75  oceTAUX  , Parms: UU      U1 , mate:    76
(PID.TID 0000.0001)   set mate pointer for diag #    76  oceTAUY  , Parms: VV      U1 , mate:    75
(PID.TID 0000.0001) DIAGNOSTICS_SET_POINTERS: Set levels for Outp.Stream: surfDiag
(PID.TID 0000.0001)  Levels:       1.
(PID.TID 0000.0001) DIAGNOSTICS_SET_POINTERS: done
(PID.TID 0000.0001) ------------------------------------------------------------
 DIAGSTATS_SET_REGIONS: start reading region-mask file: regMask_lat24.bin
 DIAGSTATS_SET_REGIONS:  reading set k=  1
(PID.TID 0000.0001)  MDS_READ_FIELD: opening global file: regMask_lat24.bin
 DIAGSTATS_SET_REGIONS:          set k=  1 <= done
(PID.TID 0000.0001) DIAGSTATS_SET_REGIONS: define   3 regions:  1  2  3
(PID.TID 0000.0001) ------------------------------------------------------------
(PID.TID 0000.0001) SETDIAG: Allocate  1 Levels for Stats-Diag #    23 ETAN
(PID.TID 0000.0001) SETDIAG: Allocate 15 Levels for Stats-Diag #    30 UVEL
(PID.TID 0000.0001) SETDIAG: Allocate 15 Levels for Stats-Diag #    31 VVEL
(PID.TID 0000.0001) SETDIAG: Allocate 15 Levels for Stats-Diag #    32 WVEL
(PID.TID 0000.0001) SETDIAG: Allocate 15 Levels for Stats-Diag #    26 THETA
(PID.TID 0000.0001) SETDIAG: Allocate 15 Levels for Stats-Diag #    27 SALT
(PID.TID 0000.0001) SETDIAG: Allocate 15 Levels for Stats-Diag #    74 CONVADJ
(PID.TID 0000.0001) SETDIAG: Allocate  1 Levels for Stats-Diag #    25 DETADT2
(PID.TID 0000.0001) SETDIAG: Allocate  1 Levels for Stats-Diag #   212 SI_Fract
(PID.TID 0000.0001) SETDIAG: Allocate  1 Levels for Stats-Diag #   213 SI_Thick
(PID.TID 0000.0001) - NOTE - SETDIAG: Counter Diagnostic #   212 SI_Fract has already been set
(PID.TID 0000.0001) SETDIAG: Allocate  1 Levels for Stats-Diag #   214 SI_SnowH
(PID.TID 0000.0001) - NOTE - SETDIAG: Counter Diagnostic #   212 SI_Fract has already been set
(PID.TID 0000.0001) SETDIAG: Allocate  1 Levels for Stats-Diag #   215 SI_Tsrf
(PID.TID 0000.0001) - NOTE - SETDIAG: Counter Diagnostic #   212 SI_Fract has already been set
(PID.TID 0000.0001) SETDIAG: Allocate  1 Levels for Stats-Diag #   216 SI_Tice1
(PID.TID 0000.0001) - NOTE - SETDIAG: Counter Diagnostic #   212 SI_Fract has already been set
(PID.TID 0000.0001) SETDIAG: Allocate  1 Levels for Stats-Diag #   217 SI_Tice2
(PID.TID 0000.0001) - NOTE - SETDIAG: Counter Diagnostic #   212 SI_Fract has already been set
(PID.TID 0000.0001) SETDIAG: Allocate  1 Levels for Stats-Diag #   218 SI_Qice1
(PID.TID 0000.0001) - NOTE - SETDIAG: Counter Diagnostic #   213 SI_Thick has already been set
(PID.TID 0000.0001) SETDIAG: Allocate  1 Levels for Stats-Diag #   219 SI_Qice2
(PID.TID 0000.0001) - NOTE - SETDIAG: Counter Diagnostic #   213 SI_Thick has already been set
(PID.TID 0000.0001) SETDIAG: Allocate  1 Levels for Stats-Diag #   223 SIsnwPrc
(PID.TID 0000.0001) SETDIAG: Allocate  1 Levels for Count.Diag #   221 SI_FrcFx
(PID.TID 0000.0001) SETDIAG: Allocate  1 Levels for Stats-Diag #   222 SIalbedo
(PID.TID 0000.0001) - NOTE - SETDIAG: Counter Diagnostic #   221 SI_FrcFx has already been set
(PID.TID 0000.0001) SETDIAG: Allocate  1 Levels for Stats-Diag #   220 SIsnwAge
(PID.TID 0000.0001) SETDIAG: Allocate  1 Levels for Stats-Diag #   226 SIflx2oc
(PID.TID 0000.0001) SETDIAG: Allocate  1 Levels for Stats-Diag #   227 SIfrw2oc
(PID.TID 0000.0001) SETDIAG: Allocate  1 Levels for Stats-Diag #   228 SIsaltFx
(PID.TID 0000.0001) SETDIAG: Allocate  1 Levels for Stats-Diag #   224 SIflxAtm
(PID.TID 0000.0001) SETDIAG: Allocate  1 Levels for Stats-Diag #   225 SIfrwAtm
(PID.TID 0000.0001)   space allocated for all stats-diags:     109 levels
(PID.TID 0000.0001) DIAGSTATS_SET_POINTERS: done
(PID.TID 0000.0001) ------------------------------------------------------------
(PID.TID 0000.0001) DIAGSTATS_INI_IO: open file: dynStDiag.0000072000.txt , unit=     9
(PID.TID 0000.0001) DIAGSTATS_INI_IO: open file: thSIceStDiag.0000072000.txt , unit=    10
(PID.TID 0000.0001) %MON fCori_max                    =   1.4574827780704E-04
(PID.TID 0000.0001) %MON fCori_min                    =  -1.4574827780704E-04
(PID.TID 0000.0001) %MON fCori_mean                   =   3.3881317890172E-21
(PID.TID 0000.0001) %MON fCori_sd                     =   8.4202189509968E-05
(PID.TID 0000.0001) %MON fCoriG_max                   =   1.4584247033981E-04
(PID.TID 0000.0001) %MON fCoriG_min                   =  -1.4584247033981E-04
(PID.TID 0000.0001) %MON fCoriG_mean                  =  -1.6940658945086E-20
(PID.TID 0000.0001) %MON fCoriG_sd                    =   8.4202189509968E-05
(PID.TID 0000.0001) %MON fCoriCos_max                 =   1.4580166994612E-04
(PID.TID 0000.0001) %MON fCoriCos_min                 =   5.2407700865903E-06
(PID.TID 0000.0001) %MON fCoriCos_mean                =   1.1514045869113E-04
(PID.TID 0000.0001) %MON fCoriCos_sd                  =   3.0375849106513E-05
(PID.TID 0000.0001) INI_CG2D: CG2D normalisation factor =  1.9156564154949553E-04
(PID.TID 0000.0001) INI_CG2D: cg2dTolerance = 5.809016360175296E-07 (Area=3.6388673751E+14)
(PID.TID 0000.0001) 
(PID.TID 0000.0001) // =======================================================
(PID.TID 0000.0001) // Model configuration
(PID.TID 0000.0001) // =======================================================
(PID.TID 0000.0001) //
(PID.TID 0000.0001) // "Physical" paramters ( PARM01 in namelist )
(PID.TID 0000.0001) //
(PID.TID 0000.0001) buoyancyRelation = /* Type of relation to get Buoyancy */
(PID.TID 0000.0001)               'OCEANIC'
(PID.TID 0000.0001)     ;
(PID.TID 0000.0001) fluidIsAir  =  /* fluid major constituent is Air */
(PID.TID 0000.0001)                   F
(PID.TID 0000.0001)     ;
(PID.TID 0000.0001) fluidIsWater=  /* fluid major constituent is Water */
(PID.TID 0000.0001)                   T
(PID.TID 0000.0001)     ;
(PID.TID 0000.0001) usingPCoords =  /* use p (or p*) vertical coordinate */
(PID.TID 0000.0001)                   F
(PID.TID 0000.0001)     ;
(PID.TID 0000.0001) usingZCoords =  /* use z (or z*) vertical coordinate */
(PID.TID 0000.0001)                   T
(PID.TID 0000.0001)     ;
(PID.TID 0000.0001) tRef =   /* Reference temperature profile ( oC or K ) */
(PID.TID 0000.0001)    15 @  2.000000000000000E+01              /* K =  1: 15 */
(PID.TID 0000.0001)     ;
(PID.TID 0000.0001) sRef =   /* Reference salinity profile ( psu ) */
(PID.TID 0000.0001)    15 @  3.500000000000000E+01              /* K =  1: 15 */
(PID.TID 0000.0001)     ;
(PID.TID 0000.0001) viscAh =   /* Lateral eddy viscosity ( m^2/s ) */
(PID.TID 0000.0001)                 3.000000000000000E+05
(PID.TID 0000.0001)     ;
(PID.TID 0000.0001) viscAhMax =   /* Maximum lateral eddy viscosity ( m^2/s ) */
(PID.TID 0000.0001)                 1.000000000000000E+21
(PID.TID 0000.0001)     ;
(PID.TID 0000.0001) viscAhGrid =   /* Grid dependent lateral eddy viscosity ( non-dim. ) */
(PID.TID 0000.0001)                 0.000000000000000E+00
(PID.TID 0000.0001)     ;
(PID.TID 0000.0001) useFullLeith =   /* Use Full Form of Leith Viscosity on/off flag*/
(PID.TID 0000.0001)                   F
(PID.TID 0000.0001)     ;
(PID.TID 0000.0001) useStrainTensionVisc =   /* Use StrainTension Form of Viscous Operator on/off flag*/
(PID.TID 0000.0001)                   F
(PID.TID 0000.0001)     ;
(PID.TID 0000.0001) useAreaViscLength =   /* Use area for visc length instead of geom. mean*/
(PID.TID 0000.0001)                   F
(PID.TID 0000.0001)     ;
(PID.TID 0000.0001) viscC2leith = /* Leith harmonic visc. factor (on grad(vort),non-dim.) */
(PID.TID 0000.0001)                 0.000000000000000E+00
(PID.TID 0000.0001)     ;
(PID.TID 0000.0001) viscC2leithD = /* Leith harmonic viscosity factor (on grad(div),non-dim.) */
(PID.TID 0000.0001)                 0.000000000000000E+00
(PID.TID 0000.0001)     ;
(PID.TID 0000.0001) viscC2smag =   /* Smagorinsky harmonic viscosity factor (non-dim.) */
(PID.TID 0000.0001)                 0.000000000000000E+00
(PID.TID 0000.0001)     ;
(PID.TID 0000.0001) viscA4 =   /* Lateral biharmonic viscosity ( m^4/s ) */
(PID.TID 0000.0001)                 0.000000000000000E+00
(PID.TID 0000.0001)     ;
(PID.TID 0000.0001) viscA4Max =   /* Maximum biharmonic viscosity ( m^2/s ) */
(PID.TID 0000.0001)                 1.000000000000000E+21
(PID.TID 0000.0001)     ;
(PID.TID 0000.0001) viscA4Grid =   /* Grid dependent biharmonic viscosity ( non-dim. ) */
(PID.TID 0000.0001)                 0.000000000000000E+00
(PID.TID 0000.0001)     ;
(PID.TID 0000.0001) viscC4leith = /* Leith biharm viscosity factor (on grad(vort), non-dim.) */
(PID.TID 0000.0001)                 0.000000000000000E+00
(PID.TID 0000.0001)     ;
(PID.TID 0000.0001) viscC4leithD = /* Leith biharm viscosity factor (on grad(div), non-dim.) */
(PID.TID 0000.0001)                 0.000000000000000E+00
(PID.TID 0000.0001)     ;
(PID.TID 0000.0001) viscC4Smag = /* Smagorinsky biharm viscosity factor (non-dim) */
(PID.TID 0000.0001)                 0.000000000000000E+00
(PID.TID 0000.0001)     ;
(PID.TID 0000.0001) no_slip_sides =  /* Viscous BCs: No-slip sides */
(PID.TID 0000.0001)                   T
(PID.TID 0000.0001)     ;
(PID.TID 0000.0001) sideDragFactor = /* side-drag scaling factor (non-dim) */
(PID.TID 0000.0001)                 2.000000000000000E+00
(PID.TID 0000.0001)     ;
(PID.TID 0000.0001) viscAr =   /* Vertical eddy viscosity ( m^2/s ) */
(PID.TID 0000.0001)                 1.000000000000000E-03
(PID.TID 0000.0001)     ;
(PID.TID 0000.0001) no_slip_bottom =  /* Viscous BCs: No-slip bottom */
(PID.TID 0000.0001)                   T
(PID.TID 0000.0001)     ;
(PID.TID 0000.0001) bottomDragLinear = /* linear bottom-drag coefficient ( m/s ) */
(PID.TID 0000.0001)                 0.000000000000000E+00
(PID.TID 0000.0001)     ;
(PID.TID 0000.0001) bottomDragQuadratic = /* quadratic bottom-drag coefficient (-) */
(PID.TID 0000.0001)                 0.000000000000000E+00
(PID.TID 0000.0001)     ;
(PID.TID 0000.0001) diffKhT =   /* Laplacian diffusion of heat laterally ( m^2/s ) */
(PID.TID 0000.0001)                 0.000000000000000E+00
(PID.TID 0000.0001)     ;
(PID.TID 0000.0001) diffK4T =   /* Biharmonic diffusion of heat laterally ( m^4/s ) */
(PID.TID 0000.0001)                 0.000000000000000E+00
(PID.TID 0000.0001)     ;
(PID.TID 0000.0001) diffKhS =   /* Laplacian diffusion of salt laterally ( m^2/s ) */
(PID.TID 0000.0001)                 0.000000000000000E+00
(PID.TID 0000.0001)     ;
(PID.TID 0000.0001) diffK4S =   /* Biharmonic diffusion of salt laterally ( m^4/s ) */
(PID.TID 0000.0001)                 0.000000000000000E+00
(PID.TID 0000.0001)     ;
(PID.TID 0000.0001) diffKrNrT = /* vertical profile of vertical diffusion of Temp ( m^2/s )*/
(PID.TID 0000.0001)    15 @  3.000000000000000E-05              /* K =  1: 15 */
(PID.TID 0000.0001)     ;
(PID.TID 0000.0001) diffKrNrS = /* vertical profile of vertical diffusion of Salt ( m^2/s )*/
(PID.TID 0000.0001)    15 @  3.000000000000000E-05              /* K =  1: 15 */
(PID.TID 0000.0001)     ;
(PID.TID 0000.0001) diffKrBL79surf = /* Surface diffusion for Bryan and Lewis 79 ( m^2/s ) */
(PID.TID 0000.0001)                 0.000000000000000E+00
(PID.TID 0000.0001)     ;
(PID.TID 0000.0001) diffKrBL79deep = /* Deep diffusion for Bryan and Lewis 1979 ( m^2/s ) */
(PID.TID 0000.0001)                 0.000000000000000E+00
(PID.TID 0000.0001)     ;
(PID.TID 0000.0001) diffKrBL79scl = /* Depth scale for Bryan and Lewis 1979 ( m ) */
(PID.TID 0000.0001)                 2.000000000000000E+02
(PID.TID 0000.0001)     ;
(PID.TID 0000.0001) diffKrBL79Ho = /* Turning depth for Bryan and Lewis 1979 ( m ) */
(PID.TID 0000.0001)                -2.000000000000000E+03
(PID.TID 0000.0001)     ;
(PID.TID 0000.0001) ivdc_kappa = /* Implicit Vertical Diffusivity for Convection ( m^2/s ) */
(PID.TID 0000.0001)                 1.000000000000000E+01
(PID.TID 0000.0001)     ;
(PID.TID 0000.0001) hMixCriteria=  /* Criteria for mixed-layer diagnostic */
(PID.TID 0000.0001)                -8.000000000000000E-01
(PID.TID 0000.0001)     ;
(PID.TID 0000.0001) dRhoSmall=  /* Parameter for mixed-layer diagnostic */
(PID.TID 0000.0001)                 1.000000000000000E-06
(PID.TID 0000.0001)     ;
(PID.TID 0000.0001) hMixSmooth=  /* Smoothing parameter for mixed-layer diagnostic */
(PID.TID 0000.0001)                 0.000000000000000E+00
(PID.TID 0000.0001)     ;
(PID.TID 0000.0001) eosType =  /* Type of Equation of State */
(PID.TID 0000.0001)               'JMD95Z'
(PID.TID 0000.0001)     ;
(PID.TID 0000.0001) tAlpha =   /* Linear EOS thermal expansion coefficient ( 1/oC ) */
(PID.TID 0000.0001)                 1.234567000000000E+05
(PID.TID 0000.0001)     ;
(PID.TID 0000.0001) sBeta =   /* Linear EOS haline contraction coefficient ( 1/psu ) */
(PID.TID 0000.0001)                 1.234567000000000E+05
(PID.TID 0000.0001)     ;
(PID.TID 0000.0001) rhonil =   /* Reference density ( kg/m^3 ) */
(PID.TID 0000.0001)                 1.035000000000000E+03
(PID.TID 0000.0001)     ;
(PID.TID 0000.0001) rhoConst =   /* Reference density ( kg/m^3 ) */
(PID.TID 0000.0001)                 1.035000000000000E+03
(PID.TID 0000.0001)     ;
(PID.TID 0000.0001) rhoFacC = /* normalized Reference density @ cell-Center (-) */
(PID.TID 0000.0001)    15 @  1.000000000000000E+00              /* K =  1: 15 */
(PID.TID 0000.0001)     ;
(PID.TID 0000.0001) rhoFacF = /* normalized Reference density @ W-Interface (-) */
(PID.TID 0000.0001)    16 @  1.000000000000000E+00              /* K =  1: 16 */
(PID.TID 0000.0001)     ;
(PID.TID 0000.0001) rhoConstFresh =   /* Reference density ( kg/m^3 ) */
(PID.TID 0000.0001)                 1.000000000000000E+03
(PID.TID 0000.0001)     ;
(PID.TID 0000.0001) gravity =   /* Gravitational acceleration ( m/s^2 ) */
(PID.TID 0000.0001)                 9.810000000000000E+00
(PID.TID 0000.0001)     ;
(PID.TID 0000.0001) gBaro =   /* Barotropic gravity ( m/s^2 ) */
(PID.TID 0000.0001)                 9.810000000000000E+00
(PID.TID 0000.0001)     ;
(PID.TID 0000.0001) rotationPeriod =   /* Rotation Period ( s ) */
(PID.TID 0000.0001)                 8.616400000000000E+04
(PID.TID 0000.0001)     ;
(PID.TID 0000.0001) omega =   /* Angular velocity ( rad/s ) */
(PID.TID 0000.0001)                 7.292123516990375E-05
(PID.TID 0000.0001)     ;
(PID.TID 0000.0001) f0 =   /* Reference coriolis parameter ( 1/s ) */
(PID.TID 0000.0001)                 1.000000000000000E-04
(PID.TID 0000.0001)     ;
(PID.TID 0000.0001) beta =   /* Beta ( 1/(m.s) ) */
(PID.TID 0000.0001)                 9.999999999999999E-12
(PID.TID 0000.0001)     ;
(PID.TID 0000.0001) freeSurfFac =   /* Implicit free surface factor */
(PID.TID 0000.0001)                 1.000000000000000E+00
(PID.TID 0000.0001)     ;
(PID.TID 0000.0001) implicitFreeSurface =   /* Implicit free surface on/off flag */
(PID.TID 0000.0001)                   T
(PID.TID 0000.0001)     ;
(PID.TID 0000.0001) rigidLid =   /* Rigid lid on/off flag */
(PID.TID 0000.0001)                   F
(PID.TID 0000.0001)     ;
(PID.TID 0000.0001) implicSurfPress =   /* Surface Pressure implicit factor (0-1)*/
(PID.TID 0000.0001)                 1.000000000000000E+00
(PID.TID 0000.0001)     ;
(PID.TID 0000.0001) implicDiv2Dflow =   /* Barot. Flow Div. implicit factor (0-1)*/
(PID.TID 0000.0001)                 1.000000000000000E+00
(PID.TID 0000.0001)     ;
(PID.TID 0000.0001) exactConserv =   /* Exact Volume Conservation on/off flag*/
(PID.TID 0000.0001)                   T
(PID.TID 0000.0001)     ;
(PID.TID 0000.0001) linFSConserveTr =   /* Tracer correction for Lin Free Surface on/off flag*/
(PID.TID 0000.0001)                   F
(PID.TID 0000.0001)     ;
(PID.TID 0000.0001) uniformLin_PhiSurf =   /* use uniform Bo_surf on/off flag*/
(PID.TID 0000.0001)                   T
(PID.TID 0000.0001)     ;
(PID.TID 0000.0001) nonlinFreeSurf =   /* Non-linear Free Surf. options (-1,0,1,2,3)*/
(PID.TID 0000.0001)                       4
(PID.TID 0000.0001)     ;
(PID.TID 0000.0001)      -1,0= Off ; 1,2,3= On, 2=+rescale gU,gV, 3=+update cg2d solv.
(PID.TID 0000.0001) hFacInf =   /* lower threshold for hFac (nonlinFreeSurf only)*/
(PID.TID 0000.0001)                 2.000000000000000E-01
(PID.TID 0000.0001)     ;
(PID.TID 0000.0001) hFacSup =   /* upper threshold for hFac (nonlinFreeSurf only)*/
(PID.TID 0000.0001)                 2.000000000000000E+00
(PID.TID 0000.0001)     ;
(PID.TID 0000.0001) select_rStar = /* r* Vertical coord. options (=0 r coord.; > 0 uses r*) */
(PID.TID 0000.0001)                       2
(PID.TID 0000.0001)     ;
(PID.TID 0000.0001) selectAddFluid = /* option for mass source/sink of fluid (=0: off) */
(PID.TID 0000.0001)                       0
(PID.TID 0000.0001)     ;
(PID.TID 0000.0001) useRealFreshWaterFlux = /* Real Fresh Water Flux on/off flag*/
(PID.TID 0000.0001)                   T
(PID.TID 0000.0001)     ;
(PID.TID 0000.0001) temp_EvPrRn = /* Temp. of Evap/Prec/R (UNSET=use local T)(oC)*/
(PID.TID 0000.0001)                 1.234567000000000E+05
(PID.TID 0000.0001)     ;
(PID.TID 0000.0001) salt_EvPrRn = /* Salin. of Evap/Prec/R (UNSET=use local S)(ppt)*/
(PID.TID 0000.0001)                 0.000000000000000E+00
(PID.TID 0000.0001)     ;
(PID.TID 0000.0001) use3Dsolver = /* use 3-D pressure solver on/off flag */
(PID.TID 0000.0001)                   F
(PID.TID 0000.0001)     ;
(PID.TID 0000.0001) nonHydrostatic =  /* Non-Hydrostatic on/off flag */
(PID.TID 0000.0001)                   F
(PID.TID 0000.0001)     ;
(PID.TID 0000.0001) nh_Am2 = /* Non-Hydrostatic terms scaling factor */
(PID.TID 0000.0001)                 1.000000000000000E+00
(PID.TID 0000.0001)     ;
(PID.TID 0000.0001) quasiHydrostatic = /* Quasi-Hydrostatic on/off flag */
(PID.TID 0000.0001)                   F
(PID.TID 0000.0001)     ;
(PID.TID 0000.0001) momStepping =  /* Momentum equation on/off flag */
(PID.TID 0000.0001)                   T
(PID.TID 0000.0001)     ;
(PID.TID 0000.0001) vectorInvariantMomentum= /* Vector-Invariant Momentum on/off */
(PID.TID 0000.0001)                   T
(PID.TID 0000.0001)     ;
(PID.TID 0000.0001) momAdvection =  /* Momentum advection on/off flag */
(PID.TID 0000.0001)                   T
(PID.TID 0000.0001)     ;
(PID.TID 0000.0001) momViscosity =  /* Momentum viscosity on/off flag */
(PID.TID 0000.0001)                   T
(PID.TID 0000.0001)     ;
(PID.TID 0000.0001) momImplVertAdv =/* Momentum implicit vert. advection on/off*/
(PID.TID 0000.0001)                   F
(PID.TID 0000.0001)     ;
(PID.TID 0000.0001) implicitViscosity = /* Implicit viscosity on/off flag */
(PID.TID 0000.0001)                   F
(PID.TID 0000.0001)     ;
(PID.TID 0000.0001) metricTerms =  /* metric-Terms on/off flag */
(PID.TID 0000.0001)                   F
(PID.TID 0000.0001)     ;
(PID.TID 0000.0001) useNHMTerms = /* Non-Hydrostatic Metric-Terms on/off */
(PID.TID 0000.0001)                   F
(PID.TID 0000.0001)     ;
(PID.TID 0000.0001) useConstantF =  /* use Constant f0 Coriolis flag */
(PID.TID 0000.0001)                   F
(PID.TID 0000.0001)     ;
(PID.TID 0000.0001) useBetaPlaneF = /* use Beta-Plane Coriolis flag */
(PID.TID 0000.0001)                   F
(PID.TID 0000.0001)     ;
(PID.TID 0000.0001) useSphereF  =   /* use Spherical Coriolis flag */
(PID.TID 0000.0001)                   T
(PID.TID 0000.0001)     ;
(PID.TID 0000.0001) use3dCoriolis = /* 3-D Coriolis on/off flag */
(PID.TID 0000.0001)                   F
(PID.TID 0000.0001)     ;
(PID.TID 0000.0001) useCoriolis =  /* Coriolis on/off flag */
(PID.TID 0000.0001)                   T
(PID.TID 0000.0001)     ;
(PID.TID 0000.0001) useCDscheme =  /* CD scheme on/off flag */
(PID.TID 0000.0001)                   F
(PID.TID 0000.0001)     ;
(PID.TID 0000.0001) useJamartWetPoints= /* Coriolis WetPoints method flag */
(PID.TID 0000.0001)                   F
(PID.TID 0000.0001)     ;
(PID.TID 0000.0001) useJamartMomAdv= /* V.I. Non-linear terms Jamart flag */
(PID.TID 0000.0001)                   F
(PID.TID 0000.0001)     ;
(PID.TID 0000.0001) useAbsVorticity= /* Work with f+zeta in Coriolis */
(PID.TID 0000.0001)                   F
(PID.TID 0000.0001)     ;
(PID.TID 0000.0001) selectVortScheme= /* Scheme selector for Vorticity-Term */
(PID.TID 0000.0001)                       1
(PID.TID 0000.0001)    = 0 : enstrophy (Shallow-Water Eq.) conserving scheme by Sadourny, JAS 75
(PID.TID 0000.0001)    = 1 : same as 0 with modified hFac
(PID.TID 0000.0001)    = 2 : energy conserving scheme (used by Sadourny in JAS 75 paper)
(PID.TID 0000.0001)    = 3 : energy (general) and enstrophy (2D, nonDiv.) conserving scheme
(PID.TID 0000.0001)          from Sadourny (Burridge & Haseler, ECMWF Rep.4, 1977)
(PID.TID 0000.0001)     ;
(PID.TID 0000.0001) upwindVorticity= /* Upwind bias vorticity flag */
(PID.TID 0000.0001)                   F
(PID.TID 0000.0001)     ;
(PID.TID 0000.0001) highOrderVorticity= /* High order interp. of vort. flag */
(PID.TID 0000.0001)                   F
(PID.TID 0000.0001)     ;
(PID.TID 0000.0001) upwindShear= /* Upwind vertical Shear advection flag */
(PID.TID 0000.0001)                   F
(PID.TID 0000.0001)     ;
(PID.TID 0000.0001) selectKEscheme= /* Kinetic Energy scheme selector */
(PID.TID 0000.0001)                       0
(PID.TID 0000.0001)     ;
(PID.TID 0000.0001) momForcing =  /* Momentum forcing on/off flag */
(PID.TID 0000.0001)                   T
(PID.TID 0000.0001)     ;
(PID.TID 0000.0001) momPressureForcing =  /* Momentum pressure term on/off flag */
(PID.TID 0000.0001)                   T
(PID.TID 0000.0001)     ;
(PID.TID 0000.0001) implicitIntGravWave= /* Implicit Internal Gravity Wave flag */
(PID.TID 0000.0001)                   F
(PID.TID 0000.0001)     ;
(PID.TID 0000.0001) staggerTimeStep =   /* Stagger time stepping on/off flag */
(PID.TID 0000.0001)                   T
(PID.TID 0000.0001)     ;
(PID.TID 0000.0001) multiDimAdvection =   /* enable/disable Multi-Dim Advection */
(PID.TID 0000.0001)                   T
(PID.TID 0000.0001)     ;
(PID.TID 0000.0001) useMultiDimAdvec =   /* Multi-Dim Advection is/is-not used */
(PID.TID 0000.0001)                   F
(PID.TID 0000.0001)     ;
(PID.TID 0000.0001) implicitDiffusion =/* Implicit Diffusion on/off flag */
(PID.TID 0000.0001)                   T
(PID.TID 0000.0001)     ;
(PID.TID 0000.0001) tempStepping =  /* Temperature equation on/off flag */
(PID.TID 0000.0001)                   T
(PID.TID 0000.0001)     ;
(PID.TID 0000.0001) tempAdvection=  /* Temperature advection on/off flag */
(PID.TID 0000.0001)                   T
(PID.TID 0000.0001)     ;
(PID.TID 0000.0001) tempImplVertAdv =/* Temp. implicit vert. advection on/off */
(PID.TID 0000.0001)                   F
(PID.TID 0000.0001)     ;
(PID.TID 0000.0001) tempForcing  =  /* Temperature forcing on/off flag */
(PID.TID 0000.0001)                   T
(PID.TID 0000.0001)     ;
(PID.TID 0000.0001) tempIsActiveTr = /* Temp. is a dynamically Active Tracer */
(PID.TID 0000.0001)                   T
(PID.TID 0000.0001)     ;
(PID.TID 0000.0001) saltStepping =  /* Salinity equation on/off flag */
(PID.TID 0000.0001)                   T
(PID.TID 0000.0001)     ;
(PID.TID 0000.0001) saltAdvection=  /* Salinity advection on/off flag */
(PID.TID 0000.0001)                   T
(PID.TID 0000.0001)     ;
(PID.TID 0000.0001) saltImplVertAdv =/* Sali. implicit vert. advection on/off */
(PID.TID 0000.0001)                   F
(PID.TID 0000.0001)     ;
(PID.TID 0000.0001) saltForcing  =  /* Salinity forcing on/off flag */
(PID.TID 0000.0001)                   T
(PID.TID 0000.0001)     ;
(PID.TID 0000.0001) saltIsActiveTr = /* Salt  is a dynamically Active Tracer */
(PID.TID 0000.0001)                   T
(PID.TID 0000.0001)     ;
(PID.TID 0000.0001)  readBinaryPrec = /* Precision used for reading binary files */
(PID.TID 0000.0001)                      64
(PID.TID 0000.0001)     ;
(PID.TID 0000.0001) writeBinaryPrec = /* Precision used for writing binary files */
(PID.TID 0000.0001)                      64
(PID.TID 0000.0001)     ;
(PID.TID 0000.0001)  globalFiles = /* write "global" (=not per tile) files */
(PID.TID 0000.0001)                   F
(PID.TID 0000.0001)     ;
(PID.TID 0000.0001)  useSingleCpuIO = /* only master MPI process does I/O */
(PID.TID 0000.0001)                   T
(PID.TID 0000.0001)     ;
(PID.TID 0000.0001)  debugMode  =  /* Debug Mode on/off flag */
(PID.TID 0000.0001)                   F
(PID.TID 0000.0001)     ;
(PID.TID 0000.0001)    debLevA  =  /* 1rst level of debugging */
(PID.TID 0000.0001)                       1
(PID.TID 0000.0001)     ;
(PID.TID 0000.0001)    debLevB  =  /* 2nd  level of debugging */
(PID.TID 0000.0001)                       2
(PID.TID 0000.0001)     ;
(PID.TID 0000.0001)  debugLevel =  /* select debugging level */
(PID.TID 0000.0001)                       1
(PID.TID 0000.0001)     ;
(PID.TID 0000.0001) //
(PID.TID 0000.0001) // Elliptic solver(s) paramters ( PARM02 in namelist )
(PID.TID 0000.0001) //
(PID.TID 0000.0001) cg2dMaxIters =   /* Upper limit on 2d con. grad iterations  */
(PID.TID 0000.0001)                     200
(PID.TID 0000.0001)     ;
(PID.TID 0000.0001) cg2dChkResFreq =   /* 2d con. grad convergence test frequency */
(PID.TID 0000.0001)                       1
(PID.TID 0000.0001)     ;
(PID.TID 0000.0001) cg2dTargetResidual =   /* 2d con. grad target residual  */
(PID.TID 0000.0001)                 1.000000000000000E-07
(PID.TID 0000.0001)     ;
(PID.TID 0000.0001) cg2dTargetResWunit =   /* CG2d target residual [W units] */
(PID.TID 0000.0001)                 1.000000000000000E-14
(PID.TID 0000.0001)     ;
(PID.TID 0000.0001) cg2dPreCondFreq =   /* Freq. for updating cg2d preconditioner */
(PID.TID 0000.0001)                       1
(PID.TID 0000.0001)     ;
(PID.TID 0000.0001) //
(PID.TID 0000.0001) // Time stepping paramters ( PARM03 in namelist )
(PID.TID 0000.0001) //
(PID.TID 0000.0001) deltaTmom =   /* Momentum equation timestep ( s ) */
(PID.TID 0000.0001)                 1.200000000000000E+03
(PID.TID 0000.0001)     ;
(PID.TID 0000.0001) deltaTfreesurf = /* FreeSurface equation timestep ( s ) */
(PID.TID 0000.0001)                 8.640000000000000E+04
(PID.TID 0000.0001)     ;
(PID.TID 0000.0001) dTtracerLev =  /* Tracer equation timestep ( s ) */
(PID.TID 0000.0001)    15 @  8.640000000000000E+04              /* K =  1: 15 */
(PID.TID 0000.0001)     ;
(PID.TID 0000.0001) deltaTClock  =   /* Model clock timestep ( s ) */
(PID.TID 0000.0001)                 8.640000000000000E+04
(PID.TID 0000.0001)     ;
(PID.TID 0000.0001) cAdjFreq =   /* Convective adjustment interval ( s ) */
(PID.TID 0000.0001)                 0.000000000000000E+00
(PID.TID 0000.0001)     ;
(PID.TID 0000.0001) momForcingOutAB = /* =1: take Momentum Forcing out of Adams-Bash. stepping */
(PID.TID 0000.0001)                       1
(PID.TID 0000.0001)     ;
(PID.TID 0000.0001) tracForcingOutAB = /* =1: take T,S,pTr Forcing out of Adams-Bash. stepping */
(PID.TID 0000.0001)                       1
(PID.TID 0000.0001)     ;
(PID.TID 0000.0001) momDissip_In_AB = /* put Dissipation Tendency in Adams-Bash. stepping */
(PID.TID 0000.0001)                   T
(PID.TID 0000.0001)     ;
(PID.TID 0000.0001) doAB_onGtGs = /* apply AB on Tendencies (rather than on T,S)*/
(PID.TID 0000.0001)                   T
(PID.TID 0000.0001)     ;
(PID.TID 0000.0001) abEps =   /* Adams-Bashforth-2 stabilizing weight */
(PID.TID 0000.0001)                 1.000000000000000E-01
(PID.TID 0000.0001)     ;
(PID.TID 0000.0001) pickupStrictlyMatch= /* stop if pickup do not strictly match */
(PID.TID 0000.0001)                   T
(PID.TID 0000.0001)     ;
(PID.TID 0000.0001) nIter0 =   /* Run starting timestep number  */
(PID.TID 0000.0001)                   72000
(PID.TID 0000.0001)     ;
(PID.TID 0000.0001) nTimeSteps =   /* Number of timesteps */
(PID.TID 0000.0001)                      10
(PID.TID 0000.0001)     ;
(PID.TID 0000.0001) baseTime =   /* Model base time ( s ). */
(PID.TID 0000.0001)                 0.000000000000000E+00
(PID.TID 0000.0001)     ;
(PID.TID 0000.0001) startTime =   /* Run start time ( s ). */
(PID.TID 0000.0001)                 6.220800000000000E+09
(PID.TID 0000.0001)     ;
(PID.TID 0000.0001) endTime =   /* Integration ending time ( s ). */
(PID.TID 0000.0001)                 6.221664000000000E+09
(PID.TID 0000.0001)     ;
(PID.TID 0000.0001) pChkPtFreq =   /* Permanent restart/checkpoint file interval ( s ). */
(PID.TID 0000.0001)                 3.110400000000000E+09
(PID.TID 0000.0001)     ;
(PID.TID 0000.0001) chkPtFreq =   /* Rolling restart/checkpoint file interval ( s ). */
(PID.TID 0000.0001)                 1.555200000000000E+08
(PID.TID 0000.0001)     ;
(PID.TID 0000.0001) pickup_write_mdsio =   /* Model IO flag. */
(PID.TID 0000.0001)                   T
(PID.TID 0000.0001)     ;
(PID.TID 0000.0001) pickup_read_mdsio =   /* Model IO flag. */
(PID.TID 0000.0001)                   T
(PID.TID 0000.0001)     ;
(PID.TID 0000.0001) pickup_write_mnc =   /* Model IO flag. */
(PID.TID 0000.0001)                   F
(PID.TID 0000.0001)     ;
(PID.TID 0000.0001) pickup_read_mnc =   /* Model IO flag. */
(PID.TID 0000.0001)                   F
(PID.TID 0000.0001)     ;
(PID.TID 0000.0001) pickup_write_immed =   /* Model IO flag. */
(PID.TID 0000.0001)                   F
(PID.TID 0000.0001)     ;
(PID.TID 0000.0001) writePickupAtEnd =   /* Model IO flag. */
(PID.TID 0000.0001)                   T
(PID.TID 0000.0001)     ;
(PID.TID 0000.0001) dumpFreq =   /* Model state write out interval ( s ). */
(PID.TID 0000.0001)                 0.000000000000000E+00
(PID.TID 0000.0001)     ;
(PID.TID 0000.0001) dumpInitAndLast= /* write out Initial & Last iter. model state */
(PID.TID 0000.0001)                   T
(PID.TID 0000.0001)     ;
(PID.TID 0000.0001) snapshot_mdsio =   /* Model IO flag. */
(PID.TID 0000.0001)                   T
(PID.TID 0000.0001)     ;
(PID.TID 0000.0001) snapshot_mnc =   /* Model IO flag. */
(PID.TID 0000.0001)                   F
(PID.TID 0000.0001)     ;
(PID.TID 0000.0001) monitorFreq =   /* Monitor output interval ( s ). */
(PID.TID 0000.0001)                 1.000000000000000E+00
(PID.TID 0000.0001)     ;
(PID.TID 0000.0001) monitorSelect = /* select group of variables to monitor */
(PID.TID 0000.0001)                       3
(PID.TID 0000.0001)     ;
(PID.TID 0000.0001) monitor_stdio =   /* Model IO flag. */
(PID.TID 0000.0001)                   T
(PID.TID 0000.0001)     ;
(PID.TID 0000.0001) monitor_mnc =   /* Model IO flag. */
(PID.TID 0000.0001)                   F
(PID.TID 0000.0001)     ;
(PID.TID 0000.0001) externForcingPeriod =   /* forcing period (s) */
(PID.TID 0000.0001)                 2.592000000000000E+06
(PID.TID 0000.0001)     ;
(PID.TID 0000.0001) externForcingCycle =   /* period of the cyle (s). */
(PID.TID 0000.0001)                 3.110400000000000E+07
(PID.TID 0000.0001)     ;
(PID.TID 0000.0001) tauThetaClimRelax =   /* relaxation time scale (s) */
(PID.TID 0000.0001)                 0.000000000000000E+00
(PID.TID 0000.0001)     ;
(PID.TID 0000.0001) tauSaltClimRelax =   /* relaxation time scale (s) */
(PID.TID 0000.0001)                 0.000000000000000E+00
(PID.TID 0000.0001)     ;
(PID.TID 0000.0001) latBandClimRelax =   /* max. Lat. where relaxation */
(PID.TID 0000.0001)                 1.800000000000000E+02
(PID.TID 0000.0001)     ;
(PID.TID 0000.0001) //
(PID.TID 0000.0001) // Gridding paramters ( PARM04 in namelist )
(PID.TID 0000.0001) //
(PID.TID 0000.0001) usingCartesianGrid = /* Cartesian coordinates flag ( True/False ) */
(PID.TID 0000.0001)                   F
(PID.TID 0000.0001)     ;
(PID.TID 0000.0001) usingCylindricalGrid = /* Cylindrical coordinates flag ( True/False ) */
(PID.TID 0000.0001)                   F
(PID.TID 0000.0001)     ;
(PID.TID 0000.0001) usingSphericalPolarGrid = /* Spherical coordinates flag ( True/False ) */
(PID.TID 0000.0001)                   F
(PID.TID 0000.0001)     ;
(PID.TID 0000.0001) usingCurvilinearGrid = /* Curvilinear coordinates flag ( True/False ) */
(PID.TID 0000.0001)                   T
(PID.TID 0000.0001)     ;
(PID.TID 0000.0001) Ro_SeaLevel = /* r(1) ( units of r ==  m ) */
(PID.TID 0000.0001)                 0.000000000000000E+00
(PID.TID 0000.0001)     ;
(PID.TID 0000.0001) rkSign =   /* index orientation relative to vertical coordinate */
(PID.TID 0000.0001)                -1.000000000000000E+00
(PID.TID 0000.0001)     ;
(PID.TID 0000.0001) gravitySign = /* gravity orientation relative to vertical coordinate */
(PID.TID 0000.0001)                -1.000000000000000E+00
(PID.TID 0000.0001)     ;
(PID.TID 0000.0001) mass2rUnit = /* convert mass per unit area [kg/m2] to r-units [m] */
(PID.TID 0000.0001)                 9.661835748792270E-04
(PID.TID 0000.0001)     ;
(PID.TID 0000.0001) rUnit2mass = /* convert r-units [m] to mass per unit area [kg/m2] */
(PID.TID 0000.0001)                 1.035000000000000E+03
(PID.TID 0000.0001)     ;
(PID.TID 0000.0001) drC =   /* C spacing ( units of r ) */
(PID.TID 0000.0001)                 2.500000000000000E+01,      /* K =  1 */
(PID.TID 0000.0001)                 6.000000000000000E+01,      /* K =  2 */
(PID.TID 0000.0001)                 8.500000000000000E+01,      /* K =  3 */
(PID.TID 0000.0001)                 1.200000000000000E+02,      /* K =  4 */
(PID.TID 0000.0001)                 1.650000000000000E+02,      /* K =  5 */
(PID.TID 0000.0001)                 2.150000000000000E+02,      /* K =  6 */
(PID.TID 0000.0001)                 2.650000000000000E+02,      /* K =  7 */
(PID.TID 0000.0001)                 3.150000000000000E+02,      /* K =  8 */
(PID.TID 0000.0001)                 3.650000000000000E+02,      /* K =  9 */
(PID.TID 0000.0001)                 4.150000000000000E+02,      /* K = 10 */
(PID.TID 0000.0001)                 4.650000000000000E+02,      /* K = 11 */
(PID.TID 0000.0001)                 5.150000000000000E+02,      /* K = 12 */
(PID.TID 0000.0001)                 5.650000000000000E+02,      /* K = 13 */
(PID.TID 0000.0001)                 6.150000000000000E+02,      /* K = 14 */
(PID.TID 0000.0001)                 6.650000000000000E+02       /* K = 15 */
(PID.TID 0000.0001)     ;
(PID.TID 0000.0001) drF =   /* W spacing ( units of r ) */
(PID.TID 0000.0001)                 5.000000000000000E+01,      /* K =  1 */
(PID.TID 0000.0001)                 7.000000000000000E+01,      /* K =  2 */
(PID.TID 0000.0001)                 1.000000000000000E+02,      /* K =  3 */
(PID.TID 0000.0001)                 1.400000000000000E+02,      /* K =  4 */
(PID.TID 0000.0001)                 1.900000000000000E+02,      /* K =  5 */
(PID.TID 0000.0001)                 2.400000000000000E+02,      /* K =  6 */
(PID.TID 0000.0001)                 2.900000000000000E+02,      /* K =  7 */
(PID.TID 0000.0001)                 3.400000000000000E+02,      /* K =  8 */
(PID.TID 0000.0001)                 3.900000000000000E+02,      /* K =  9 */
(PID.TID 0000.0001)                 4.400000000000000E+02,      /* K = 10 */
(PID.TID 0000.0001)                 4.900000000000000E+02,      /* K = 11 */
(PID.TID 0000.0001)                 5.400000000000000E+02,      /* K = 12 */
(PID.TID 0000.0001)                 5.900000000000000E+02,      /* K = 13 */
(PID.TID 0000.0001)                 6.400000000000000E+02,      /* K = 14 */
(PID.TID 0000.0001)                 6.900000000000000E+02       /* K = 15 */
(PID.TID 0000.0001)     ;
(PID.TID 0000.0001) xgOrigin = /* X-axis origin of West  edge (cartesian: m, lat-lon: deg.) */
(PID.TID 0000.0001)                 0.000000000000000E+00
(PID.TID 0000.0001)     ;
(PID.TID 0000.0001) ygOrigin = /* Y-axis origin of South edge (cartesian: m, lat-lon: deg.) */
(PID.TID 0000.0001)                 0.000000000000000E+00
(PID.TID 0000.0001)     ;
(PID.TID 0000.0001) rSphere =  /* Radius ( ignored - cartesian, m - spherical ) */
(PID.TID 0000.0001)                 6.370000000000000E+06
(PID.TID 0000.0001)     ;
(PID.TID 0000.0001) deepAtmosphere = /* Deep/Shallow Atmosphere flag (True/False) */
(PID.TID 0000.0001)                   F
(PID.TID 0000.0001)     ;
(PID.TID 0000.0001) xC =  /* xC(:,1,:,1) : P-point X coord ( deg. or m if cartesian) */
(PID.TID 0000.0001)                -4.439521994760536E+01,      /* I =  1 */
(PID.TID 0000.0001)                -4.295641272275883E+01,      /* I =  2 */
(PID.TID 0000.0001)                -4.122055553388957E+01,      /* I =  3 */
(PID.TID 0000.0001)      . . .
(PID.TID 0000.0001)                 1.312205555338896E+02,      /* I = 94 */
(PID.TID 0000.0001)                 1.329564127227588E+02,      /* I = 95 */
(PID.TID 0000.0001)                 1.343952199476053E+02,      /* I = 96 */
(PID.TID 0000.0001)                 4.635509675007168E+01,      /* I = 97 */
(PID.TID 0000.0001)                 4.906731228843647E+01,      /* I = 98 */
(PID.TID 0000.0001)                 5.178550688214704E+01,      /* I = 99 */
(PID.TID 0000.0001)      . . .
(PID.TID 0000.0001)                -1.778001716525716E+02,      /* I =190 */
(PID.TID 0000.0001)                -1.779288225675308E+02,      /* I =191 */
(PID.TID 0000.0001)                -1.780367200854751E+02,      /* I =192 */
(PID.TID 0000.0001)                 1.356047800523947E+02,      /* I =193 */
(PID.TID 0000.0001)                 1.358367907661329E+02,      /* I =194 */
(PID.TID 0000.0001)                 1.359720382181193E+02,      /* I =195 */
(PID.TID 0000.0001)      . . .
(PID.TID 0000.0001)                -1.340279617818807E+02,      /* I =286 */
(PID.TID 0000.0001)                -1.341632092338671E+02,      /* I =287 */
(PID.TID 0000.0001)                -1.343952199476053E+02,      /* I =288 */
(PID.TID 0000.0001)                -8.812739148696656E+01,      /* I =289 */
(PID.TID 0000.0001)                -8.820362659721324E+01,      /* I =290 */
(PID.TID 0000.0001)                -8.826768106944316E+01,      /* I =291 */
(PID.TID 0000.0001)      . . .
(PID.TID 0000.0001)                 8.780017165257156E+01,      /* I =382 */
(PID.TID 0000.0001)                 8.792882256753080E+01,      /* I =383 */
(PID.TID 0000.0001)                 8.803672008547504E+01       /* I =384 */
(PID.TID 0000.0001)     ;
(PID.TID 0000.0001) yC =  /* yC(1,:,1,:) : P-point Y coord ( deg. or m if cartesian) */
(PID.TID 0000.0001)                -3.497677942598243E+01,      /* J =  1 */
(PID.TID 0000.0001)                -3.374005967394886E+01,      /* J =  2 */
(PID.TID 0000.0001)                -3.220655175667454E+01,      /* J =  3 */
(PID.TID 0000.0001)                -3.045756348838641E+01,      /* J =  4 */
(PID.TID 0000.0001)                -2.853728129852918E+01,      /* J =  5 */
(PID.TID 0000.0001)                -2.647426640173173E+01,      /* J =  6 */
(PID.TID 0000.0001)                -2.428936657094636E+01,      /* J =  7 */
(PID.TID 0000.0001)                -2.199915808312262E+01,      /* J =  8 */
(PID.TID 0000.0001)                -1.961768597440146E+01,      /* J =  9 */
(PID.TID 0000.0001)                -1.715743888281371E+01,      /* J = 10 */
(PID.TID 0000.0001)                -1.462993396899330E+01,      /* J = 11 */
(PID.TID 0000.0001)                -1.204608340464756E+01,      /* J = 12 */
(PID.TID 0000.0001)                -9.416429130284818E+00,      /* J = 13 */
(PID.TID 0000.0001)                -6.751293662992216E+00,      /* J = 14 */
(PID.TID 0000.0001)                -4.060875511835959E+00,      /* J = 15 */
(PID.TID 0000.0001)                -1.355307764409121E+00       /* J = 16 */
(PID.TID 0000.0001)     ;
(PID.TID 0000.0001) rcoord = /* P-point R coordinate (  units of r ) */
(PID.TID 0000.0001)                -2.500000000000000E+01,      /* K =  1 */
(PID.TID 0000.0001)                -8.500000000000000E+01,      /* K =  2 */
(PID.TID 0000.0001)                -1.700000000000000E+02,      /* K =  3 */
(PID.TID 0000.0001)                -2.900000000000000E+02,      /* K =  4 */
(PID.TID 0000.0001)                -4.550000000000000E+02,      /* K =  5 */
(PID.TID 0000.0001)                -6.700000000000000E+02,      /* K =  6 */
(PID.TID 0000.0001)                -9.350000000000000E+02,      /* K =  7 */
(PID.TID 0000.0001)                -1.250000000000000E+03,      /* K =  8 */
(PID.TID 0000.0001)                -1.615000000000000E+03,      /* K =  9 */
(PID.TID 0000.0001)                -2.030000000000000E+03,      /* K = 10 */
(PID.TID 0000.0001)                -2.495000000000000E+03,      /* K = 11 */
(PID.TID 0000.0001)                -3.010000000000000E+03,      /* K = 12 */
(PID.TID 0000.0001)                -3.575000000000000E+03,      /* K = 13 */
(PID.TID 0000.0001)                -4.190000000000000E+03,      /* K = 14 */
(PID.TID 0000.0001)                -4.855000000000000E+03       /* K = 15 */
(PID.TID 0000.0001)     ;
(PID.TID 0000.0001) rF =   /* W-Interf. R coordinate (  units of r ) */
(PID.TID 0000.0001)                 0.000000000000000E+00,      /* K =  1 */
(PID.TID 0000.0001)                -5.000000000000000E+01,      /* K =  2 */
(PID.TID 0000.0001)                -1.200000000000000E+02,      /* K =  3 */
(PID.TID 0000.0001)                -2.200000000000000E+02,      /* K =  4 */
(PID.TID 0000.0001)                -3.600000000000000E+02,      /* K =  5 */
(PID.TID 0000.0001)                -5.500000000000000E+02,      /* K =  6 */
(PID.TID 0000.0001)                -7.900000000000000E+02,      /* K =  7 */
(PID.TID 0000.0001)                -1.080000000000000E+03,      /* K =  8 */
(PID.TID 0000.0001)                -1.420000000000000E+03,      /* K =  9 */
(PID.TID 0000.0001)                -1.810000000000000E+03,      /* K = 10 */
(PID.TID 0000.0001)                -2.250000000000000E+03,      /* K = 11 */
(PID.TID 0000.0001)                -2.740000000000000E+03,      /* K = 12 */
(PID.TID 0000.0001)                -3.280000000000000E+03,      /* K = 13 */
(PID.TID 0000.0001)                -3.870000000000000E+03,      /* K = 14 */
(PID.TID 0000.0001)                -4.510000000000000E+03,      /* K = 15 */
(PID.TID 0000.0001)                -5.200000000000000E+03       /* K = 16 */
(PID.TID 0000.0001)     ;
(PID.TID 0000.0001) deepFacC = /* deep-model grid factor @ cell-Center (-) */
(PID.TID 0000.0001)    15 @  1.000000000000000E+00              /* K =  1: 15 */
(PID.TID 0000.0001)     ;
(PID.TID 0000.0001) deepFacF = /* deep-model grid factor @ W-Interface (-) */
(PID.TID 0000.0001)    16 @  1.000000000000000E+00              /* K =  1: 16 */
(PID.TID 0000.0001)     ;
(PID.TID 0000.0001) rVel2wUnit = /* convert units: rVel -> wSpeed (=1 if z-coord)*/
(PID.TID 0000.0001)    16 @  1.000000000000000E+00              /* K =  1: 16 */
(PID.TID 0000.0001)     ;
(PID.TID 0000.0001) wUnit2rVel = /* convert units: wSpeed -> rVel (=1 if z-coord)*/
(PID.TID 0000.0001)    16 @  1.000000000000000E+00              /* K =  1: 16 */
(PID.TID 0000.0001)     ;
(PID.TID 0000.0001) dBdrRef = /* Vertical gradient of reference boyancy [(m/s/r)^2)] */
(PID.TID 0000.0001)    15 @  0.000000000000000E+00              /* K =  1: 15 */
(PID.TID 0000.0001)     ;
(PID.TID 0000.0001) rotateGrid = /* use rotated grid ( True/False ) */
(PID.TID 0000.0001)                   F
(PID.TID 0000.0001)     ;
(PID.TID 0000.0001) phiEuler = /* Euler angle, rotation about original z-coordinate [rad] */
(PID.TID 0000.0001)                 0.000000000000000E+00
(PID.TID 0000.0001)     ;
(PID.TID 0000.0001) thetaEuler = /* Euler angle, rotation about new x-coordinate [rad] */
(PID.TID 0000.0001)                 0.000000000000000E+00
(PID.TID 0000.0001)     ;
(PID.TID 0000.0001) psiEuler = /* Euler angle, rotation about new z-coordinate [rad] */
(PID.TID 0000.0001)                 0.000000000000000E+00
(PID.TID 0000.0001)     ;
(PID.TID 0000.0001) dxF =  /* dxF(:,1,:,1) ( units: m ) */
(PID.TID 0000.0001)                 1.202082051331828E+05,      /* I =  1 */
(PID.TID 0000.0001)                 1.563594089971120E+05,      /* I =  2 */
(PID.TID 0000.0001)                 1.835530058121492E+05,      /* I =  3 */
(PID.TID 0000.0001)      . . .
(PID.TID 0000.0001)                 1.835530058121492E+05,      /* I = 94 */
(PID.TID 0000.0001)                 1.563594089971120E+05,      /* I = 95 */
(PID.TID 0000.0001)                 1.202082051331828E+05,      /* I = 96 */
(PID.TID 0000.0001)                 3.012844832048790E+05,      /* I = 97 */
(PID.TID 0000.0001)                 3.017314519159184E+05,      /* I = 98 */
(PID.TID 0000.0001)                 3.026061571839506E+05,      /* I = 99 */
(PID.TID 0000.0001)      . . .
(PID.TID 0000.0001)                 3.026061571839506E+05,      /* I =190 */
(PID.TID 0000.0001)                 3.017314519159184E+05,      /* I =191 */
(PID.TID 0000.0001)                 3.012844832048790E+05,      /* I =192 */
(PID.TID 0000.0001)                 1.202082051331828E+05,      /* I =193 */
(PID.TID 0000.0001)                 1.563594089971120E+05,      /* I =194 */
(PID.TID 0000.0001)                 1.835530058121492E+05,      /* I =195 */
(PID.TID 0000.0001)      . . .
(PID.TID 0000.0001)                 1.835530058121492E+05,      /* I =286 */
(PID.TID 0000.0001)                 1.563594089971120E+05,      /* I =287 */
(PID.TID 0000.0001)                 1.202082051331828E+05,      /* I =288 */
(PID.TID 0000.0001)                 3.012844832048790E+05,      /* I =289 */
(PID.TID 0000.0001)                 3.017314519159184E+05,      /* I =290 */
(PID.TID 0000.0001)                 3.026061571839506E+05,      /* I =291 */
(PID.TID 0000.0001)      . . .
(PID.TID 0000.0001)                 3.026061571839506E+05,      /* I =382 */
(PID.TID 0000.0001)                 3.017314519159184E+05,      /* I =383 */
(PID.TID 0000.0001)                 3.012844832048790E+05       /* I =384 */
(PID.TID 0000.0001)     ;
(PID.TID 0000.0001) dxF =  /* dxF(1,:,1,:) ( units: m ) */
(PID.TID 0000.0001)                 1.202082051331828E+05,      /* J =  1 */
(PID.TID 0000.0001)                 1.572908084538706E+05,      /* J =  2 */
(PID.TID 0000.0001)                 1.840412227747703E+05,      /* J =  3 */
(PID.TID 0000.0001)                 2.048868197919576E+05,      /* J =  4 */
(PID.TID 0000.0001)                 2.220405216043041E+05,      /* J =  5 */
(PID.TID 0000.0001)                 2.365892017348392E+05,      /* J =  6 */
(PID.TID 0000.0001)                 2.491250781852558E+05,      /* J =  7 */
(PID.TID 0000.0001)                 2.599949918261881E+05,      /* J =  8 */
(PID.TID 0000.0001)                 2.694110134598581E+05,      /* J =  9 */
(PID.TID 0000.0001)                 2.775055554645015E+05,      /* J = 10 */
(PID.TID 0000.0001)                 2.843615645344775E+05,      /* J = 11 */
(PID.TID 0000.0001)                 2.900303768613599E+05,      /* J = 12 */
(PID.TID 0000.0001)                 2.945429307892709E+05,      /* J = 13 */
(PID.TID 0000.0001)                 2.979171143158405E+05,      /* J = 14 */
(PID.TID 0000.0001)                 3.001626787528886E+05,      /* J = 15 */
(PID.TID 0000.0001)                 3.012844832048790E+05       /* J = 16 */
(PID.TID 0000.0001)     ;
(PID.TID 0000.0001) dyF =  /* dyF(:,1,:,1) ( units: m ) */
(PID.TID 0000.0001)                 1.202082051331828E+05,      /* I =  1 */
(PID.TID 0000.0001)                 1.572908084538706E+05,      /* I =  2 */
(PID.TID 0000.0001)                 1.840412227747703E+05,      /* I =  3 */
(PID.TID 0000.0001)      . . .
(PID.TID 0000.0001)                 1.840412227747703E+05,      /* I = 94 */
(PID.TID 0000.0001)                 1.572908084538706E+05,      /* I = 95 */
(PID.TID 0000.0001)                 1.202082051331828E+05,      /* I = 96 */
(PID.TID 0000.0001)                 3.012190981969055E+05,      /* I = 97 */
(PID.TID 0000.0001)                 3.016675528553907E+05,      /* I = 98 */
(PID.TID 0000.0001)                 3.025451404065074E+05,      /* I = 99 */
(PID.TID 0000.0001)      . . .
(PID.TID 0000.0001)                 3.025451404065074E+05,      /* I =190 */
(PID.TID 0000.0001)                 3.016675528553907E+05,      /* I =191 */
(PID.TID 0000.0001)                 3.012190981969055E+05,      /* I =192 */
(PID.TID 0000.0001)                 1.202082051331828E+05,      /* I =193 */
(PID.TID 0000.0001)                 1.572908084538706E+05,      /* I =194 */
(PID.TID 0000.0001)                 1.840412227747703E+05,      /* I =195 */
(PID.TID 0000.0001)      . . .
(PID.TID 0000.0001)                 1.840412227747703E+05,      /* I =286 */
(PID.TID 0000.0001)                 1.572908084538706E+05,      /* I =287 */
(PID.TID 0000.0001)                 1.202082051331828E+05,      /* I =288 */
(PID.TID 0000.0001)                 3.012190981969055E+05,      /* I =289 */
(PID.TID 0000.0001)                 3.016675528553907E+05,      /* I =290 */
(PID.TID 0000.0001)                 3.025451404065074E+05,      /* I =291 */
(PID.TID 0000.0001)      . . .
(PID.TID 0000.0001)                 3.025451404065074E+05,      /* I =382 */
(PID.TID 0000.0001)                 3.016675528553907E+05,      /* I =383 */
(PID.TID 0000.0001)                 3.012190981969055E+05       /* I =384 */
(PID.TID 0000.0001)     ;
(PID.TID 0000.0001) dyF =  /* dyF(1,:,1,:) ( units: m ) */
(PID.TID 0000.0001)                 1.202082051331828E+05,      /* J =  1 */
(PID.TID 0000.0001)                 1.563594089971120E+05,      /* J =  2 */
(PID.TID 0000.0001)                 1.835530058121492E+05,      /* J =  3 */
(PID.TID 0000.0001)                 2.045883481718707E+05,      /* J =  4 */
(PID.TID 0000.0001)                 2.218350349844185E+05,      /* J =  5 */
(PID.TID 0000.0001)                 2.364352994647058E+05,      /* J =  6 */
(PID.TID 0000.0001)                 2.490022710862746E+05,      /* J =  7 */
(PID.TID 0000.0001)                 2.598919724358304E+05,      /* J =  8 */
(PID.TID 0000.0001)                 2.693210245495156E+05,      /* J =  9 */
(PID.TID 0000.0001)                 2.774243179696503E+05,      /* J = 10 */
(PID.TID 0000.0001)                 2.842862532064524E+05,      /* J = 11 */
(PID.TID 0000.0001)                 2.899590699694043E+05,      /* J = 12 */
(PID.TID 0000.0001)                 2.944742915095688E+05,      /* J = 13 */
(PID.TID 0000.0001)                 2.978501920522794E+05,      /* J = 14 */
(PID.TID 0000.0001)                 3.000967749619962E+05,      /* J = 15 */
(PID.TID 0000.0001)                 3.012190981969055E+05       /* J = 16 */
(PID.TID 0000.0001)     ;
(PID.TID 0000.0001) dxG =  /* dxG(:,1,:,1) ( units: m ) */
(PID.TID 0000.0001)                 1.009837800879055E+05,      /* I =  1 */
(PID.TID 0000.0001)                 1.534505834330338E+05,      /* I =  2 */
(PID.TID 0000.0001)                 1.823321598773926E+05,      /* I =  3 */
(PID.TID 0000.0001)      . . .
(PID.TID 0000.0001)                 1.823321598773926E+05,      /* I = 94 */
(PID.TID 0000.0001)                 1.534505834330338E+05,      /* I = 95 */
(PID.TID 0000.0001)                 1.009837800879055E+05,      /* I = 96 */
(PID.TID 0000.0001)                 3.014246674484008E+05,      /* I = 97 */
(PID.TID 0000.0001)                 3.018694497480782E+05,      /* I = 98 */
(PID.TID 0000.0001)                 3.027399364062562E+05,      /* I = 99 */
(PID.TID 0000.0001)      . . .
(PID.TID 0000.0001)                 3.027399364062562E+05,      /* I =190 */
(PID.TID 0000.0001)                 3.018694497480782E+05,      /* I =191 */
(PID.TID 0000.0001)                 3.014246674484008E+05,      /* I =192 */
(PID.TID 0000.0001)                 1.009837800879055E+05,      /* I =193 */
(PID.TID 0000.0001)                 1.534505834330338E+05,      /* I =194 */
(PID.TID 0000.0001)                 1.823321598773926E+05,      /* I =195 */
(PID.TID 0000.0001)      . . .
(PID.TID 0000.0001)                 1.823321598773926E+05,      /* I =286 */
(PID.TID 0000.0001)                 1.534505834330338E+05,      /* I =287 */
(PID.TID 0000.0001)                 1.009837800879055E+05,      /* I =288 */
(PID.TID 0000.0001)                 3.014246674484008E+05,      /* I =289 */
(PID.TID 0000.0001)                 3.018694497480782E+05,      /* I =290 */
(PID.TID 0000.0001)                 3.027399364062562E+05,      /* I =291 */
(PID.TID 0000.0001)      . . .
(PID.TID 0000.0001)                 3.027399364062562E+05,      /* I =382 */
(PID.TID 0000.0001)                 3.018694497480782E+05,      /* I =383 */
(PID.TID 0000.0001)                 3.014246674484008E+05       /* I =384 */
(PID.TID 0000.0001)     ;
(PID.TID 0000.0001) dxG =  /* dxG(1,:,1,:) ( units: m ) */
(PID.TID 0000.0001)                 1.009837800879055E+05,      /* J =  1 */
(PID.TID 0000.0001)                 1.403701524205398E+05,      /* J =  2 */
(PID.TID 0000.0001)                 1.716197227386011E+05,      /* J =  3 */
(PID.TID 0000.0001)                 1.950254041626018E+05,      /* J =  4 */
(PID.TID 0000.0001)                 2.138410773065497E+05,      /* J =  5 */
(PID.TID 0000.0001)                 2.295958105911512E+05,      /* J =  6 */
(PID.TID 0000.0001)                 2.430829951739083E+05,      /* J =  7 */
(PID.TID 0000.0001)                 2.547526806712889E+05,      /* J =  8 */
(PID.TID 0000.0001)                 2.648750305193301E+05,      /* J =  9 */
(PID.TID 0000.0001)                 2.736173771018112E+05,      /* J = 10 */
(PID.TID 0000.0001)                 2.810845823202647E+05,      /* J = 11 */
(PID.TID 0000.0001)                 2.873420591008078E+05,      /* J = 12 */
(PID.TID 0000.0001)                 2.924298293668651E+05,      /* J = 13 */
(PID.TID 0000.0001)                 2.963715635865306E+05,      /* J = 14 */
(PID.TID 0000.0001)                 2.991805843171258E+05,      /* J = 15 */
(PID.TID 0000.0001)                 3.008638765647886E+05       /* J = 16 */
(PID.TID 0000.0001)     ;
(PID.TID 0000.0001) dyG =  /* dyG(:,1,:,1) ( units: m ) */
(PID.TID 0000.0001)                 1.009837800879055E+05,      /* I =  1 */
(PID.TID 0000.0001)                 1.403701524205398E+05,      /* I =  2 */
(PID.TID 0000.0001)                 1.716197227386011E+05,      /* I =  3 */
(PID.TID 0000.0001)      . . .
(PID.TID 0000.0001)                 1.950254041626018E+05,      /* I = 94 */
(PID.TID 0000.0001)                 1.716197227386011E+05,      /* I = 95 */
(PID.TID 0000.0001)                 1.403701524205398E+05,      /* I = 96 */
(PID.TID 0000.0001)                 3.011625828699101E+05,      /* I = 97 */
(PID.TID 0000.0001)                 3.013880313304323E+05,      /* I = 98 */
(PID.TID 0000.0001)                 3.020546438966793E+05,      /* I = 99 */
(PID.TID 0000.0001)      . . .
(PID.TID 0000.0001)                 3.031337933484788E+05,      /* I =190 */
(PID.TID 0000.0001)                 3.020546438966793E+05,      /* I =191 */
(PID.TID 0000.0001)                 3.013880313304323E+05,      /* I =192 */
(PID.TID 0000.0001)                 1.009837800879055E+05,      /* I =193 */
(PID.TID 0000.0001)                 1.403701524205398E+05,      /* I =194 */
(PID.TID 0000.0001)                 1.716197227386011E+05,      /* I =195 */
(PID.TID 0000.0001)      . . .
(PID.TID 0000.0001)                 1.950254041626018E+05,      /* I =286 */
(PID.TID 0000.0001)                 1.716197227386011E+05,      /* I =287 */
(PID.TID 0000.0001)                 1.403701524205398E+05,      /* I =288 */
(PID.TID 0000.0001)                 3.011625828699101E+05,      /* I =289 */
(PID.TID 0000.0001)                 3.013880313304323E+05,      /* I =290 */
(PID.TID 0000.0001)                 3.020546438966793E+05,      /* I =291 */
(PID.TID 0000.0001)      . . .
(PID.TID 0000.0001)                 3.031337933484788E+05,      /* I =382 */
(PID.TID 0000.0001)                 3.020546438966793E+05,      /* I =383 */
(PID.TID 0000.0001)                 3.013880313304323E+05       /* I =384 */
(PID.TID 0000.0001)     ;
(PID.TID 0000.0001) dyG =  /* dyG(1,:,1,:) ( units: m ) */
(PID.TID 0000.0001)                 1.009837800879055E+05,      /* J =  1 */
(PID.TID 0000.0001)                 1.534505834330338E+05,      /* J =  2 */
(PID.TID 0000.0001)                 1.823321598773926E+05,      /* J =  3 */
(PID.TID 0000.0001)                 2.038999045536999E+05,      /* J =  4 */
(PID.TID 0000.0001)                 2.213884732245467E+05,      /* J =  5 */
(PID.TID 0000.0001)                 2.361211699596122E+05,      /* J =  6 */
(PID.TID 0000.0001)                 2.487693460283865E+05,      /* J =  7 */
(PID.TID 0000.0001)                 2.597126963772147E+05,      /* J =  8 */
(PID.TID 0000.0001)                 2.691790288994575E+05,      /* J =  9 */
(PID.TID 0000.0001)                 2.773091043277394E+05,      /* J = 10 */
(PID.TID 0000.0001)                 2.841906470085516E+05,      /* J = 11 */
(PID.TID 0000.0001)                 2.898778860929753E+05,      /* J = 12 */
(PID.TID 0000.0001)                 2.944035815526416E+05,      /* J = 13 */
(PID.TID 0000.0001)                 2.977867909042096E+05,      /* J = 14 */
(PID.TID 0000.0001)                 3.000380090330854E+05,      /* J = 15 */
(PID.TID 0000.0001)                 3.011625828699101E+05       /* J = 16 */
(PID.TID 0000.0001)     ;
(PID.TID 0000.0001) dxC =  /* dxC(:,1,:,1) ( units: m ) */
(PID.TID 0000.0001)                 1.114203141013064E+05,      /* I =  1 */
(PID.TID 0000.0001)                 1.391343389937106E+05,      /* I =  2 */
(PID.TID 0000.0001)                 1.709574999026266E+05,      /* I =  3 */
(PID.TID 0000.0001)      . . .
(PID.TID 0000.0001)                 1.946503699269892E+05,      /* I = 94 */
(PID.TID 0000.0001)                 1.709574999026266E+05,      /* I = 95 */
(PID.TID 0000.0001)                 1.391343389937106E+05,      /* I = 96 */
(PID.TID 0000.0001)                 3.012281885409289E+05,      /* I = 97 */
(PID.TID 0000.0001)                 3.014528555318499E+05,      /* I = 98 */
(PID.TID 0000.0001)                 3.021172674809921E+05,      /* I = 99 */
(PID.TID 0000.0001)      . . .
(PID.TID 0000.0001)                 3.031928954490276E+05,      /* I =190 */
(PID.TID 0000.0001)                 3.021172674809921E+05,      /* I =191 */
(PID.TID 0000.0001)                 3.014528555318499E+05,      /* I =192 */
(PID.TID 0000.0001)                 1.114203141013064E+05,      /* I =193 */
(PID.TID 0000.0001)                 1.391343389937106E+05,      /* I =194 */
(PID.TID 0000.0001)                 1.709574999026266E+05,      /* I =195 */
(PID.TID 0000.0001)      . . .
(PID.TID 0000.0001)                 1.946503699269892E+05,      /* I =286 */
(PID.TID 0000.0001)                 1.709574999026266E+05,      /* I =287 */
(PID.TID 0000.0001)                 1.391343389937106E+05,      /* I =288 */
(PID.TID 0000.0001)                 3.012281885409289E+05,      /* I =289 */
(PID.TID 0000.0001)                 3.014528555318499E+05,      /* I =290 */
(PID.TID 0000.0001)                 3.021172674809921E+05,      /* I =291 */
(PID.TID 0000.0001)      . . .
(PID.TID 0000.0001)                 3.031928954490276E+05,      /* I =382 */
(PID.TID 0000.0001)                 3.021172674809921E+05,      /* I =383 */
(PID.TID 0000.0001)                 3.014528555318499E+05       /* I =384 */
(PID.TID 0000.0001)     ;
(PID.TID 0000.0001) dxC =  /* dxC(1,:,1,:) ( units: m ) */
(PID.TID 0000.0001)                 1.114203141013064E+05,      /* J =  1 */
(PID.TID 0000.0001)                 1.549545757850771E+05,      /* J =  2 */
(PID.TID 0000.0001)                 1.829777599966776E+05,      /* J =  3 */
(PID.TID 0000.0001)                 2.042717761866506E+05,      /* J =  4 */
(PID.TID 0000.0001)                 2.216367828252819E+05,      /* J =  5 */
(PID.TID 0000.0001)                 2.363029564123586E+05,      /* J =  6 */
(PID.TID 0000.0001)                 2.489113743322025E+05,      /* J =  7 */
(PID.TID 0000.0001)                 2.598293319150326E+05,      /* J =  8 */
(PID.TID 0000.0001)                 2.692787333338535E+05,      /* J =  9 */
(PID.TID 0000.0001)                 2.773972106720365E+05,      /* J = 10 */
(PID.TID 0000.0001)                 2.842706922224557E+05,      /* J = 11 */
(PID.TID 0000.0001)                 2.899523122489403E+05,      /* J = 12 */
(PID.TID 0000.0001)                 2.944741346384699E+05,      /* J = 13 */
(PID.TID 0000.0001)                 2.978547649292580E+05,      /* J = 14 */
(PID.TID 0000.0001)                 3.001044073506459E+05,      /* J = 15 */
(PID.TID 0000.0001)                 3.012281885409289E+05       /* J = 16 */
(PID.TID 0000.0001)     ;
(PID.TID 0000.0001) dyC =  /* dyC(:,1,:,1) ( units: m ) */
(PID.TID 0000.0001)                 1.114203141013064E+05,      /* I =  1 */
(PID.TID 0000.0001)                 1.549545757850771E+05,      /* I =  2 */
(PID.TID 0000.0001)                 1.829777599966776E+05,      /* I =  3 */
(PID.TID 0000.0001)      . . .
(PID.TID 0000.0001)                 1.829777599966776E+05,      /* I = 94 */
(PID.TID 0000.0001)                 1.549545757850771E+05,      /* I = 95 */
(PID.TID 0000.0001)                 1.114203141013064E+05,      /* I = 96 */
(PID.TID 0000.0001)                 3.013593857228136E+05,      /* I = 97 */
(PID.TID 0000.0001)                 3.018056440786431E+05,      /* I = 98 */
(PID.TID 0000.0001)                 3.026789946729719E+05,      /* I = 99 */
(PID.TID 0000.0001)      . . .
(PID.TID 0000.0001)                 3.026789946729719E+05,      /* I =190 */
(PID.TID 0000.0001)                 3.018056440786431E+05,      /* I =191 */
(PID.TID 0000.0001)                 3.013593857228136E+05,      /* I =192 */
(PID.TID 0000.0001)                 1.114203141013064E+05,      /* I =193 */
(PID.TID 0000.0001)                 1.549545757850771E+05,      /* I =194 */
(PID.TID 0000.0001)                 1.829777599966776E+05,      /* I =195 */
(PID.TID 0000.0001)      . . .
(PID.TID 0000.0001)                 1.829777599966776E+05,      /* I =286 */
(PID.TID 0000.0001)                 1.549545757850771E+05,      /* I =287 */
(PID.TID 0000.0001)                 1.114203141013064E+05,      /* I =288 */
(PID.TID 0000.0001)                 3.013593857228136E+05,      /* I =289 */
(PID.TID 0000.0001)                 3.018056440786431E+05,      /* I =290 */
(PID.TID 0000.0001)                 3.026789946729719E+05,      /* I =291 */
(PID.TID 0000.0001)      . . .
(PID.TID 0000.0001)                 3.026789946729719E+05,      /* I =382 */
(PID.TID 0000.0001)                 3.018056440786431E+05,      /* I =383 */
(PID.TID 0000.0001)                 3.013593857228136E+05       /* I =384 */
(PID.TID 0000.0001)     ;
(PID.TID 0000.0001) dyC =  /* dyC(1,:,1,:) ( units: m ) */
(PID.TID 0000.0001)                 1.114203141013064E+05,      /* J =  1 */
(PID.TID 0000.0001)                 1.391343389937106E+05,      /* J =  2 */
(PID.TID 0000.0001)                 1.709574999026266E+05,      /* J =  3 */
(PID.TID 0000.0001)                 1.946503699269892E+05,      /* J =  4 */
(PID.TID 0000.0001)                 2.135964483342134E+05,      /* J =  5 */
(PID.TID 0000.0001)                 2.294195678257306E+05,      /* J =  6 */
(PID.TID 0000.0001)                 2.429464709770498E+05,      /* J =  7 */
(PID.TID 0000.0001)                 2.546408290696998E+05,      /* J =  8 */
(PID.TID 0000.0001)                 2.647791839299727E+05,      /* J =  9 */
(PID.TID 0000.0001)                 2.735321911346108E+05,      /* J = 10 */
(PID.TID 0000.0001)                 2.810065951609633E+05,      /* J = 11 */
(PID.TID 0000.0001)                 2.872689479506990E+05,      /* J = 12 */
(PID.TID 0000.0001)                 2.923599955312932E+05,      /* J = 13 */
(PID.TID 0000.0001)                 2.963038832565530E+05,      /* J = 14 */
(PID.TID 0000.0001)                 2.991142470004740E+05,      /* J = 15 */
(PID.TID 0000.0001)                 3.007982711627968E+05       /* J = 16 */
(PID.TID 0000.0001)     ;
(PID.TID 0000.0001) dxV =  /* dxV(:,1,:,1) ( units: m ) */
(PID.TID 0000.0001)                 8.015229982413632E+04,      /* I =  1 */
(PID.TID 0000.0001)                 1.333130744933864E+05,      /* I =  2 */
(PID.TID 0000.0001)                 1.691744868129062E+05,      /* I =  3 */
(PID.TID 0000.0001)      . . .
(PID.TID 0000.0001)                 1.937548202849060E+05,      /* I = 94 */
(PID.TID 0000.0001)                 1.691744868129062E+05,      /* I = 95 */
(PID.TID 0000.0001)                 1.333130744933864E+05,      /* I = 96 */
(PID.TID 0000.0001)                 3.013686170436881E+05,      /* I = 97 */
(PID.TID 0000.0001)                 3.015922136961168E+05,      /* I = 98 */
(PID.TID 0000.0001)                 3.022533948177109E+05,      /* I = 99 */
(PID.TID 0000.0001)      . . .
(PID.TID 0000.0001)                 3.033238888442880E+05,      /* I =190 */
(PID.TID 0000.0001)                 3.022533948177109E+05,      /* I =191 */
(PID.TID 0000.0001)                 3.015922136961168E+05,      /* I =192 */
(PID.TID 0000.0001)                 8.015229982413632E+04,      /* I =193 */
(PID.TID 0000.0001)                 1.333130744933864E+05,      /* I =194 */
(PID.TID 0000.0001)                 1.691744868129062E+05,      /* I =195 */
(PID.TID 0000.0001)      . . .
(PID.TID 0000.0001)                 1.937548202849060E+05,      /* I =286 */
(PID.TID 0000.0001)                 1.691744868129062E+05,      /* I =287 */
(PID.TID 0000.0001)                 1.333130744933864E+05,      /* I =288 */
(PID.TID 0000.0001)                 3.013686170436881E+05,      /* I =289 */
(PID.TID 0000.0001)                 3.015922136961168E+05,      /* I =290 */
(PID.TID 0000.0001)                 3.022533948177109E+05,      /* I =291 */
(PID.TID 0000.0001)      . . .
(PID.TID 0000.0001)                 3.033238888442880E+05,      /* I =382 */
(PID.TID 0000.0001)                 3.022533948177109E+05,      /* I =383 */
(PID.TID 0000.0001)                 3.015922136961168E+05       /* I =384 */
(PID.TID 0000.0001)     ;
(PID.TID 0000.0001) dxV =  /* dxV(1,:,1,:) ( units: m ) */
(PID.TID 0000.0001)                 8.015229982413632E+04,      /* J =  1 */
(PID.TID 0000.0001)                 1.362652340208229E+05,      /* J =  2 */
(PID.TID 0000.0001)                 1.701080315742101E+05,      /* J =  3 */
(PID.TID 0000.0001)                 1.942331448101592E+05,      /* J =  4 */
(PID.TID 0000.0001)                 2.133486626971531E+05,      /* J =  5 */
(PID.TID 0000.0001)                 2.292584591272880E+05,      /* J =  6 */
(PID.TID 0000.0001)                 2.428369969078989E+05,      /* J =  7 */
(PID.TID 0000.0001)                 2.545652950875683E+05,      /* J =  8 */
(PID.TID 0000.0001)                 2.647274964828301E+05,      /* J =  9 */
(PID.TID 0000.0001)                 2.734980225206389E+05,      /* J = 10 */
(PID.TID 0000.0001)                 2.809856491525217E+05,      /* J = 11 */
(PID.TID 0000.0001)                 2.872580915202295E+05,      /* J = 12 */
(PID.TID 0000.0001)                 2.923567890694162E+05,      /* J = 13 */
(PID.TID 0000.0001)                 2.963063101754721E+05,      /* J = 14 */
(PID.TID 0000.0001)                 2.991205495886625E+05,      /* J = 15 */
(PID.TID 0000.0001)                 3.008068453676764E+05       /* J = 16 */
(PID.TID 0000.0001)     ;
(PID.TID 0000.0001) dyU =  /* dyU(:,1,:,1) ( units: m ) */
(PID.TID 0000.0001)                 8.015229982413632E+04,      /* I =  1 */
(PID.TID 0000.0001)                 1.362652340208229E+05,      /* I =  2 */
(PID.TID 0000.0001)                 1.701080315742101E+05,      /* I =  3 */
(PID.TID 0000.0001)      . . .
(PID.TID 0000.0001)                 1.942331448101592E+05,      /* I = 94 */
(PID.TID 0000.0001)                 1.701080315742101E+05,      /* I = 95 */
(PID.TID 0000.0001)                 1.362652340208229E+05,      /* I = 96 */
(PID.TID 0000.0001)                 3.013031486919771E+05,      /* I = 97 */
(PID.TID 0000.0001)                 3.015274890091515E+05,      /* I = 98 */
(PID.TID 0000.0001)                 3.021908563699420E+05,      /* I = 99 */
(PID.TID 0000.0001)      . . .
(PID.TID 0000.0001)                 3.032648502024415E+05,      /* I =190 */
(PID.TID 0000.0001)                 3.021908563699420E+05,      /* I =191 */
(PID.TID 0000.0001)                 3.015274890091515E+05,      /* I =192 */
(PID.TID 0000.0001)                 8.015229982413632E+04,      /* I =193 */
(PID.TID 0000.0001)                 1.362652340208229E+05,      /* I =194 */
(PID.TID 0000.0001)                 1.701080315742101E+05,      /* I =195 */
(PID.TID 0000.0001)      . . .
(PID.TID 0000.0001)                 1.942331448101592E+05,      /* I =286 */
(PID.TID 0000.0001)                 1.701080315742101E+05,      /* I =287 */
(PID.TID 0000.0001)                 1.362652340208229E+05,      /* I =288 */
(PID.TID 0000.0001)                 3.013031486919771E+05,      /* I =289 */
(PID.TID 0000.0001)                 3.015274890091515E+05,      /* I =290 */
(PID.TID 0000.0001)                 3.021908563699420E+05,      /* I =291 */
(PID.TID 0000.0001)      . . .
(PID.TID 0000.0001)                 3.032648502024415E+05,      /* I =382 */
(PID.TID 0000.0001)                 3.021908563699420E+05,      /* I =383 */
(PID.TID 0000.0001)                 3.015274890091515E+05       /* I =384 */
(PID.TID 0000.0001)     ;
(PID.TID 0000.0001) dyU =  /* dyU(1,:,1,:) ( units: m ) */
(PID.TID 0000.0001)                 8.015229982413632E+04,      /* J =  1 */
(PID.TID 0000.0001)                 1.333130744933864E+05,      /* J =  2 */
(PID.TID 0000.0001)                 1.691744868129062E+05,      /* J =  3 */
(PID.TID 0000.0001)                 1.937548202849060E+05,      /* J =  4 */
(PID.TID 0000.0001)                 2.130490056267208E+05,      /* J =  5 */
(PID.TID 0000.0001)                 2.290479919481738E+05,      /* J =  6 */
(PID.TID 0000.0001)                 2.426774358027003E+05,      /* J =  7 */
(PID.TID 0000.0001)                 2.544372984215561E+05,      /* J =  8 */
(PID.TID 0000.0001)                 2.646201463834826E+05,      /* J =  9 */
(PID.TID 0000.0001)                 2.734046499619031E+05,      /* J = 10 */
(PID.TID 0000.0001)                 2.809019351693761E+05,      /* J = 11 */
(PID.TID 0000.0001)                 2.871811105274442E+05,      /* J = 12 */
(PID.TID 0000.0001)                 2.922844849381675E+05,      /* J = 13 */
(PID.TID 0000.0001)                 2.962371870847826E+05,      /* J = 14 */
(PID.TID 0000.0001)                 2.990534755671296E+05,      /* J = 15 */
(PID.TID 0000.0001)                 3.007409169495504E+05       /* J = 16 */
(PID.TID 0000.0001)     ;
(PID.TID 0000.0001) rA  =  /* rA (:,1,:,1) ( units: m^2 ) */
(PID.TID 0000.0001)                 1.401900702255611E+10,      /* I =  1 */
(PID.TID 0000.0001)                 2.459906945574446E+10,      /* I =  2 */
(PID.TID 0000.0001)                 3.378518544307869E+10,      /* I =  3 */
(PID.TID 0000.0001)      . . .
(PID.TID 0000.0001)                 3.378518544304265E+10,      /* I = 94 */
(PID.TID 0000.0001)                 2.459906945574446E+10,      /* I = 95 */
(PID.TID 0000.0001)                 1.401900702259215E+10,      /* I = 96 */
(PID.TID 0000.0001)                 9.076111290422060E+10,      /* I = 97 */
(PID.TID 0000.0001)                 9.103111035233499E+10,      /* I = 98 */
(PID.TID 0000.0001)                 9.156064070993231E+10,      /* I = 99 */
(PID.TID 0000.0001)      . . .
(PID.TID 0000.0001)                 9.156064070993231E+10,      /* I =190 */
(PID.TID 0000.0001)                 9.103111035233499E+10,      /* I =191 */
(PID.TID 0000.0001)                 9.076111290418457E+10,      /* I =192 */
(PID.TID 0000.0001)                 1.401900702255611E+10,      /* I =193 */
(PID.TID 0000.0001)                 2.459906945574446E+10,      /* I =194 */
(PID.TID 0000.0001)                 3.378518544307869E+10,      /* I =195 */
(PID.TID 0000.0001)      . . .
(PID.TID 0000.0001)                 3.378518544304265E+10,      /* I =286 */
(PID.TID 0000.0001)                 2.459906945574446E+10,      /* I =287 */
(PID.TID 0000.0001)                 1.401900702259215E+10,      /* I =288 */
(PID.TID 0000.0001)                 9.076111290422060E+10,      /* I =289 */
(PID.TID 0000.0001)                 9.103111035233499E+10,      /* I =290 */
(PID.TID 0000.0001)                 9.156064070993231E+10,      /* I =291 */
(PID.TID 0000.0001)      . . .
(PID.TID 0000.0001)                 9.156064070993231E+10,      /* I =382 */
(PID.TID 0000.0001)                 9.103111035233499E+10,      /* I =383 */
(PID.TID 0000.0001)                 9.076111290418457E+10       /* I =384 */
(PID.TID 0000.0001)     ;
(PID.TID 0000.0001) rA  =  /* rA (1,:,1,:) ( units: m^2 ) */
(PID.TID 0000.0001)                 1.401900702255611E+10,      /* J =  1 */
(PID.TID 0000.0001)                 2.459906945574446E+10,      /* J =  2 */
(PID.TID 0000.0001)                 3.378518544307869E+10,      /* J =  3 */
(PID.TID 0000.0001)                 4.192037169898667E+10,      /* J =  4 */
(PID.TID 0000.0001)                 4.925938996118163E+10,      /* J =  5 */
(PID.TID 0000.0001)                 5.594154126607553E+10,      /* J =  6 */
(PID.TID 0000.0001)                 6.203683527776127E+10,      /* J =  7 */
(PID.TID 0000.0001)                 6.757541173817516E+10,      /* J =  8 */
(PID.TID 0000.0001)                 7.256353271748119E+10,      /* J =  9 */
(PID.TID 0000.0001)                 7.699293007098555E+10,      /* J = 10 */
(PID.TID 0000.0001)                 8.084683449728902E+10,      /* J = 11 */
(PID.TID 0000.0001)                 8.410423102799828E+10,      /* J = 12 */
(PID.TID 0000.0001)                 8.674306976737517E+10,      /* J = 13 */
(PID.TID 0000.0001)                 8.874277443041928E+10,      /* J = 14 */
(PID.TID 0000.0001)                 9.008620045350865E+10,      /* J = 15 */
(PID.TID 0000.0001)                 9.076111290418457E+10       /* J = 16 */
(PID.TID 0000.0001)     ;
(PID.TID 0000.0001) rAw =  /* rAw(:,1,:,1) ( units: m^2 ) */
(PID.TID 0000.0001)                 1.216690346714270E+10,      /* I =  1 */
(PID.TID 0000.0001)                 1.974052138506315E+10,      /* I =  2 */
(PID.TID 0000.0001)                 2.943712825252015E+10,      /* I =  3 */
(PID.TID 0000.0001)      . . .
(PID.TID 0000.0001)                 3.801790263325260E+10,      /* I = 94 */
(PID.TID 0000.0001)                 2.943712825251114E+10,      /* I = 95 */
(PID.TID 0000.0001)                 1.974052138509018E+10,      /* I = 96 */
(PID.TID 0000.0001)                 9.071447638299399E+10,      /* I = 97 */
(PID.TID 0000.0001)                 9.085012105610597E+10,      /* I = 98 */
(PID.TID 0000.0001)                 9.125179254955583E+10,      /* I = 99 */
(PID.TID 0000.0001)      . . .
(PID.TID 0000.0001)                 9.190392048045309E+10,      /* I =190 */
(PID.TID 0000.0001)                 9.125179254954683E+10,      /* I =191 */
(PID.TID 0000.0001)                 9.085012105606993E+10,      /* I =192 */
(PID.TID 0000.0001)                 1.216690346714270E+10,      /* I =193 */
(PID.TID 0000.0001)                 1.974052138506315E+10,      /* I =194 */
(PID.TID 0000.0001)                 2.943712825252015E+10,      /* I =195 */
(PID.TID 0000.0001)      . . .
(PID.TID 0000.0001)                 3.801790263325260E+10,      /* I =286 */
(PID.TID 0000.0001)                 2.943712825251114E+10,      /* I =287 */
(PID.TID 0000.0001)                 1.974052138509018E+10,      /* I =288 */
(PID.TID 0000.0001)                 9.071447638299399E+10,      /* I =289 */
(PID.TID 0000.0001)                 9.085012105610597E+10,      /* I =290 */
(PID.TID 0000.0001)                 9.125179254955583E+10,      /* I =291 */
(PID.TID 0000.0001)      . . .
(PID.TID 0000.0001)                 9.190392048045309E+10,      /* I =382 */
(PID.TID 0000.0001)                 9.125179254954683E+10,      /* I =383 */
(PID.TID 0000.0001)                 9.085012105606993E+10       /* I =384 */
(PID.TID 0000.0001)     ;
(PID.TID 0000.0001) rAw =  /* rAw(1,:,1,:) ( units: m^2 ) */
(PID.TID 0000.0001)                 1.216690346714270E+10,      /* J =  1 */
(PID.TID 0000.0001)                 2.390126200743558E+10,      /* J =  2 */
(PID.TID 0000.0001)                 3.341968103208270E+10,      /* J =  3 */
(PID.TID 0000.0001)                 4.168532893152940E+10,      /* J =  4 */
(PID.TID 0000.0001)                 4.909074590409593E+10,      /* J =  5 */
(PID.TID 0000.0001)                 5.581203765722643E+10,      /* J =  6 */
(PID.TID 0000.0001)                 6.193257577506788E+10,      /* J =  7 */
(PID.TID 0000.0001)                 6.748840226738273E+10,      /* J =  8 */
(PID.TID 0000.0001)                 7.248875782324815E+10,      /* J =  9 */
(PID.TID 0000.0001)                 7.692702995909871E+10,      /* J = 10 */
(PID.TID 0000.0001)                 8.078743937057304E+10,      /* J = 11 */
(PID.TID 0000.0001)                 8.404959656062837E+10,      /* J = 12 */
(PID.TID 0000.0001)                 8.669186205742538E+10,      /* J = 13 */
(PID.TID 0000.0001)                 8.869393350723613E+10,      /* J = 14 */
(PID.TID 0000.0001)                 9.003884657168852E+10,      /* J = 15 */
(PID.TID 0000.0001)                 9.071447638299399E+10       /* J = 16 */
(PID.TID 0000.0001)     ;
(PID.TID 0000.0001) rAs =  /* rAs(:,1,:,1) ( units: m^2 ) */
(PID.TID 0000.0001)                 1.216690346714270E+10,      /* I =  1 */
(PID.TID 0000.0001)                 2.390126200743558E+10,      /* I =  2 */
(PID.TID 0000.0001)                 3.341968103208270E+10,      /* I =  3 */
(PID.TID 0000.0001)      . . .
(PID.TID 0000.0001)                 3.341968103208270E+10,      /* I = 94 */
(PID.TID 0000.0001)                 2.390126200743558E+10,      /* I = 95 */
(PID.TID 0000.0001)                 1.216690346714270E+10,      /* I = 96 */
(PID.TID 0000.0001)                 9.083293515008307E+10,      /* I = 97 */
(PID.TID 0000.0001)                 9.110170898494536E+10,      /* I = 98 */
(PID.TID 0000.0001)                 9.162886297688426E+10,      /* I = 99 */
(PID.TID 0000.0001)      . . .
(PID.TID 0000.0001)                 9.162886297688426E+10,      /* I =190 */
(PID.TID 0000.0001)                 9.110170898494536E+10,      /* I =191 */
(PID.TID 0000.0001)                 9.083293515008307E+10,      /* I =192 */
(PID.TID 0000.0001)                 1.216690346714270E+10,      /* I =193 */
(PID.TID 0000.0001)                 2.390126200743558E+10,      /* I =194 */
(PID.TID 0000.0001)                 3.341968103208270E+10,      /* I =195 */
(PID.TID 0000.0001)      . . .
(PID.TID 0000.0001)                 3.341968103208270E+10,      /* I =286 */
(PID.TID 0000.0001)                 2.390126200743558E+10,      /* I =287 */
(PID.TID 0000.0001)                 1.216690346714270E+10,      /* I =288 */
(PID.TID 0000.0001)                 9.083293515008307E+10,      /* I =289 */
(PID.TID 0000.0001)                 9.110170898494536E+10,      /* I =290 */
(PID.TID 0000.0001)                 9.162886297688426E+10,      /* I =291 */
(PID.TID 0000.0001)      . . .
(PID.TID 0000.0001)                 9.162886297688426E+10,      /* I =382 */
(PID.TID 0000.0001)                 9.110170898494536E+10,      /* I =383 */
(PID.TID 0000.0001)                 9.083293515008307E+10       /* I =384 */
(PID.TID 0000.0001)     ;
(PID.TID 0000.0001) rAs =  /* rAs(1,:,1,:) ( units: m^2 ) */
(PID.TID 0000.0001)                 1.216690346714270E+10,      /* J =  1 */
(PID.TID 0000.0001)                 1.974052138506315E+10,      /* J =  2 */
(PID.TID 0000.0001)                 2.943712825252015E+10,      /* J =  3 */
(PID.TID 0000.0001)                 3.801790263324359E+10,      /* J =  4 */
(PID.TID 0000.0001)                 4.571243814189866E+10,      /* J =  5 */
(PID.TID 0000.0001)                 5.269930713599979E+10,      /* J =  6 */
(PID.TID 0000.0001)                 5.907428494299063E+10,      /* J =  7 */
(PID.TID 0000.0001)                 6.488320895111514E+10,      /* J =  8 */
(PID.TID 0000.0001)                 7.014205907741882E+10,      /* J =  9 */
(PID.TID 0000.0001)                 7.484854821847499E+10,      /* J = 10 */
(PID.TID 0000.0001)                 7.898934631431560E+10,      /* J = 11 */
(PID.TID 0000.0001)                 8.254500894894537E+10,      /* J = 12 */
(PID.TID 0000.0001)                 8.549360686473492E+10,      /* J = 13 */
(PID.TID 0000.0001)                 8.781353403175085E+10,      /* J = 14 */
(PID.TID 0000.0001)                 8.948571540392021E+10,      /* J = 15 */
(PID.TID 0000.0001)                 9.049530583086168E+10       /* J = 16 */
(PID.TID 0000.0001)     ;
(PID.TID 0000.0001) globalArea = /* Integrated horizontal Area (m^2) */
(PID.TID 0000.0001)                 3.638867375081599E+14
(PID.TID 0000.0001)     ;
(PID.TID 0000.0001) // =======================================================
(PID.TID 0000.0001) // End of Model config. summary
(PID.TID 0000.0001) // =======================================================
(PID.TID 0000.0001) 
(PID.TID 0000.0001) == Packages configuration : Check & print summary ==
(PID.TID 0000.0001) 
(PID.TID 0000.0001) GAD_CHECK: #define ALLOW_GENERIC_ADVDIFF
(PID.TID 0000.0001) GMREDI_CHECK: #define GMREDI
(PID.TID 0000.0001) GM_AdvForm =     /* if FALSE => use SkewFlux Form */
(PID.TID 0000.0001)                   F
(PID.TID 0000.0001)     ;
(PID.TID 0000.0001) GM_InMomAsStress = /* if TRUE => apply as Eddy Stress */
(PID.TID 0000.0001)                   F
(PID.TID 0000.0001)     ;
(PID.TID 0000.0001) GM_AdvSeparate = /* Calc Bolus & Euler Adv. separately */
(PID.TID 0000.0001)                   F
(PID.TID 0000.0001)     ;
(PID.TID 0000.0001) GM_ExtraDiag =   /* Tensor Extra Diag (line 1&2) non 0 */
(PID.TID 0000.0001)                   F
(PID.TID 0000.0001)     ;
(PID.TID 0000.0001) GM_isopycK =    /* Background Isopyc. Diffusivity [m^2/s] */
(PID.TID 0000.0001)                 8.000000000000000E+02
(PID.TID 0000.0001)     ;
(PID.TID 0000.0001) GM_skewflx*K =  /* Background GM_SkewFlx Diffusivity [m^2/s] */
(PID.TID 0000.0001)                 8.000000000000000E+02
(PID.TID 0000.0001)     ;
(PID.TID 0000.0001) GM_advec*K =    /* Backg. GM-Advec(=Bolus) Diffusivity [m^2/s]*/
(PID.TID 0000.0001)                 0.000000000000000E+00
(PID.TID 0000.0001)     ;
(PID.TID 0000.0001) GM_Kmin_horiz = /* Minimum Horizontal Diffusivity [m^2/s] */
(PID.TID 0000.0001)                 0.000000000000000E+00
(PID.TID 0000.0001)     ;
(PID.TID 0000.0001) GM_Visbeck_alpha = /* Visbeck alpha coeff. [-] */
(PID.TID 0000.0001)                 0.000000000000000E+00
(PID.TID 0000.0001)     ;
(PID.TID 0000.0001) GM_Small_Number =  /* epsilon used in slope calc */
(PID.TID 0000.0001)                 9.999999999999999E-21
(PID.TID 0000.0001)     ;
(PID.TID 0000.0001) GM_slopeSqCutoff = /* Slope^2 cut-off value */
(PID.TID 0000.0001)                 1.000000000000000E+48
(PID.TID 0000.0001)     ;
(PID.TID 0000.0001) GM_taper_scheme =  /* Type of Tapering/Clipping scheme */
(PID.TID 0000.0001)               'gkw91                                   '
(PID.TID 0000.0001)     ;
(PID.TID 0000.0001) GM_maxSlope =  /* Maximum Slope (Tapering/Clipping) */
(PID.TID 0000.0001)                 1.000000000000000E-02
(PID.TID 0000.0001)     ;
(PID.TID 0000.0001) GM_facTrL2dz = /* Minimum Trans.Layer Thick. (factor of dz) */
(PID.TID 0000.0001)                 1.000000000000000E+00
(PID.TID 0000.0001)     ;
(PID.TID 0000.0001) GM_facTrL2ML = /* Max.Trans.Layer Thick. (factor of MxL Depth)*/
(PID.TID 0000.0001)                 5.000000000000000E+00
(PID.TID 0000.0001)     ;
(PID.TID 0000.0001) GM_maxTransLay = /* Maximum Transition Layer Thickness [m] */
(PID.TID 0000.0001)                 5.000000000000000E+02
(PID.TID 0000.0001)     ;
(PID.TID 0000.0001) THSICE_CHECK: #define THSICE
(PID.TID 0000.0001) SEAICE_CHECK: #define ALLOW_SEAICE
(PID.TID 0000.0001) // =======================================================
(PID.TID 0000.0001) // CONFIG_CHECK : Normal End
(PID.TID 0000.0001) // =======================================================
(PID.TID 0000.0001) 
(PID.TID 0000.0001)  MDS_READ_META: opening file: pickup.0000072000.meta
(PID.TID 0000.0001)  nRecords = 123 ; filePrec =  64 ; fileIter =     72000
(PID.TID 0000.0001)     nDims =   2 , dims:
(PID.TID 0000.0001)    1: 192   1 192
(PID.TID 0000.0001)    2:  32   1  32
(PID.TID 0000.0001)     nFlds =  11 , nFl3D =   8 , fields:
(PID.TID 0000.0001)  >Uvel    < >GuNm1   < >Vvel    < >GvNm1   < >Theta   < >GtNm1   < >Salt    < >GsNm1   < >EtaN    < >dEtaHdt < >EtaH    <
(PID.TID 0000.0001)   nTimRec =   0 , timeList:
(PID.TID 0000.0001) READ_MFLDS_3D_RL: read field: "Uvel    ", #   1 in fldList, rec=   1
(PID.TID 0000.0001)  MDS_READ_FIELD: opening global file: pickup.0000072000
(PID.TID 0000.0001) READ_MFLDS_3D_RL: read field: "Vvel    ", #   3 in fldList, rec=   3
(PID.TID 0000.0001)  MDS_READ_FIELD: opening global file: pickup.0000072000
(PID.TID 0000.0001) READ_MFLDS_3D_RL: read field: "Theta   ", #   5 in fldList, rec=   5
(PID.TID 0000.0001)  MDS_READ_FIELD: opening global file: pickup.0000072000
(PID.TID 0000.0001) READ_MFLDS_3D_RL: read field: "Salt    ", #   7 in fldList, rec=   7
(PID.TID 0000.0001)  MDS_READ_FIELD: opening global file: pickup.0000072000
(PID.TID 0000.0001) READ_MFLDS_3D_RL: read field: "GuNm1   ", #   2 in fldList, rec=   2
(PID.TID 0000.0001)  MDS_READ_FIELD: opening global file: pickup.0000072000
(PID.TID 0000.0001) READ_MFLDS_3D_RL: read field: "GvNm1   ", #   4 in fldList, rec=   4
(PID.TID 0000.0001)  MDS_READ_FIELD: opening global file: pickup.0000072000
(PID.TID 0000.0001) READ_MFLDS_3D_RL: read field: "GtNm1   ", #   6 in fldList, rec=   6
(PID.TID 0000.0001)  MDS_READ_FIELD: opening global file: pickup.0000072000
(PID.TID 0000.0001) READ_MFLDS_3D_RL: read field: "GsNm1   ", #   8 in fldList, rec=   8
(PID.TID 0000.0001)  MDS_READ_FIELD: opening global file: pickup.0000072000
(PID.TID 0000.0001) READ_MFLDS_3D_RL: read field: "EtaN    ", #   9 in fldList, rec= 121
(PID.TID 0000.0001)  MDS_READ_FIELD: opening global file: pickup.0000072000
(PID.TID 0000.0001) READ_MFLDS_3D_RL: read field: "dEtaHdt ", #  10 in fldList, rec= 122
(PID.TID 0000.0001)  MDS_READ_FIELD: opening global file: pickup.0000072000
(PID.TID 0000.0001) READ_MFLDS_3D_RL: read field: "EtaH    ", #  11 in fldList, rec= 123
(PID.TID 0000.0001)  MDS_READ_FIELD: opening global file: pickup.0000072000
(PID.TID 0000.0001) READ_MFLDS_CHECK: - normal end ; reset MFLDS file-name: pickup.0000072000
(PID.TID 0000.0001)  write diagnostics summary to file ioUnit:      6
Iter.Nb:     72000 ; Time(s):  6.2208000000000E+09
------------------------------------------------------------------------
2D/3D diagnostics: Number of lists:     1
------------------------------------------------------------------------
listId=    1 ; file name: surfDiag
 nFlds, nActive,       freq     &     phase        , nLev               
   12  |   12  |1555200000.000000         0.000000 |   1
 levels:   1
 diag# | name   |   ipt  |  iMate | kLev|   count |   mate.C|           
    23 |ETAN    |      1 |      0 |   1 |       0 |
    24 |ETANSQ  |      2 |      0 |   1 |       0 |
    25 |DETADT2 |      3 |      0 |   1 |       0 |
    69 |PHIBOT  |      4 |      0 |   1 |       0 |
    70 |PHIBOTSQ|      5 |      0 |   1 |       0 |
    75 |oceTAUX |      6 |      7 |   1 |       0 |       0 |
    76 |oceTAUY |      7 |      6 |   1 |       0 |       0 |
    81 |oceQnet |      8 |      0 |   1 |       0 |
    80 |oceSflux|      9 |      0 |   1 |       0 |
    79 |oceFWflx|     10 |      0 |   1 |       0 |
    84 |TRELAX  |     11 |      0 |   1 |       0 |
    85 |SRELAX  |     12 |      0 |   1 |       0 |
------------------------------------------------------------------------
Global & Regional Statistics diagnostics: Number of lists:     2
------------------------------------------------------------------------
listId=   1 ; file name: dynStDiag
 nFlds, nActive,       freq     &     phase        |                    
    8  |    8  |    864000.000000         0.000000 |
 Regions:   0
 diag# | name   |   ipt  |  iMate |    Volume   |   mate-Vol. |         
    23 |ETAN    |      1 |      0 | 0.00000E+00 |
    30 |UVEL    |      2 |      0 | 0.00000E+00 |
    31 |VVEL    |     17 |      0 | 0.00000E+00 |
    32 |WVEL    |     32 |      0 | 0.00000E+00 |
    26 |THETA   |     47 |      0 | 0.00000E+00 |
    27 |SALT    |     62 |      0 | 0.00000E+00 |
    74 |CONVADJ |     77 |      0 | 0.00000E+00 |
    25 |DETADT2 |     92 |      0 | 0.00000E+00 |
------------------------------------------------------------------------
listId=   2 ; file name: thSIceStDiag
 nFlds, nActive,       freq     &     phase        |                    
   16  |   17  |    864000.000000         0.000000 |
 Regions:   0  1  3
 diag# | name   |   ipt  |  iMate |    Volume   |   mate-Vol. |         
   212 |SI_Fract|     93 |      0 | 0.00000E+00 |
   213 |SI_Thick|     94 |     93 | 0.00000E+00 | 0.00000E+00 |
   214 |SI_SnowH|     95 |     93 | 0.00000E+00 | 0.00000E+00 |
   215 |SI_Tsrf |     96 |     93 | 0.00000E+00 | 0.00000E+00 |
   216 |SI_Tice1|     97 |     93 | 0.00000E+00 | 0.00000E+00 |
   217 |SI_Tice2|     98 |     93 | 0.00000E+00 | 0.00000E+00 |
   218 |SI_Qice1|     99 |     94 | 0.00000E+00 | 0.00000E+00 |
   219 |SI_Qice2|    100 |     94 | 0.00000E+00 | 0.00000E+00 |
   223 |SIsnwPrc|    101 |    102 | 0.00000E+00 | 0.00000E+00 |
   222 |SIalbedo|    103 |    102 | 0.00000E+00 | 0.00000E+00 |
   220 |SIsnwAge|    104 |      0 | 0.00000E+00 |
   226 |SIflx2oc|    105 |      0 | 0.00000E+00 |
   227 |SIfrw2oc|    106 |      0 | 0.00000E+00 |
   228 |SIsaltFx|    107 |      0 | 0.00000E+00 |
   224 |SIflxAtm|    108 |      0 | 0.00000E+00 |
   225 |SIfrwAtm|    109 |      0 | 0.00000E+00 |
   221 |SI_FrcFx|    102 |      0 | 0.00000E+00 |
------------------------------------------------------------------------
(PID.TID 0000.0001)  MDS_READ_META: opening file: pickup_seaice.0000072000.meta
(PID.TID 0000.0001)  nRecords =  15 ; filePrec =  64 ; fileIter =     72000
(PID.TID 0000.0001)     nDims =   2 , dims:
(PID.TID 0000.0001)    1: 192   1 192
(PID.TID 0000.0001)    2:  32   1  32
(PID.TID 0000.0001)     nFlds =  15 , nFl3D =   0 , fields:
(PID.TID 0000.0001)  >siTICE  < >siYNEG  < >siHSNOW < >siUICE  < >siUICE_2< >siUICE_3< >siVICE  < >siVICE_2< >siVICE_3< >siHEFF  < >siHEFF_2< >siHEFF_3< >siAREA  < >siAREA_2< >siAREA_3<
(PID.TID 0000.0001)   nTimRec =   0 , timeList:
(PID.TID 0000.0001) READ_MFLDS_LEV_RL: read field: "siUICE  ", #   4 in fldList, rec=   4
(PID.TID 0000.0001)  MDS_READ_FIELD: opening global file: pickup_seaice.0000072000
(PID.TID 0000.0001) READ_MFLDS_LEV_RL: read field: "siVICE  ", #   7 in fldList, rec=   7
(PID.TID 0000.0001)  MDS_READ_FIELD: opening global file: pickup_seaice.0000072000
(PID.TID 0000.0001) READ_MFLDS_CHECK: - normal end ; reset MFLDS file-name: pickup_seaice.0000072000
(PID.TID 0000.0001)  MDS_READ_FIELD: opening global file: pickup_ic.0000072000
(PID.TID 0000.0001)  MDS_READ_FIELD: opening global file: pickup_ic.0000072000
(PID.TID 0000.0001)  MDS_READ_FIELD: opening global file: pickup_ic.0000072000
(PID.TID 0000.0001)  MDS_READ_FIELD: opening global file: pickup_ic.0000072000
(PID.TID 0000.0001)  MDS_READ_FIELD: opening global file: pickup_ic.0000072000
(PID.TID 0000.0001)  MDS_READ_FIELD: opening global file: pickup_ic.0000072000
(PID.TID 0000.0001)  MDS_READ_FIELD: opening global file: pickup_ic.0000072000
(PID.TID 0000.0001)  MDS_READ_FIELD: opening global file: pickup_ic.0000072000
(PID.TID 0000.0001)  MDS_READ_FIELD: opening global file: pickup_ic.0000072000
(PID.TID 0000.0001) // =======================================================
(PID.TID 0000.0001) // Model current state
(PID.TID 0000.0001) // =======================================================
(PID.TID 0000.0001) 
(PID.TID 0000.0001) // =======================================================
(PID.TID 0000.0001) // Begin MONITOR dynamic field statistics
(PID.TID 0000.0001) // =======================================================
(PID.TID 0000.0001) %MON time_tsnumber                =                 72000
(PID.TID 0000.0001) %MON time_secondsf                =   6.2208000000000E+09
(PID.TID 0000.0001) %MON dynstat_eta_max              =  -2.2041664480788E+00
(PID.TID 0000.0001) %MON dynstat_eta_min              =  -8.3368186317242E+00
(PID.TID 0000.0001) %MON dynstat_eta_mean             =  -3.2999269019401E+00
(PID.TID 0000.0001) %MON dynstat_eta_sd               =   8.8289254437965E-01
(PID.TID 0000.0001) %MON dynstat_eta_del2             =   2.1057313600866E-02
(PID.TID 0000.0001) %MON dynstat_uvel_max             =   2.1289733821794E-01
(PID.TID 0000.0001) %MON dynstat_uvel_min             =  -2.9128750750933E-01
(PID.TID 0000.0001) %MON dynstat_uvel_mean            =  -5.2860218230237E-04
(PID.TID 0000.0001) %MON dynstat_uvel_sd              =   1.4790330813737E-02
(PID.TID 0000.0001) %MON dynstat_uvel_del2            =   2.0230100988234E-03
(PID.TID 0000.0001) %MON dynstat_vvel_max             =   2.2199184704564E-01
(PID.TID 0000.0001) %MON dynstat_vvel_min             =  -2.0062292421344E-01
(PID.TID 0000.0001) %MON dynstat_vvel_mean            =  -4.0113294365963E-04
(PID.TID 0000.0001) %MON dynstat_vvel_sd              =   1.5242443278796E-02
(PID.TID 0000.0001) %MON dynstat_vvel_del2            =   2.0466613440167E-03
(PID.TID 0000.0001) %MON dynstat_wvel_max             =   1.0124735215525E-04
(PID.TID 0000.0001) %MON dynstat_wvel_min             =  -2.1390867107236E-04
(PID.TID 0000.0001) %MON dynstat_wvel_mean            =  -2.2881662065410E-09
(PID.TID 0000.0001) %MON dynstat_wvel_sd              =   5.3718089817332E-06
(PID.TID 0000.0001) %MON dynstat_wvel_del2            =   1.2758763816948E-06
(PID.TID 0000.0001) %MON dynstat_theta_max            =   3.1190145162975E+01
(PID.TID 0000.0001) %MON dynstat_theta_min            =  -6.6438195213420E+00
(PID.TID 0000.0001) %MON dynstat_theta_mean           =   3.0527437088103E+00
(PID.TID 0000.0001) %MON dynstat_theta_sd             =   4.9948592183898E+00
(PID.TID 0000.0001) %MON dynstat_theta_del2           =   9.7992177980665E-02
(PID.TID 0000.0001) %MON dynstat_salt_max             =   5.9479941764493E+01
(PID.TID 0000.0001) %MON dynstat_salt_min             =   1.7775579847672E+01
(PID.TID 0000.0001) %MON dynstat_salt_mean            =   3.4752520111249E+01
(PID.TID 0000.0001) %MON dynstat_salt_sd              =   4.8912632150922E-01
(PID.TID 0000.0001) %MON dynstat_salt_del2            =   2.4186597302355E-02
(PID.TID 0000.0001) %MON extforcing_qnet_max          =   0.0000000000000E+00
(PID.TID 0000.0001) %MON extforcing_qnet_min          =   0.0000000000000E+00
(PID.TID 0000.0001) %MON extforcing_qnet_mean         =   0.0000000000000E+00
(PID.TID 0000.0001) %MON extforcing_qnet_sd           =   0.0000000000000E+00
(PID.TID 0000.0001) %MON extforcing_qnet_del2         =   0.0000000000000E+00
(PID.TID 0000.0001) %MON extforcing_qsw_max           =   0.0000000000000E+00
(PID.TID 0000.0001) %MON extforcing_qsw_min           =   0.0000000000000E+00
(PID.TID 0000.0001) %MON extforcing_qsw_mean          =   0.0000000000000E+00
(PID.TID 0000.0001) %MON extforcing_qsw_sd            =   0.0000000000000E+00
(PID.TID 0000.0001) %MON extforcing_qsw_del2          =   0.0000000000000E+00
(PID.TID 0000.0001) %MON extforcing_empmr_max         =   0.0000000000000E+00
(PID.TID 0000.0001) %MON extforcing_empmr_min         =   0.0000000000000E+00
(PID.TID 0000.0001) %MON extforcing_empmr_mean        =   0.0000000000000E+00
(PID.TID 0000.0001) %MON extforcing_empmr_sd          =   0.0000000000000E+00
(PID.TID 0000.0001) %MON extforcing_empmr_del2        =   0.0000000000000E+00
(PID.TID 0000.0001) %MON advcfl_uvel_max              =   8.3923803824552E-02
(PID.TID 0000.0001) %MON advcfl_vvel_max              =   8.3304632405312E-02
(PID.TID 0000.0001) %MON advcfl_wvel_max              =   6.9742298794914E-02
(PID.TID 0000.0001) %MON advcfl_W_hf_max              =   7.7160082019468E-02
(PID.TID 0000.0001) %MON pe_b_mean                    =   1.5559232407148E-02
(PID.TID 0000.0001) %MON ke_max                       =   4.1915507392132E-02
(PID.TID 0000.0001) %MON ke_mean                      =   2.0848176851410E-04
(PID.TID 0000.0001) %MON ke_vol                       =   1.3386015893205E+18
(PID.TID 0000.0001) %MON vort_r_min                   =  -1.2262915518822E-06
(PID.TID 0000.0001) %MON vort_r_max                   =   1.3011966935743E-06
(PID.TID 0000.0001) %MON vort_a_mean                  =  -2.0549865324846E-05
(PID.TID 0000.0001) %MON vort_a_sd                    =   7.5259723723248E-05
(PID.TID 0000.0001) %MON vort_p_mean                  =  -2.4806340990730E-05
(PID.TID 0000.0001) %MON vort_p_sd                    =   1.2827605093522E-04
(PID.TID 0000.0001) %MON surfExpan_theta_mean         =   4.0484606368574E-08
(PID.TID 0000.0001) %MON surfExpan_salt_mean          =   2.1717823146781E-08
(PID.TID 0000.0001) // =======================================================
(PID.TID 0000.0001) // End MONITOR dynamic field statistics
(PID.TID 0000.0001) // =======================================================
(PID.TID 0000.0001) // =======================================================
(PID.TID 0000.0001) // Begin MONITOR SEAICE statistics
(PID.TID 0000.0001) // =======================================================
(PID.TID 0000.0001) %MON seaice_tsnumber              =                 72000
(PID.TID 0000.0001) %MON seaice_time_sec              =   6.2208000000000E+09
(PID.TID 0000.0001) %MON seaice_area_max              =   0.0000000000000E+00
(PID.TID 0000.0001) %MON seaice_area_min              =   0.0000000000000E+00
(PID.TID 0000.0001) %MON seaice_area_mean             =   0.0000000000000E+00
(PID.TID 0000.0001) %MON seaice_area_sd               =   0.0000000000000E+00
(PID.TID 0000.0001) %MON seaice_area_del2             =   0.0000000000000E+00
(PID.TID 0000.0001) %MON seaice_heff_max              =   0.0000000000000E+00
(PID.TID 0000.0001) %MON seaice_heff_min              =   0.0000000000000E+00
(PID.TID 0000.0001) %MON seaice_heff_mean             =   0.0000000000000E+00
(PID.TID 0000.0001) %MON seaice_heff_sd               =   0.0000000000000E+00
(PID.TID 0000.0001) %MON seaice_heff_del2             =   0.0000000000000E+00
(PID.TID 0000.0001) %MON seaice_hsnow_max             =   0.0000000000000E+00
(PID.TID 0000.0001) %MON seaice_hsnow_min             =   0.0000000000000E+00
(PID.TID 0000.0001) %MON seaice_hsnow_mean            =   0.0000000000000E+00
(PID.TID 0000.0001) %MON seaice_hsnow_sd              =   0.0000000000000E+00
(PID.TID 0000.0001) %MON seaice_hsnow_del2            =   0.0000000000000E+00
(PID.TID 0000.0001) // =======================================================
(PID.TID 0000.0001) // End MONITOR SEAICE statistics
(PID.TID 0000.0001) // =======================================================
(PID.TID 0000.0001) // =======================================================
(PID.TID 0000.0001) // Begin MONITOR Therm.SeaIce statistics
(PID.TID 0000.0001) // =======================================================
(PID.TID 0000.0001) %MON thSI_time_sec                =   6.2208000000000E+09
(PID.TID 0000.0001) %MON thSI_Ice_Area_G              =   1.7206271940734E+13
(PID.TID 0000.0001) %MON thSI_Ice_Area_S              =   5.1016066833079E+12
(PID.TID 0000.0001) %MON thSI_Ice_Area_N              =   1.2104665257426E+13
(PID.TID 0000.0001) %MON thSI_IceH_ave_G              =   1.7800858094400E+00
(PID.TID 0000.0001) %MON thSI_IceH_ave_S              =   1.1728590647515E+00
(PID.TID 0000.0001) %MON thSI_IceH_ave_N              =   2.0360063122466E+00
(PID.TID 0000.0001) %MON thSI_IceH_max_S              =   2.1255881149091E+00
(PID.TID 0000.0001) %MON thSI_IceH_max_N              =   5.2011996894964E+00
(PID.TID 0000.0001) %MON thSI_SnwH_ave_G              =   2.1269949323472E-01
(PID.TID 0000.0001) %MON thSI_SnwH_ave_S              =   1.9888283136179E-01
(PID.TID 0000.0001) %MON thSI_SnwH_ave_N              =   2.1852263439996E-01
(PID.TID 0000.0001) %MON thSI_SnwH_max_S              =   5.9283040406778E-01
(PID.TID 0000.0001) %MON thSI_SnwH_max_N              =   4.1790381367362E-01
(PID.TID 0000.0001) %MON thSI_TotEnerg_G              =  -9.9886623916783E+21
(PID.TID 0000.0001) %MON thSI_Tsrf_ave_G              =  -1.8445854447864E+01
(PID.TID 0000.0001) %MON thSI_Tsrf_ave_S              =  -3.8760911421441E-02
(PID.TID 0000.0001) %MON thSI_Tsrf_ave_N              =  -2.6203669258000E+01
(PID.TID 0000.0001) %MON thSI_Tsrf_min_S              =  -5.2845038213976E+00
(PID.TID 0000.0001) %MON thSI_Tsrf_min_N              =  -3.2727398211857E+01
(PID.TID 0000.0001) %MON thSI_Tsrf_max_S              =   0.0000000000000E+00
(PID.TID 0000.0001) %MON thSI_Tsrf_max_N              =  -4.8044712786252E+00
(PID.TID 0000.0001) %MON thSI_Tic1_ave_G              =  -1.0584109855350E+01
(PID.TID 0000.0001) %MON thSI_Tic1_ave_S              =  -1.4295367171650E+00
(PID.TID 0000.0001) %MON thSI_Tic1_ave_N              =  -1.2806698014557E+01
(PID.TID 0000.0001) %MON thSI_Tic1_min_S              =  -2.5949045859691E+00
(PID.TID 0000.0001) %MON thSI_Tic1_min_N              =  -1.8478200386422E+01
(PID.TID 0000.0001) %MON thSI_Tic1_max_S              =  -1.4464428426653E-01
(PID.TID 0000.0001) %MON thSI_Tic1_max_N              =  -3.0301966761158E+00
(PID.TID 0000.0001) %MON thSI_Tic2_ave_G              =  -4.5788968374079E+00
(PID.TID 0000.0001) %MON thSI_Tic2_ave_S              =  -1.6694991036604E+00
(PID.TID 0000.0001) %MON thSI_Tic2_ave_N              =  -5.2852534152454E+00
(PID.TID 0000.0001) %MON thSI_Tic2_min_S              =  -2.1090282405800E+00
(PID.TID 0000.0001) %MON thSI_Tic2_min_N              =  -7.7121049316683E+00
(PID.TID 0000.0001) %MON thSI_Tic2_max_S              =  -9.8260428530282E-01
(PID.TID 0000.0001) %MON thSI_Tic2_max_N              =  -2.2118503675029E+00
(PID.TID 0000.0001) // =======================================================
(PID.TID 0000.0001) // End MONITOR Therm.SeaIce statistics
(PID.TID 0000.0001) // =======================================================
(PID.TID 0000.0001)  exf_GetFFieldsRec:
(PID.TID 0000.0001)  exf_GetFFieldsRec: first, changed, fac:   T   F   0.46666667E+00
(PID.TID 0000.0001)  exf_GetFFieldsRec: myiter, count0, count1:  72000     12      1
(PID.TID 0000.0001)  exf_GetFFieldsRec:
(PID.TID 0000.0001)  MDS_READ_FIELD: opening global file: lev_surfT_cs_12m.bin
(PID.TID 0000.0001)  MDS_READ_FIELD: opening global file: lev_surfT_cs_12m.bin
(PID.TID 0000.0001)  exf_GetFFieldsRec:
(PID.TID 0000.0001)  exf_GetFFieldsRec: first, changed, fac:   T   F   0.46666667E+00
(PID.TID 0000.0001)  exf_GetFFieldsRec: myiter, count0, count1:  72000     12      1
(PID.TID 0000.0001)  exf_GetFFieldsRec:
(PID.TID 0000.0001)  MDS_READ_FIELD: opening global file: lev_surfS_cs_12m.bin
(PID.TID 0000.0001)  MDS_READ_FIELD: opening global file: lev_surfS_cs_12m.bin
(PID.TID 0000.0001)  exf_GetFFieldsRec:
(PID.TID 0000.0001)  exf_GetFFieldsRec: first, changed, fac:   T   F   0.46666667E+00
(PID.TID 0000.0001)  exf_GetFFieldsRec: myiter, count0, count1:  72000     12      1
(PID.TID 0000.0001)  exf_GetFFieldsRec:
(PID.TID 0000.0001)  MDS_READ_FIELD: opening global file: trenberth_taux.bin
(PID.TID 0000.0001)  MDS_READ_FIELD: opening global file: trenberth_taux.bin
(PID.TID 0000.0001)  exf_GetFFieldsRec:
(PID.TID 0000.0001)  exf_GetFFieldsRec: first, changed, fac:   T   F   0.46666667E+00
(PID.TID 0000.0001)  exf_GetFFieldsRec: myiter, count0, count1:  72000     12      1
(PID.TID 0000.0001)  exf_GetFFieldsRec:
(PID.TID 0000.0001)  MDS_READ_FIELD: opening global file: trenberth_tauy.bin
(PID.TID 0000.0001)  MDS_READ_FIELD: opening global file: trenberth_tauy.bin
(PID.TID 0000.0001)  exf_GetFFieldsRec:
(PID.TID 0000.0001)  exf_GetFFieldsRec: first, changed, fac:   T   F   0.46666667E+00
(PID.TID 0000.0001)  exf_GetFFieldsRec: myiter, count0, count1:  72000     12      1
(PID.TID 0000.0001)  exf_GetFFieldsRec:
(PID.TID 0000.0001)  MDS_READ_FIELD: opening global file: core_wndSpd_cs32.bin
(PID.TID 0000.0001)  MDS_READ_FIELD: opening global file: core_wndSpd_cs32.bin
(PID.TID 0000.0001)  exf_GetFFieldsRec:
(PID.TID 0000.0001)  exf_GetFFieldsRec: first, changed, fac:   T   F   0.46666667E+00
(PID.TID 0000.0001)  exf_GetFFieldsRec: myiter, count0, count1:  72000     12      1
(PID.TID 0000.0001)  exf_GetFFieldsRec:
(PID.TID 0000.0001)  MDS_READ_FIELD: opening global file: core_t_Air_cs32.bin
(PID.TID 0000.0001)  MDS_READ_FIELD: opening global file: core_t_Air_cs32.bin
(PID.TID 0000.0001)  exf_GetFFieldsRec:
(PID.TID 0000.0001)  exf_GetFFieldsRec: first, changed, fac:   T   F   0.46666667E+00
(PID.TID 0000.0001)  exf_GetFFieldsRec: myiter, count0, count1:  72000     12      1
(PID.TID 0000.0001)  exf_GetFFieldsRec:
(PID.TID 0000.0001)  MDS_READ_FIELD: opening global file: core_q_air_cs32.bin
(PID.TID 0000.0001)  MDS_READ_FIELD: opening global file: core_q_air_cs32.bin
(PID.TID 0000.0001)  exf_GetFFieldsRec:
(PID.TID 0000.0001)  exf_GetFFieldsRec: first, changed, fac:   T   F   0.46666667E+00
(PID.TID 0000.0001)  exf_GetFFieldsRec: myiter, count0, count1:  72000     12      1
(PID.TID 0000.0001)  exf_GetFFieldsRec:
(PID.TID 0000.0001)  MDS_READ_FIELD: opening global file: core_prec_1_cs32.bin
(PID.TID 0000.0001)  MDS_READ_FIELD: opening global file: core_prec_1_cs32.bin
(PID.TID 0000.0001)  exf_GetFFieldsRec:
(PID.TID 0000.0001)  exf_GetFFieldsRec: first, changed, fac:   T   F   0.46666667E+00
(PID.TID 0000.0001)  exf_GetFFieldsRec: myiter, count0, count1:  72000     12      1
(PID.TID 0000.0001)  exf_GetFFieldsRec:
(PID.TID 0000.0001)  MDS_READ_FIELD: opening global file: core_snwP_1_cs32.bin
(PID.TID 0000.0001)  MDS_READ_FIELD: opening global file: core_snwP_1_cs32.bin
(PID.TID 0000.0001)  exf_GetFFieldsRec:
(PID.TID 0000.0001)  exf_GetFFieldsRec: first, changed, fac:   T   F   0.46666667E+00
(PID.TID 0000.0001)  exf_GetFFieldsRec: myiter, count0, count1:  72000     12      1
(PID.TID 0000.0001)  exf_GetFFieldsRec:
(PID.TID 0000.0001)  MDS_READ_FIELD: opening global file: core_dwnSw_cs32.bin
(PID.TID 0000.0001)  MDS_READ_FIELD: opening global file: core_dwnSw_cs32.bin
(PID.TID 0000.0001)  exf_GetFFieldsRec:
(PID.TID 0000.0001)  exf_GetFFieldsRec: first, changed, fac:   T   F   0.46666667E+00
(PID.TID 0000.0001)  exf_GetFFieldsRec: myiter, count0, count1:  72000     12      1
(PID.TID 0000.0001)  exf_GetFFieldsRec:
(PID.TID 0000.0001)  MDS_READ_FIELD: opening global file: core_dwnLw_cs32.bin
(PID.TID 0000.0001)  MDS_READ_FIELD: opening global file: core_dwnLw_cs32.bin
(PID.TID 0000.0001)  exf_GetFFieldsRec:
(PID.TID 0000.0001)  exf_GetFFieldsRec: first, changed, fac:   T   F   0.46666667E+00
(PID.TID 0000.0001)  exf_GetFFieldsRec: myiter, count0, count1:  72000     12      1
(PID.TID 0000.0001)  exf_GetFFieldsRec:
(PID.TID 0000.0001)  MDS_READ_FIELD: opening global file: core_rnof_1_cs32.bin
(PID.TID 0000.0001)  MDS_READ_FIELD: opening global file: core_rnof_1_cs32.bin
 cg2d: Sum(rhs),rhsMax =   2.21862336740965E+03  2.11584528162825E+01
(PID.TID 0000.0001)                    cg2d_init_res =    2.99009923391816E+00
(PID.TID 0000.0001)                       cg2d_iters =    69
(PID.TID 0000.0001)                         cg2d_res =    5.25012686535524E-07
(PID.TID 0000.0001) // =======================================================
(PID.TID 0000.0001) // Begin MONITOR dynamic field statistics
(PID.TID 0000.0001) // =======================================================
(PID.TID 0000.0001) %MON time_tsnumber                =                 72001
(PID.TID 0000.0001) %MON time_secondsf                =   6.2208864000000E+09
(PID.TID 0000.0001) %MON dynstat_eta_max              =  -2.2055760775135E+00
(PID.TID 0000.0001) %MON dynstat_eta_min              =  -8.3399431038229E+00
(PID.TID 0000.0001) %MON dynstat_eta_mean             =  -3.2998540038267E+00
(PID.TID 0000.0001) %MON dynstat_eta_sd               =   8.8215513021713E-01
(PID.TID 0000.0001) %MON dynstat_eta_del2             =   2.0897052844126E-02
(PID.TID 0000.0001) %MON dynstat_uvel_max             =   2.1325211700749E-01
(PID.TID 0000.0001) %MON dynstat_uvel_min             =  -2.9096542700547E-01
(PID.TID 0000.0001) %MON dynstat_uvel_mean            =  -5.2819303442501E-04
(PID.TID 0000.0001) %MON dynstat_uvel_sd              =   1.4787103790553E-02
(PID.TID 0000.0001) %MON dynstat_uvel_del2            =   2.0226971641667E-03
(PID.TID 0000.0001) %MON dynstat_vvel_max             =   2.2149917752510E-01
(PID.TID 0000.0001) %MON dynstat_vvel_min             =  -2.0069792826640E-01
(PID.TID 0000.0001) %MON dynstat_vvel_mean            =  -4.0056485395870E-04
(PID.TID 0000.0001) %MON dynstat_vvel_sd              =   1.5244161581093E-02
(PID.TID 0000.0001) %MON dynstat_vvel_del2            =   2.0458120804683E-03
(PID.TID 0000.0001) %MON dynstat_wvel_max             =   1.0161742964530E-04
(PID.TID 0000.0001) %MON dynstat_wvel_min             =  -2.1415256208119E-04
(PID.TID 0000.0001) %MON dynstat_wvel_mean            =  -2.0315198577624E-09
(PID.TID 0000.0001) %MON dynstat_wvel_sd              =   5.3689670620656E-06
(PID.TID 0000.0001) %MON dynstat_wvel_del2            =   1.2756554028714E-06
(PID.TID 0000.0001) %MON dynstat_theta_max            =   3.1202332782773E+01
(PID.TID 0000.0001) %MON dynstat_theta_min            =  -6.6457790841501E+00
(PID.TID 0000.0001) %MON dynstat_theta_mean           =   3.0528230577340E+00
(PID.TID 0000.0001) %MON dynstat_theta_sd             =   4.9949116038530E+00
(PID.TID 0000.0001) %MON dynstat_theta_del2           =   9.8031879968198E-02
(PID.TID 0000.0001) %MON dynstat_salt_max             =   5.9498280469422E+01
(PID.TID 0000.0001) %MON dynstat_salt_min             =   1.7775651683786E+01
(PID.TID 0000.0001) %MON dynstat_salt_mean            =   3.4752519514470E+01
(PID.TID 0000.0001) %MON dynstat_salt_sd              =   4.8912137557224E-01
(PID.TID 0000.0001) %MON dynstat_salt_del2            =   2.4186374886833E-02
(PID.TID 0000.0001) %MON extforcing_qnet_max          =   6.4805890634601E+02
(PID.TID 0000.0001) %MON extforcing_qnet_min          =  -2.5349192946382E+02
(PID.TID 0000.0001) %MON extforcing_qnet_mean         =  -1.4208916700405E+01
(PID.TID 0000.0001) %MON extforcing_qnet_sd           =   1.2435530895728E+02
(PID.TID 0000.0001) %MON extforcing_qnet_del2         =   9.7695827656727E+00
(PID.TID 0000.0001) %MON extforcing_qsw_max           =   0.0000000000000E+00
(PID.TID 0000.0001) %MON extforcing_qsw_min           =  -3.0190327619373E+02
(PID.TID 0000.0001) %MON extforcing_qsw_mean          =  -1.8248229531383E+02
(PID.TID 0000.0001) %MON extforcing_qsw_sd            =   7.9777322339674E+01
(PID.TID 0000.0001) %MON extforcing_qsw_del2          =   2.3052983419969E+00
(PID.TID 0000.0001) %MON extforcing_empmr_max         =   6.7455575851904E-04
(PID.TID 0000.0001) %MON extforcing_empmr_min         =  -4.2691327223375E-04
(PID.TID 0000.0001) %MON extforcing_empmr_mean        =  -8.7325864952978E-07
(PID.TID 0000.0001) %MON extforcing_empmr_sd          =   6.1690448163243E-05
(PID.TID 0000.0001) %MON extforcing_empmr_del2        =   7.7036566892186E-06
(PID.TID 0000.0001) %MON advcfl_uvel_max              =   8.4052944229217E-02
(PID.TID 0000.0001) %MON advcfl_vvel_max              =   8.3467901042661E-02
(PID.TID 0000.0001) %MON advcfl_wvel_max              =   6.9821816467224E-02
(PID.TID 0000.0001) %MON advcfl_W_hf_max              =   7.7248056672592E-02
(PID.TID 0000.0001) %MON pe_b_mean                    =   1.4346327631473E-02
(PID.TID 0000.0001) %MON ke_max                       =   4.1799683997476E-02
(PID.TID 0000.0001) %MON ke_mean                      =   2.0846180565769E-04
(PID.TID 0000.0001) %MON ke_vol                       =   1.3386016457284E+18
(PID.TID 0000.0001) %MON vort_r_min                   =  -1.2307091229902E-06
(PID.TID 0000.0001) %MON vort_r_max                   =   1.2981476583396E-06
(PID.TID 0000.0001) %MON vort_a_mean                  =  -2.0549865324846E-05
(PID.TID 0000.0001) %MON vort_a_sd                    =   7.5259723585512E-05
(PID.TID 0000.0001) %MON vort_p_mean                  =  -2.4806339598239E-05
(PID.TID 0000.0001) %MON vort_p_sd                    =   1.2827603745263E-04
(PID.TID 0000.0001) %MON surfExpan_theta_mean         =   3.9760105200466E-08
(PID.TID 0000.0001) %MON surfExpan_salt_mean          =   2.0990680952416E-08
(PID.TID 0000.0001) // =======================================================
(PID.TID 0000.0001) // End MONITOR dynamic field statistics
(PID.TID 0000.0001) // =======================================================
(PID.TID 0000.0001) // =======================================================
(PID.TID 0000.0001) // Begin MONITOR SEAICE statistics
(PID.TID 0000.0001) // =======================================================
(PID.TID 0000.0001) %MON seaice_tsnumber              =                 72001
(PID.TID 0000.0001) %MON seaice_time_sec              =   6.2208864000000E+09
(PID.TID 0000.0001) %MON seaice_area_max              =   1.0000000000000E+00
(PID.TID 0000.0001) %MON seaice_area_min              =   0.0000000000000E+00
(PID.TID 0000.0001) %MON seaice_area_mean             =   4.7284690996324E-02
(PID.TID 0000.0001) %MON seaice_area_sd               =   1.9106879960869E-01
(PID.TID 0000.0001) %MON seaice_area_del2             =   7.3983526684817E-03
(PID.TID 0000.0001) %MON seaice_heff_max              =   5.2011996894964E+00
(PID.TID 0000.0001) %MON seaice_heff_min              =   0.0000000000000E+00
(PID.TID 0000.0001) %MON seaice_heff_mean             =   8.4170807446311E-02
(PID.TID 0000.0001) %MON seaice_heff_sd               =   4.0052306660252E-01
(PID.TID 0000.0001) %MON seaice_heff_del2             =   1.0810304333867E-02
(PID.TID 0000.0001) %MON seaice_hsnow_max             =   0.0000000000000E+00
(PID.TID 0000.0001) %MON seaice_hsnow_min             =   0.0000000000000E+00
(PID.TID 0000.0001) %MON seaice_hsnow_mean            =   0.0000000000000E+00
(PID.TID 0000.0001) %MON seaice_hsnow_sd              =   0.0000000000000E+00
(PID.TID 0000.0001) %MON seaice_hsnow_del2            =   0.0000000000000E+00
(PID.TID 0000.0001) // =======================================================
(PID.TID 0000.0001) // End MONITOR SEAICE statistics
(PID.TID 0000.0001) // =======================================================
(PID.TID 0000.0001) // =======================================================
(PID.TID 0000.0001) // Begin MONITOR Therm.SeaIce statistics
(PID.TID 0000.0001) // =======================================================
(PID.TID 0000.0001) %MON thSI_time_sec                =   6.2208864000000E+09
(PID.TID 0000.0001) %MON thSI_Ice_Area_G              =   1.7143886218666E+13
(PID.TID 0000.0001) %MON thSI_Ice_Area_S              =   4.9259987656131E+12
(PID.TID 0000.0001) %MON thSI_Ice_Area_N              =   1.2217887453053E+13
(PID.TID 0000.0001) %MON thSI_IceH_ave_G              =   1.7848274110750E+00
(PID.TID 0000.0001) %MON thSI_IceH_ave_S              =   1.1781385477528E+00
(PID.TID 0000.0001) %MON thSI_IceH_ave_N              =   2.0294317752353E+00
(PID.TID 0000.0001) %MON thSI_IceH_max_S              =   2.1240750121351E+00
(PID.TID 0000.0001) %MON thSI_IceH_max_N              =   5.2024011005445E+00
(PID.TID 0000.0001) %MON thSI_SnwH_ave_G              =   2.1124095103763E-01
(PID.TID 0000.0001) %MON thSI_SnwH_ave_S              =   1.9185077173037E-01
(PID.TID 0000.0001) %MON thSI_SnwH_ave_N              =   2.1905866909237E-01
(PID.TID 0000.0001) %MON thSI_SnwH_max_S              =   5.8866729179262E-01
(PID.TID 0000.0001) %MON thSI_SnwH_max_N              =   4.1986969036225E-01
(PID.TID 0000.0001) %MON thSI_TotEnerg_G              =  -9.9769386177800E+21
(PID.TID 0000.0001) %MON thSI_Tsrf_ave_G              =  -1.8620188009732E+01
(PID.TID 0000.0001) %MON thSI_Tsrf_ave_S              =  -3.9721630566594E-02
(PID.TID 0000.0001) %MON thSI_Tsrf_ave_N              =  -2.6111446609059E+01
(PID.TID 0000.0001) %MON thSI_Tsrf_min_S              =  -5.3401045516816E+00
(PID.TID 0000.0001) %MON thSI_Tsrf_min_N              =  -3.2728627625188E+01
(PID.TID 0000.0001) %MON thSI_Tsrf_max_S              =   0.0000000000000E+00
(PID.TID 0000.0001) %MON thSI_Tsrf_max_N              =  -2.6127477647224E+00
(PID.TID 0000.0001) %MON thSI_Tic1_ave_G              =  -1.0650926222587E+01
(PID.TID 0000.0001) %MON thSI_Tic1_ave_S              =  -1.3853835224871E+00
(PID.TID 0000.0001) %MON thSI_Tic1_ave_N              =  -1.2819583631762E+01
(PID.TID 0000.0001) %MON thSI_Tic1_min_S              =  -2.5805843457687E+00
(PID.TID 0000.0001) %MON thSI_Tic1_min_N              =  -1.8461522729271E+01
(PID.TID 0000.0001) %MON thSI_Tic1_max_S              =  -1.6642548333626E-01
(PID.TID 0000.0001) %MON thSI_Tic1_max_N              =  -2.5894947991124E+00
(PID.TID 0000.0001) %MON thSI_Tic2_ave_G              =  -4.6039595142946E+00
(PID.TID 0000.0001) %MON thSI_Tic2_ave_S              =  -1.6534434531179E+00
(PID.TID 0000.0001) %MON thSI_Tic2_ave_N              =  -5.2945459941226E+00
(PID.TID 0000.0001) %MON thSI_Tic2_min_S              =  -2.0937729387764E+00
(PID.TID 0000.0001) %MON thSI_Tic2_min_N              =  -7.7152006901092E+00
(PID.TID 0000.0001) %MON thSI_Tic2_max_S              =  -9.3991263314081E-01
(PID.TID 0000.0001) %MON thSI_Tic2_max_N              =  -2.0645963709243E+00
(PID.TID 0000.0001) // =======================================================
(PID.TID 0000.0001) // End MONITOR Therm.SeaIce statistics
(PID.TID 0000.0001) // =======================================================
(PID.TID 0000.0001)  exf_GetFFieldsRec:
(PID.TID 0000.0001)  exf_GetFFieldsRec: first, changed, fac:   F   F   0.43333333E+00
(PID.TID 0000.0001)  exf_GetFFieldsRec: myiter, count0, count1:  72001     12      1
(PID.TID 0000.0001)  exf_GetFFieldsRec:
(PID.TID 0000.0001)  exf_GetFFieldsRec:
(PID.TID 0000.0001)  exf_GetFFieldsRec: first, changed, fac:   F   F   0.43333333E+00
(PID.TID 0000.0001)  exf_GetFFieldsRec: myiter, count0, count1:  72001     12      1
(PID.TID 0000.0001)  exf_GetFFieldsRec:
(PID.TID 0000.0001)  exf_GetFFieldsRec:
(PID.TID 0000.0001)  exf_GetFFieldsRec: first, changed, fac:   F   F   0.43333333E+00
(PID.TID 0000.0001)  exf_GetFFieldsRec: myiter, count0, count1:  72001     12      1
(PID.TID 0000.0001)  exf_GetFFieldsRec:
(PID.TID 0000.0001)  exf_GetFFieldsRec:
(PID.TID 0000.0001)  exf_GetFFieldsRec: first, changed, fac:   F   F   0.43333333E+00
(PID.TID 0000.0001)  exf_GetFFieldsRec: myiter, count0, count1:  72001     12      1
(PID.TID 0000.0001)  exf_GetFFieldsRec:
(PID.TID 0000.0001)  exf_GetFFieldsRec:
(PID.TID 0000.0001)  exf_GetFFieldsRec: first, changed, fac:   F   F   0.43333333E+00
(PID.TID 0000.0001)  exf_GetFFieldsRec: myiter, count0, count1:  72001     12      1
(PID.TID 0000.0001)  exf_GetFFieldsRec:
(PID.TID 0000.0001)  exf_GetFFieldsRec:
(PID.TID 0000.0001)  exf_GetFFieldsRec: first, changed, fac:   F   F   0.43333333E+00
(PID.TID 0000.0001)  exf_GetFFieldsRec: myiter, count0, count1:  72001     12      1
(PID.TID 0000.0001)  exf_GetFFieldsRec:
(PID.TID 0000.0001)  exf_GetFFieldsRec:
(PID.TID 0000.0001)  exf_GetFFieldsRec: first, changed, fac:   F   F   0.43333333E+00
(PID.TID 0000.0001)  exf_GetFFieldsRec: myiter, count0, count1:  72001     12      1
(PID.TID 0000.0001)  exf_GetFFieldsRec:
(PID.TID 0000.0001)  exf_GetFFieldsRec:
(PID.TID 0000.0001)  exf_GetFFieldsRec: first, changed, fac:   F   F   0.43333333E+00
(PID.TID 0000.0001)  exf_GetFFieldsRec: myiter, count0, count1:  72001     12      1
(PID.TID 0000.0001)  exf_GetFFieldsRec:
(PID.TID 0000.0001)  exf_GetFFieldsRec:
(PID.TID 0000.0001)  exf_GetFFieldsRec: first, changed, fac:   F   F   0.43333333E+00
(PID.TID 0000.0001)  exf_GetFFieldsRec: myiter, count0, count1:  72001     12      1
(PID.TID 0000.0001)  exf_GetFFieldsRec:
(PID.TID 0000.0001)  exf_GetFFieldsRec:
(PID.TID 0000.0001)  exf_GetFFieldsRec: first, changed, fac:   F   F   0.43333333E+00
(PID.TID 0000.0001)  exf_GetFFieldsRec: myiter, count0, count1:  72001     12      1
(PID.TID 0000.0001)  exf_GetFFieldsRec:
(PID.TID 0000.0001)  exf_GetFFieldsRec:
(PID.TID 0000.0001)  exf_GetFFieldsRec: first, changed, fac:   F   F   0.43333333E+00
(PID.TID 0000.0001)  exf_GetFFieldsRec: myiter, count0, count1:  72001     12      1
(PID.TID 0000.0001)  exf_GetFFieldsRec:
(PID.TID 0000.0001)  exf_GetFFieldsRec:
(PID.TID 0000.0001)  exf_GetFFieldsRec: first, changed, fac:   F   F   0.43333333E+00
(PID.TID 0000.0001)  exf_GetFFieldsRec: myiter, count0, count1:  72001     12      1
(PID.TID 0000.0001)  exf_GetFFieldsRec:
 cg2d: Sum(rhs),rhsMax =   2.21856963897839E+03  2.12551254217030E+01
(PID.TID 0000.0001)                    cg2d_init_res =    3.03751750987125E+00
(PID.TID 0000.0001)                       cg2d_iters =    69
(PID.TID 0000.0001)                         cg2d_res =    5.35735974279553E-07
(PID.TID 0000.0001) // =======================================================
(PID.TID 0000.0001) // Begin MONITOR dynamic field statistics
(PID.TID 0000.0001) // =======================================================
(PID.TID 0000.0001) %MON time_tsnumber                =                 72002
(PID.TID 0000.0001) %MON time_secondsf                =   6.2209728000000E+09
(PID.TID 0000.0001) %MON dynstat_eta_max              =  -2.2069872895412E+00
(PID.TID 0000.0001) %MON dynstat_eta_min              =  -8.3430666269609E+00
(PID.TID 0000.0001) %MON dynstat_eta_mean             =  -3.2997740912189E+00
(PID.TID 0000.0001) %MON dynstat_eta_sd               =   8.8144059677404E-01
(PID.TID 0000.0001) %MON dynstat_eta_del2             =   2.0772642980002E-02
(PID.TID 0000.0001) %MON dynstat_uvel_max             =   2.1354190864263E-01
(PID.TID 0000.0001) %MON dynstat_uvel_min             =  -2.9062662238126E-01
(PID.TID 0000.0001) %MON dynstat_uvel_mean            =  -5.2772859525201E-04
(PID.TID 0000.0001) %MON dynstat_uvel_sd              =   1.4783637825125E-02
(PID.TID 0000.0001) %MON dynstat_uvel_del2            =   2.0222349060484E-03
(PID.TID 0000.0001) %MON dynstat_vvel_max             =   2.2094371394965E-01
(PID.TID 0000.0001) %MON dynstat_vvel_min             =  -2.0076670565275E-01
(PID.TID 0000.0001) %MON dynstat_vvel_mean            =  -3.9996008204796E-04
(PID.TID 0000.0001) %MON dynstat_vvel_sd              =   1.5245833733204E-02
(PID.TID 0000.0001) %MON dynstat_vvel_del2            =   2.0450427310438E-03
(PID.TID 0000.0001) %MON dynstat_wvel_max             =   1.0205234917416E-04
(PID.TID 0000.0001) %MON dynstat_wvel_min             =  -2.1430516208965E-04
(PID.TID 0000.0001) %MON dynstat_wvel_mean            =  -1.9889450098567E-09
(PID.TID 0000.0001) %MON dynstat_wvel_sd              =   5.3665913952481E-06
(PID.TID 0000.0001) %MON dynstat_wvel_del2            =   1.2753820194331E-06
(PID.TID 0000.0001) %MON dynstat_theta_max            =   3.1213902059774E+01
(PID.TID 0000.0001) %MON dynstat_theta_min            =  -6.6476117642204E+00
(PID.TID 0000.0001) %MON dynstat_theta_mean           =   3.0529018677040E+00
(PID.TID 0000.0001) %MON dynstat_theta_sd             =   4.9949664951701E+00
(PID.TID 0000.0001) %MON dynstat_theta_del2           =   9.8015608166166E-02
(PID.TID 0000.0001) %MON dynstat_salt_max             =   5.9515105773091E+01
(PID.TID 0000.0001) %MON dynstat_salt_min             =   1.7775712024783E+01
(PID.TID 0000.0001) %MON dynstat_salt_mean            =   3.4752518841422E+01
(PID.TID 0000.0001) %MON dynstat_salt_sd              =   4.8911529434524E-01
(PID.TID 0000.0001) %MON dynstat_salt_del2            =   2.4178837727584E-02
(PID.TID 0000.0001) %MON extforcing_qnet_max          =   6.5115077286415E+02
(PID.TID 0000.0001) %MON extforcing_qnet_min          =  -2.5353163426926E+02
(PID.TID 0000.0001) %MON extforcing_qnet_mean         =  -1.4114807204497E+01
(PID.TID 0000.0001) %MON extforcing_qnet_sd           =   1.2447394705088E+02
(PID.TID 0000.0001) %MON extforcing_qnet_del2         =   9.8279895795977E+00
(PID.TID 0000.0001) %MON extforcing_qsw_max           =   0.0000000000000E+00
(PID.TID 0000.0001) %MON extforcing_qsw_min           =  -3.0189127925792E+02
(PID.TID 0000.0001) %MON extforcing_qsw_mean          =  -1.8261459891692E+02
(PID.TID 0000.0001) %MON extforcing_qsw_sd            =   7.9701446165828E+01
(PID.TID 0000.0001) %MON extforcing_qsw_del2          =   2.2711789947082E+00
(PID.TID 0000.0001) %MON extforcing_empmr_max         =   7.1713354051272E-04
(PID.TID 0000.0001) %MON extforcing_empmr_min         =  -4.2906986317166E-04
(PID.TID 0000.0001) %MON extforcing_empmr_mean        =  -9.5728644758809E-07
(PID.TID 0000.0001) %MON extforcing_empmr_sd          =   6.2063262043034E-05
(PID.TID 0000.0001) %MON extforcing_empmr_del2        =   8.0041658186848E-06
(PID.TID 0000.0001) %MON advcfl_uvel_max              =   8.4185888906596E-02
(PID.TID 0000.0001) %MON advcfl_vvel_max              =   8.3615723817976E-02
(PID.TID 0000.0001) %MON advcfl_wvel_max              =   6.9871569828473E-02
(PID.TID 0000.0001) %MON advcfl_W_hf_max              =   7.7303099709610E-02
(PID.TID 0000.0001) %MON pe_b_mean                    =   1.4345855015067E-02
(PID.TID 0000.0001) %MON ke_max                       =   4.1680148930941E-02
(PID.TID 0000.0001) %MON ke_mean                      =   2.0843791917329E-04
(PID.TID 0000.0001) %MON ke_vol                       =   1.3386016722551E+18
(PID.TID 0000.0001) %MON vort_r_min                   =  -1.2354684168914E-06
(PID.TID 0000.0001) %MON vort_r_max                   =   1.2951435506418E-06
(PID.TID 0000.0001) %MON vort_a_mean                  =  -2.0549865324846E-05
(PID.TID 0000.0001) %MON vort_a_sd                    =   7.5259723451075E-05
(PID.TID 0000.0001) %MON vort_p_mean                  =  -2.4806338768531E-05
(PID.TID 0000.0001) %MON vort_p_sd                    =   1.2827603797668E-04
(PID.TID 0000.0001) %MON surfExpan_theta_mean         =   4.0084818657764E-08
(PID.TID 0000.0001) %MON surfExpan_salt_mean          =   2.1286332287762E-08
(PID.TID 0000.0001) // =======================================================
(PID.TID 0000.0001) // End MONITOR dynamic field statistics
(PID.TID 0000.0001) // =======================================================
(PID.TID 0000.0001) // =======================================================
(PID.TID 0000.0001) // Begin MONITOR SEAICE statistics
(PID.TID 0000.0001) // =======================================================
(PID.TID 0000.0001) %MON seaice_tsnumber              =                 72002
(PID.TID 0000.0001) %MON seaice_time_sec              =   6.2209728000000E+09
(PID.TID 0000.0001) %MON seaice_area_max              =   1.0000000000000E+00
(PID.TID 0000.0001) %MON seaice_area_min              =   0.0000000000000E+00
(PID.TID 0000.0001) %MON seaice_area_mean             =   4.7113248303758E-02
(PID.TID 0000.0001) %MON seaice_area_sd               =   1.9085113480138E-01
(PID.TID 0000.0001) %MON seaice_area_del2             =   7.1390854528643E-03
(PID.TID 0000.0001) %MON seaice_heff_max              =   5.2024011005445E+00
(PID.TID 0000.0001) %MON seaice_heff_min              =   0.0000000000000E+00
(PID.TID 0000.0001) %MON seaice_heff_mean             =   8.4089016997330E-02
(PID.TID 0000.0001) %MON seaice_heff_sd               =   4.0111618458975E-01
(PID.TID 0000.0001) %MON seaice_heff_del2             =   1.0664698785144E-02
(PID.TID 0000.0001) %MON seaice_hsnow_max             =   0.0000000000000E+00
(PID.TID 0000.0001) %MON seaice_hsnow_min             =   0.0000000000000E+00
(PID.TID 0000.0001) %MON seaice_hsnow_mean            =   0.0000000000000E+00
(PID.TID 0000.0001) %MON seaice_hsnow_sd              =   0.0000000000000E+00
(PID.TID 0000.0001) %MON seaice_hsnow_del2            =   0.0000000000000E+00
(PID.TID 0000.0001) // =======================================================
(PID.TID 0000.0001) // End MONITOR SEAICE statistics
(PID.TID 0000.0001) // =======================================================
(PID.TID 0000.0001) // =======================================================
(PID.TID 0000.0001) // Begin MONITOR Therm.SeaIce statistics
(PID.TID 0000.0001) // =======================================================
(PID.TID 0000.0001) %MON thSI_time_sec                =   6.2209728000000E+09
(PID.TID 0000.0001) %MON thSI_Ice_Area_G              =   1.7019209178479E+13
(PID.TID 0000.0001) %MON thSI_Ice_Area_S              =   4.7551616374482E+12
(PID.TID 0000.0001) %MON thSI_Ice_Area_N              =   1.2264047541031E+13
(PID.TID 0000.0001) %MON thSI_IceH_ave_G              =   1.7958510993741E+00
(PID.TID 0000.0001) %MON thSI_IceH_ave_S              =   1.1832248135704E+00
(PID.TID 0000.0001) %MON thSI_IceH_ave_N              =   2.0333858123308E+00
(PID.TID 0000.0001) %MON thSI_IceH_max_S              =   2.1225362005573E+00
(PID.TID 0000.0001) %MON thSI_IceH_max_N              =   5.2036164099141E+00
(PID.TID 0000.0001) %MON thSI_SnwH_ave_G              =   2.1063208517796E-01
(PID.TID 0000.0001) %MON thSI_SnwH_ave_S              =   1.8480240392200E-01
(PID.TID 0000.0001) %MON thSI_SnwH_ave_N              =   2.2064707484633E-01
(PID.TID 0000.0001) %MON thSI_SnwH_max_S              =   5.8445061580472E-01
(PID.TID 0000.0001) %MON thSI_SnwH_max_N              =   4.2236042819248E-01
(PID.TID 0000.0001) %MON thSI_TotEnerg_G              =  -9.9635779076423E+21
(PID.TID 0000.0001) %MON thSI_Tsrf_ave_G              =  -1.8842987016181E+01
(PID.TID 0000.0001) %MON thSI_Tsrf_ave_S              =  -4.0805497341558E-02
(PID.TID 0000.0001) %MON thSI_Tsrf_ave_N              =  -2.6133191327571E+01
(PID.TID 0000.0001) %MON thSI_Tsrf_min_S              =  -5.3955090261696E+00
(PID.TID 0000.0001) %MON thSI_Tsrf_min_N              =  -3.2730107833733E+01
(PID.TID 0000.0001) %MON thSI_Tsrf_max_S              =   0.0000000000000E+00
(PID.TID 0000.0001) %MON thSI_Tsrf_max_N              =  -1.2042882966760E+00
(PID.TID 0000.0001) %MON thSI_Tic1_ave_G              =  -1.0720649894842E+01
(PID.TID 0000.0001) %MON thSI_Tic1_ave_S              =  -1.3397196805318E+00
(PID.TID 0000.0001) %MON thSI_Tic1_ave_N              =  -1.2837181917484E+01
(PID.TID 0000.0001) %MON thSI_Tic1_min_S              =  -2.5676566090755E+00
(PID.TID 0000.0001) %MON thSI_Tic1_min_N              =  -1.8501679298047E+01
(PID.TID 0000.0001) %MON thSI_Tic1_max_S              =  -1.6357561123472E-01
(PID.TID 0000.0001) %MON thSI_Tic1_max_N              =  -2.6271263296220E+00
(PID.TID 0000.0001) %MON thSI_Tic2_ave_G              =  -4.6319119623649E+00
(PID.TID 0000.0001) %MON thSI_Tic2_ave_S              =  -1.6378222101167E+00
(PID.TID 0000.0001) %MON thSI_Tic2_ave_N              =  -5.3074405820778E+00
(PID.TID 0000.0001) %MON thSI_Tic2_min_S              =  -2.0787535792156E+00
(PID.TID 0000.0001) %MON thSI_Tic2_min_N              =  -7.7430258390508E+00
(PID.TID 0000.0001) %MON thSI_Tic2_max_S              =  -8.9845587911711E-01
(PID.TID 0000.0001) %MON thSI_Tic2_max_N              =  -2.0453170543116E+00
(PID.TID 0000.0001) // =======================================================
(PID.TID 0000.0001) // End MONITOR Therm.SeaIce statistics
(PID.TID 0000.0001) // =======================================================
(PID.TID 0000.0001)  exf_GetFFieldsRec:
(PID.TID 0000.0001)  exf_GetFFieldsRec: first, changed, fac:   F   F   0.40000000E+00
(PID.TID 0000.0001)  exf_GetFFieldsRec: myiter, count0, count1:  72002     12      1
(PID.TID 0000.0001)  exf_GetFFieldsRec:
(PID.TID 0000.0001)  exf_GetFFieldsRec:
(PID.TID 0000.0001)  exf_GetFFieldsRec: first, changed, fac:   F   F   0.40000000E+00
(PID.TID 0000.0001)  exf_GetFFieldsRec: myiter, count0, count1:  72002     12      1
(PID.TID 0000.0001)  exf_GetFFieldsRec:
(PID.TID 0000.0001)  exf_GetFFieldsRec:
(PID.TID 0000.0001)  exf_GetFFieldsRec: first, changed, fac:   F   F   0.40000000E+00
(PID.TID 0000.0001)  exf_GetFFieldsRec: myiter, count0, count1:  72002     12      1
(PID.TID 0000.0001)  exf_GetFFieldsRec:
(PID.TID 0000.0001)  exf_GetFFieldsRec:
(PID.TID 0000.0001)  exf_GetFFieldsRec: first, changed, fac:   F   F   0.40000000E+00
(PID.TID 0000.0001)  exf_GetFFieldsRec: myiter, count0, count1:  72002     12      1
(PID.TID 0000.0001)  exf_GetFFieldsRec:
(PID.TID 0000.0001)  exf_GetFFieldsRec:
(PID.TID 0000.0001)  exf_GetFFieldsRec: first, changed, fac:   F   F   0.40000000E+00
(PID.TID 0000.0001)  exf_GetFFieldsRec: myiter, count0, count1:  72002     12      1
(PID.TID 0000.0001)  exf_GetFFieldsRec:
(PID.TID 0000.0001)  exf_GetFFieldsRec:
(PID.TID 0000.0001)  exf_GetFFieldsRec: first, changed, fac:   F   F   0.40000000E+00
(PID.TID 0000.0001)  exf_GetFFieldsRec: myiter, count0, count1:  72002     12      1
(PID.TID 0000.0001)  exf_GetFFieldsRec:
(PID.TID 0000.0001)  exf_GetFFieldsRec:
(PID.TID 0000.0001)  exf_GetFFieldsRec: first, changed, fac:   F   F   0.40000000E+00
(PID.TID 0000.0001)  exf_GetFFieldsRec: myiter, count0, count1:  72002     12      1
(PID.TID 0000.0001)  exf_GetFFieldsRec:
(PID.TID 0000.0001)  exf_GetFFieldsRec:
(PID.TID 0000.0001)  exf_GetFFieldsRec: first, changed, fac:   F   F   0.40000000E+00
(PID.TID 0000.0001)  exf_GetFFieldsRec: myiter, count0, count1:  72002     12      1
(PID.TID 0000.0001)  exf_GetFFieldsRec:
(PID.TID 0000.0001)  exf_GetFFieldsRec:
(PID.TID 0000.0001)  exf_GetFFieldsRec: first, changed, fac:   F   F   0.40000000E+00
(PID.TID 0000.0001)  exf_GetFFieldsRec: myiter, count0, count1:  72002     12      1
(PID.TID 0000.0001)  exf_GetFFieldsRec:
(PID.TID 0000.0001)  exf_GetFFieldsRec:
(PID.TID 0000.0001)  exf_GetFFieldsRec: first, changed, fac:   F   F   0.40000000E+00
(PID.TID 0000.0001)  exf_GetFFieldsRec: myiter, count0, count1:  72002     12      1
(PID.TID 0000.0001)  exf_GetFFieldsRec:
(PID.TID 0000.0001)  exf_GetFFieldsRec:
(PID.TID 0000.0001)  exf_GetFFieldsRec: first, changed, fac:   F   F   0.40000000E+00
(PID.TID 0000.0001)  exf_GetFFieldsRec: myiter, count0, count1:  72002     12      1
(PID.TID 0000.0001)  exf_GetFFieldsRec:
(PID.TID 0000.0001)  exf_GetFFieldsRec:
(PID.TID 0000.0001)  exf_GetFFieldsRec: first, changed, fac:   F   F   0.40000000E+00
(PID.TID 0000.0001)  exf_GetFFieldsRec: myiter, count0, count1:  72002     12      1
(PID.TID 0000.0001)  exf_GetFFieldsRec:
 cg2d: Sum(rhs),rhsMax =   2.21854239839188E+03  2.13218056086429E+01
(PID.TID 0000.0001)                    cg2d_init_res =    2.96100665318077E+00
(PID.TID 0000.0001)                       cg2d_iters =    69
(PID.TID 0000.0001)                         cg2d_res =    5.08265203985510E-07
(PID.TID 0000.0001) // =======================================================
(PID.TID 0000.0001) // Begin MONITOR dynamic field statistics
(PID.TID 0000.0001) // =======================================================
(PID.TID 0000.0001) %MON time_tsnumber                =                 72003
(PID.TID 0000.0001) %MON time_secondsf                =   6.2210592000000E+09
(PID.TID 0000.0001) %MON dynstat_eta_max              =  -2.2084008390244E+00
(PID.TID 0000.0001) %MON dynstat_eta_min              =  -8.3461691515151E+00
(PID.TID 0000.0001) %MON dynstat_eta_mean             =  -3.2997335751224E+00
(PID.TID 0000.0001) %MON dynstat_eta_sd               =   8.8078409545740E-01
(PID.TID 0000.0001) %MON dynstat_eta_del2             =   2.0631232098073E-02
(PID.TID 0000.0001) %MON dynstat_uvel_max             =   2.1376348693178E-01
(PID.TID 0000.0001) %MON dynstat_uvel_min             =  -2.9027101116852E-01
(PID.TID 0000.0001) %MON dynstat_uvel_mean            =  -5.2721316140131E-04
(PID.TID 0000.0001) %MON dynstat_uvel_sd              =   1.4779982895896E-02
(PID.TID 0000.0001) %MON dynstat_uvel_del2            =   2.0217617571728E-03
(PID.TID 0000.0001) %MON dynstat_vvel_max             =   2.2033050053545E-01
(PID.TID 0000.0001) %MON dynstat_vvel_min             =  -2.0082957265766E-01
(PID.TID 0000.0001) %MON dynstat_vvel_mean            =  -3.9932473378209E-04
(PID.TID 0000.0001) %MON dynstat_vvel_sd              =   1.5247405538202E-02
(PID.TID 0000.0001) %MON dynstat_vvel_del2            =   2.0443172321222E-03
(PID.TID 0000.0001) %MON dynstat_wvel_max             =   1.0253288446684E-04
(PID.TID 0000.0001) %MON dynstat_wvel_min             =  -2.1440614867430E-04
(PID.TID 0000.0001) %MON dynstat_wvel_mean            =  -1.7904838518463E-09
(PID.TID 0000.0001) %MON dynstat_wvel_sd              =   5.3635133730651E-06
(PID.TID 0000.0001) %MON dynstat_wvel_del2            =   1.2749068844335E-06
(PID.TID 0000.0001) %MON dynstat_theta_max            =   3.1224861394894E+01
(PID.TID 0000.0001) %MON dynstat_theta_min            =  -6.6492322792624E+00
(PID.TID 0000.0001) %MON dynstat_theta_mean           =   3.0529810386995E+00
(PID.TID 0000.0001) %MON dynstat_theta_sd             =   4.9950255847511E+00
(PID.TID 0000.0001) %MON dynstat_theta_del2           =   9.8072565696415E-02
(PID.TID 0000.0001) %MON dynstat_salt_max             =   5.9529669782307E+01
(PID.TID 0000.0001) %MON dynstat_salt_min             =   1.7775761149856E+01
(PID.TID 0000.0001) %MON dynstat_salt_mean            =   3.4752518476950E+01
(PID.TID 0000.0001) %MON dynstat_salt_sd              =   4.8910996554446E-01
(PID.TID 0000.0001) %MON dynstat_salt_del2            =   2.4179783401142E-02
(PID.TID 0000.0001) %MON extforcing_qnet_max          =   6.5291087236682E+02
(PID.TID 0000.0001) %MON extforcing_qnet_min          =  -2.5356695510563E+02
(PID.TID 0000.0001) %MON extforcing_qnet_mean         =  -1.4182749216120E+01
(PID.TID 0000.0001) %MON extforcing_qnet_sd           =   1.2421675658599E+02
(PID.TID 0000.0001) %MON extforcing_qnet_del2         =   9.7690306414449E+00
(PID.TID 0000.0001) %MON extforcing_qsw_max           =   0.0000000000000E+00
(PID.TID 0000.0001) %MON extforcing_qsw_min           =  -3.0187928232211E+02
(PID.TID 0000.0001) %MON extforcing_qsw_mean          =  -1.8274159465893E+02
(PID.TID 0000.0001) %MON extforcing_qsw_sd            =   7.9631115431711E+01
(PID.TID 0000.0001) %MON extforcing_qsw_del2          =   2.2394127776510E+00
(PID.TID 0000.0001) %MON extforcing_empmr_max         =   7.2816043561627E-04
(PID.TID 0000.0001) %MON extforcing_empmr_min         =  -4.3123016650795E-04
(PID.TID 0000.0001) %MON extforcing_empmr_mean        =  -4.8534907260464E-07
(PID.TID 0000.0001) %MON extforcing_empmr_sd          =   6.0611158863933E-05
(PID.TID 0000.0001) %MON extforcing_empmr_del2        =   7.6605213295769E-06
(PID.TID 0000.0001) %MON advcfl_uvel_max              =   8.4320732153613E-02
(PID.TID 0000.0001) %MON advcfl_vvel_max              =   8.3746366321111E-02
(PID.TID 0000.0001) %MON advcfl_wvel_max              =   6.9904495265884E-02
(PID.TID 0000.0001) %MON advcfl_W_hf_max              =   7.7339877901034E-02
(PID.TID 0000.0001) %MON pe_b_mean                    =   1.4345383151826E-02
(PID.TID 0000.0001) %MON ke_max                       =   4.1556899945268E-02
(PID.TID 0000.0001) %MON ke_mean                      =   2.0841002769429E-04
(PID.TID 0000.0001) %MON ke_vol                       =   1.3386017013342E+18
(PID.TID 0000.0001) %MON vort_r_min                   =  -1.2405384319315E-06
(PID.TID 0000.0001) %MON vort_r_max                   =   1.2921939278422E-06
(PID.TID 0000.0001) %MON vort_a_mean                  =  -2.0549865324846E-05
(PID.TID 0000.0001) %MON vort_a_sd                    =   7.5259723319021E-05
(PID.TID 0000.0001) %MON vort_p_mean                  =  -2.4806337878787E-05
(PID.TID 0000.0001) %MON vort_p_sd                    =   1.2827603614730E-04
(PID.TID 0000.0001) %MON surfExpan_theta_mean         =   4.1132784590510E-08
(PID.TID 0000.0001) %MON surfExpan_salt_mean          =   2.1497631980326E-08
(PID.TID 0000.0001) // =======================================================
(PID.TID 0000.0001) // End MONITOR dynamic field statistics
(PID.TID 0000.0001) // =======================================================
(PID.TID 0000.0001) // =======================================================
(PID.TID 0000.0001) // Begin MONITOR SEAICE statistics
(PID.TID 0000.0001) // =======================================================
(PID.TID 0000.0001) %MON seaice_tsnumber              =                 72003
(PID.TID 0000.0001) %MON seaice_time_sec              =   6.2210592000000E+09
(PID.TID 0000.0001) %MON seaice_area_max              =   1.0000000000000E+00
(PID.TID 0000.0001) %MON seaice_area_min              =   0.0000000000000E+00
(PID.TID 0000.0001) %MON seaice_area_mean             =   4.6770622350856E-02
(PID.TID 0000.0001) %MON seaice_area_sd               =   1.9072234263929E-01
(PID.TID 0000.0001) %MON seaice_area_del2             =   7.0454614666401E-03
(PID.TID 0000.0001) %MON seaice_heff_max              =   5.2036164099141E+00
(PID.TID 0000.0001) %MON seaice_heff_min              =   0.0000000000000E+00
(PID.TID 0000.0001) %MON seaice_heff_mean             =   8.3993073567197E-02
(PID.TID 0000.0001) %MON seaice_heff_sd               =   4.0176072724504E-01
(PID.TID 0000.0001) %MON seaice_heff_del2             =   1.0534777630700E-02
(PID.TID 0000.0001) %MON seaice_hsnow_max             =   0.0000000000000E+00
(PID.TID 0000.0001) %MON seaice_hsnow_min             =   0.0000000000000E+00
(PID.TID 0000.0001) %MON seaice_hsnow_mean            =   0.0000000000000E+00
(PID.TID 0000.0001) %MON seaice_hsnow_sd              =   0.0000000000000E+00
(PID.TID 0000.0001) %MON seaice_hsnow_del2            =   0.0000000000000E+00
(PID.TID 0000.0001) // =======================================================
(PID.TID 0000.0001) // End MONITOR SEAICE statistics
(PID.TID 0000.0001) // =======================================================
(PID.TID 0000.0001) // =======================================================
(PID.TID 0000.0001) // Begin MONITOR Therm.SeaIce statistics
(PID.TID 0000.0001) // =======================================================
(PID.TID 0000.0001) %MON thSI_time_sec                =   6.2210592000000E+09
(PID.TID 0000.0001) %MON thSI_Ice_Area_G              =   1.6956499798111E+13
(PID.TID 0000.0001) %MON thSI_Ice_Area_S              =   4.6058844297119E+12
(PID.TID 0000.0001) %MON thSI_Ice_Area_N              =   1.2350615368399E+13
(PID.TID 0000.0001) %MON thSI_IceH_ave_G              =   1.8011614537445E+00
(PID.TID 0000.0001) %MON thSI_IceH_ave_S              =   1.1848235286685E+00
(PID.TID 0000.0001) %MON thSI_IceH_ave_N              =   2.0310108311133E+00
(PID.TID 0000.0001) %MON thSI_IceH_max_S              =   2.1209744828325E+00
(PID.TID 0000.0001) %MON thSI_IceH_max_N              =   5.2048456296988E+00
(PID.TID 0000.0001) %MON thSI_SnwH_ave_G              =   2.0963199510384E-01
(PID.TID 0000.0001) %MON thSI_SnwH_ave_S              =   1.7741640652661E-01
(PID.TID 0000.0001) %MON thSI_SnwH_ave_N              =   2.2164607483962E-01
(PID.TID 0000.0001) %MON thSI_SnwH_max_S              =   5.7981930060046E-01
(PID.TID 0000.0001) %MON thSI_SnwH_max_N              =   4.2663378484251E-01
(PID.TID 0000.0001) %MON thSI_TotEnerg_G              =  -9.9543941550558E+21
(PID.TID 0000.0001) %MON thSI_Tsrf_ave_G              =  -1.9008681420786E+01
(PID.TID 0000.0001) %MON thSI_Tsrf_ave_S              =  -4.1402866572444E-02
(PID.TID 0000.0001) %MON thSI_Tsrf_ave_N              =  -2.6082101680507E+01
(PID.TID 0000.0001) %MON thSI_Tsrf_min_S              =  -5.4560973302292E+00
(PID.TID 0000.0001) %MON thSI_Tsrf_min_N              =  -3.2731743484220E+01
(PID.TID 0000.0001) %MON thSI_Tsrf_max_S              =   0.0000000000000E+00
(PID.TID 0000.0001) %MON thSI_Tsrf_max_N              =  -1.1934090529046E+00
(PID.TID 0000.0001) %MON thSI_Tic1_ave_G              =  -1.0785022253327E+01
(PID.TID 0000.0001) %MON thSI_Tic1_ave_S              =  -1.2916942311986E+00
(PID.TID 0000.0001) %MON thSI_Tic1_ave_N              =  -1.2850328019159E+01
(PID.TID 0000.0001) %MON thSI_Tic1_min_S              =  -2.5626149977475E+00
(PID.TID 0000.0001) %MON thSI_Tic1_min_N              =  -1.8529738517611E+01
(PID.TID 0000.0001) %MON thSI_Tic1_max_S              =  -1.5675818980200E-01
(PID.TID 0000.0001) %MON thSI_Tic1_max_N              =  -2.1087835663557E+00
(PID.TID 0000.0001) %MON thSI_Tic2_ave_G              =  -4.6574422165491E+00
(PID.TID 0000.0001) %MON thSI_Tic2_ave_S              =  -1.6210178395704E+00
(PID.TID 0000.0001) %MON thSI_Tic2_ave_N              =  -5.3180266563442E+00
(PID.TID 0000.0001) %MON thSI_Tic2_min_S              =  -2.0641110370024E+00
(PID.TID 0000.0001) %MON thSI_Tic2_min_N              =  -7.7671779197689E+00
(PID.TID 0000.0001) %MON thSI_Tic2_max_S              =  -8.5760726436649E-01
(PID.TID 0000.0001) %MON thSI_Tic2_max_N              =  -1.9101502245133E+00
(PID.TID 0000.0001) // =======================================================
(PID.TID 0000.0001) // End MONITOR Therm.SeaIce statistics
(PID.TID 0000.0001) // =======================================================
(PID.TID 0000.0001)  exf_GetFFieldsRec:
(PID.TID 0000.0001)  exf_GetFFieldsRec: first, changed, fac:   F   F   0.36666667E+00
(PID.TID 0000.0001)  exf_GetFFieldsRec: myiter, count0, count1:  72003     12      1
(PID.TID 0000.0001)  exf_GetFFieldsRec:
(PID.TID 0000.0001)  exf_GetFFieldsRec:
(PID.TID 0000.0001)  exf_GetFFieldsRec: first, changed, fac:   F   F   0.36666667E+00
(PID.TID 0000.0001)  exf_GetFFieldsRec: myiter, count0, count1:  72003     12      1
(PID.TID 0000.0001)  exf_GetFFieldsRec:
(PID.TID 0000.0001)  exf_GetFFieldsRec:
(PID.TID 0000.0001)  exf_GetFFieldsRec: first, changed, fac:   F   F   0.36666667E+00
(PID.TID 0000.0001)  exf_GetFFieldsRec: myiter, count0, count1:  72003     12      1
(PID.TID 0000.0001)  exf_GetFFieldsRec:
(PID.TID 0000.0001)  exf_GetFFieldsRec:
(PID.TID 0000.0001)  exf_GetFFieldsRec: first, changed, fac:   F   F   0.36666667E+00
(PID.TID 0000.0001)  exf_GetFFieldsRec: myiter, count0, count1:  72003     12      1
(PID.TID 0000.0001)  exf_GetFFieldsRec:
(PID.TID 0000.0001)  exf_GetFFieldsRec:
(PID.TID 0000.0001)  exf_GetFFieldsRec: first, changed, fac:   F   F   0.36666667E+00
(PID.TID 0000.0001)  exf_GetFFieldsRec: myiter, count0, count1:  72003     12      1
(PID.TID 0000.0001)  exf_GetFFieldsRec:
(PID.TID 0000.0001)  exf_GetFFieldsRec:
(PID.TID 0000.0001)  exf_GetFFieldsRec: first, changed, fac:   F   F   0.36666667E+00
(PID.TID 0000.0001)  exf_GetFFieldsRec: myiter, count0, count1:  72003     12      1
(PID.TID 0000.0001)  exf_GetFFieldsRec:
(PID.TID 0000.0001)  exf_GetFFieldsRec:
(PID.TID 0000.0001)  exf_GetFFieldsRec: first, changed, fac:   F   F   0.36666667E+00
(PID.TID 0000.0001)  exf_GetFFieldsRec: myiter, count0, count1:  72003     12      1
(PID.TID 0000.0001)  exf_GetFFieldsRec:
(PID.TID 0000.0001)  exf_GetFFieldsRec:
(PID.TID 0000.0001)  exf_GetFFieldsRec: first, changed, fac:   F   F   0.36666667E+00
(PID.TID 0000.0001)  exf_GetFFieldsRec: myiter, count0, count1:  72003     12      1
(PID.TID 0000.0001)  exf_GetFFieldsRec:
(PID.TID 0000.0001)  exf_GetFFieldsRec:
(PID.TID 0000.0001)  exf_GetFFieldsRec: first, changed, fac:   F   F   0.36666667E+00
(PID.TID 0000.0001)  exf_GetFFieldsRec: myiter, count0, count1:  72003     12      1
(PID.TID 0000.0001)  exf_GetFFieldsRec:
(PID.TID 0000.0001)  exf_GetFFieldsRec:
(PID.TID 0000.0001)  exf_GetFFieldsRec: first, changed, fac:   F   F   0.36666667E+00
(PID.TID 0000.0001)  exf_GetFFieldsRec: myiter, count0, count1:  72003     12      1
(PID.TID 0000.0001)  exf_GetFFieldsRec:
(PID.TID 0000.0001)  exf_GetFFieldsRec:
(PID.TID 0000.0001)  exf_GetFFieldsRec: first, changed, fac:   F   F   0.36666667E+00
(PID.TID 0000.0001)  exf_GetFFieldsRec: myiter, count0, count1:  72003     12      1
(PID.TID 0000.0001)  exf_GetFFieldsRec:
(PID.TID 0000.0001)  exf_GetFFieldsRec:
(PID.TID 0000.0001)  exf_GetFFieldsRec: first, changed, fac:   F   F   0.36666667E+00
(PID.TID 0000.0001)  exf_GetFFieldsRec: myiter, count0, count1:  72003     12      1
(PID.TID 0000.0001)  exf_GetFFieldsRec:
 cg2d: Sum(rhs),rhsMax =   2.21852032922839E+03  2.13621828939847E+01
(PID.TID 0000.0001)                    cg2d_init_res =    2.86888320564312E+00
(PID.TID 0000.0001)                       cg2d_iters =    69
(PID.TID 0000.0001)                         cg2d_res =    4.95348760919701E-07
(PID.TID 0000.0001) // =======================================================
(PID.TID 0000.0001) // Begin MONITOR dynamic field statistics
(PID.TID 0000.0001) // =======================================================
(PID.TID 0000.0001) %MON time_tsnumber                =                 72004
(PID.TID 0000.0001) %MON time_secondsf                =   6.2211456000000E+09
(PID.TID 0000.0001) %MON dynstat_eta_max              =  -2.2098126643314E+00
(PID.TID 0000.0001) %MON dynstat_eta_min              =  -8.3492773109948E+00
(PID.TID 0000.0001) %MON dynstat_eta_mean             =  -3.2997007507059E+00
(PID.TID 0000.0001) %MON dynstat_eta_sd               =   8.8017424118975E-01
(PID.TID 0000.0001) %MON dynstat_eta_del2             =   2.0513683658504E-02
(PID.TID 0000.0001) %MON dynstat_uvel_max             =   2.1391470346628E-01
(PID.TID 0000.0001) %MON dynstat_uvel_min             =  -2.8989853055168E-01
(PID.TID 0000.0001) %MON dynstat_uvel_mean            =  -5.2665038442865E-04
(PID.TID 0000.0001) %MON dynstat_uvel_sd              =   1.4776189654539E-02
(PID.TID 0000.0001) %MON dynstat_uvel_del2            =   2.0212315125299E-03
(PID.TID 0000.0001) %MON dynstat_vvel_max             =   2.1966532053668E-01
(PID.TID 0000.0001) %MON dynstat_vvel_min             =  -2.0088684838541E-01
(PID.TID 0000.0001) %MON dynstat_vvel_mean            =  -3.9866725737026E-04
(PID.TID 0000.0001) %MON dynstat_vvel_sd              =   1.5248815058441E-02
(PID.TID 0000.0001) %MON dynstat_vvel_del2            =   2.0435866828240E-03
(PID.TID 0000.0001) %MON dynstat_wvel_max             =   1.0305727340289E-04
(PID.TID 0000.0001) %MON dynstat_wvel_min             =  -2.1444267955051E-04
(PID.TID 0000.0001) %MON dynstat_wvel_mean            =  -1.6793681376946E-09
(PID.TID 0000.0001) %MON dynstat_wvel_sd              =   5.3610801710937E-06
(PID.TID 0000.0001) %MON dynstat_wvel_del2            =   1.2743323893046E-06
(PID.TID 0000.0001) %MON dynstat_theta_max            =   3.1235219248127E+01
(PID.TID 0000.0001) %MON dynstat_theta_min            =  -6.6508609154323E+00
(PID.TID 0000.0001) %MON dynstat_theta_mean           =   3.0530599385986E+00
(PID.TID 0000.0001) %MON dynstat_theta_sd             =   4.9950875046838E+00
(PID.TID 0000.0001) %MON dynstat_theta_del2           =   9.8112933766918E-02
(PID.TID 0000.0001) %MON dynstat_salt_max             =   5.9541990481772E+01
(PID.TID 0000.0001) %MON dynstat_salt_min             =   1.7775799301979E+01
(PID.TID 0000.0001) %MON dynstat_salt_mean            =   3.4752518201890E+01
(PID.TID 0000.0001) %MON dynstat_salt_sd              =   4.8910365047920E-01
(PID.TID 0000.0001) %MON dynstat_salt_del2            =   2.4178708638489E-02
(PID.TID 0000.0001) %MON extforcing_qnet_max          =   6.5463399960693E+02
(PID.TID 0000.0001) %MON extforcing_qnet_min          =  -2.5359679259190E+02
(PID.TID 0000.0001) %MON extforcing_qnet_mean         =  -1.4133056769538E+01
(PID.TID 0000.0001) %MON extforcing_qnet_sd           =   1.2440430785830E+02
(PID.TID 0000.0001) %MON extforcing_qnet_del2         =   9.7734225864574E+00
(PID.TID 0000.0001) %MON extforcing_qsw_max           =   0.0000000000000E+00
(PID.TID 0000.0001) %MON extforcing_qsw_min           =  -3.0186728538630E+02
(PID.TID 0000.0001) %MON extforcing_qsw_mean          =  -1.8287278024357E+02
(PID.TID 0000.0001) %MON extforcing_qsw_sd            =   7.9571879219410E+01
(PID.TID 0000.0001) %MON extforcing_qsw_del2          =   2.2123705828426E+00
(PID.TID 0000.0001) %MON extforcing_empmr_max         =   7.3274020436598E-04
(PID.TID 0000.0001) %MON extforcing_empmr_min         =  -4.3339409607506E-04
(PID.TID 0000.0001) %MON extforcing_empmr_mean        =  -3.9320915622654E-07
(PID.TID 0000.0001) %MON extforcing_empmr_sd          =   6.0478531935863E-05
(PID.TID 0000.0001) %MON extforcing_empmr_del2        =   7.7121391645644E-06
(PID.TID 0000.0001) %MON advcfl_uvel_max              =   8.4455744971904E-02
(PID.TID 0000.0001) %MON advcfl_vvel_max              =   8.3858327020740E-02
(PID.TID 0000.0001) %MON advcfl_wvel_max              =   6.9916405710054E-02
(PID.TID 0000.0001) %MON advcfl_W_hf_max              =   7.7353624402804E-02
(PID.TID 0000.0001) %MON pe_b_mean                    =   1.4344906067439E-02
(PID.TID 0000.0001) %MON ke_max                       =   4.1429934232855E-02
(PID.TID 0000.0001) %MON ke_mean                      =   2.0837794874781E-04
(PID.TID 0000.0001) %MON ke_vol                       =   1.3386017160775E+18
(PID.TID 0000.0001) %MON vort_r_min                   =  -1.2458872892747E-06
(PID.TID 0000.0001) %MON vort_r_max                   =   1.2893056276668E-06
(PID.TID 0000.0001) %MON vort_a_mean                  =  -2.0549865324846E-05
(PID.TID 0000.0001) %MON vort_a_sd                    =   7.5259723189328E-05
(PID.TID 0000.0001) %MON vort_p_mean                  =  -2.4806337261582E-05
(PID.TID 0000.0001) %MON vort_p_sd                    =   1.2827603747987E-04
(PID.TID 0000.0001) %MON surfExpan_theta_mean         =   4.1750358972387E-08
(PID.TID 0000.0001) %MON surfExpan_salt_mean          =   2.1822676281696E-08
(PID.TID 0000.0001) // =======================================================
(PID.TID 0000.0001) // End MONITOR dynamic field statistics
(PID.TID 0000.0001) // =======================================================
(PID.TID 0000.0001) // =======================================================
(PID.TID 0000.0001) // Begin MONITOR SEAICE statistics
(PID.TID 0000.0001) // =======================================================
(PID.TID 0000.0001) %MON seaice_tsnumber              =                 72004
(PID.TID 0000.0001) %MON seaice_time_sec              =   6.2211456000000E+09
(PID.TID 0000.0001) %MON seaice_area_max              =   1.0000000000000E+00
(PID.TID 0000.0001) %MON seaice_area_min              =   0.0000000000000E+00
(PID.TID 0000.0001) %MON seaice_area_mean             =   4.6598290210374E-02
(PID.TID 0000.0001) %MON seaice_area_sd               =   1.9059787252921E-01
(PID.TID 0000.0001) %MON seaice_area_del2             =   6.8207382262011E-03
(PID.TID 0000.0001) %MON seaice_heff_max              =   5.2048456296988E+00
(PID.TID 0000.0001) %MON seaice_heff_min              =   0.0000000000000E+00
(PID.TID 0000.0001) %MON seaice_heff_mean             =   8.3931044137322E-02
(PID.TID 0000.0001) %MON seaice_heff_sd               =   4.0241335547991E-01
(PID.TID 0000.0001) %MON seaice_heff_del2             =   1.0383249550855E-02
(PID.TID 0000.0001) %MON seaice_hsnow_max             =   0.0000000000000E+00
(PID.TID 0000.0001) %MON seaice_hsnow_min             =   0.0000000000000E+00
(PID.TID 0000.0001) %MON seaice_hsnow_mean            =   0.0000000000000E+00
(PID.TID 0000.0001) %MON seaice_hsnow_sd              =   0.0000000000000E+00
(PID.TID 0000.0001) %MON seaice_hsnow_del2            =   0.0000000000000E+00
(PID.TID 0000.0001) // =======================================================
(PID.TID 0000.0001) // End MONITOR SEAICE statistics
(PID.TID 0000.0001) // =======================================================
(PID.TID 0000.0001) // =======================================================
(PID.TID 0000.0001) // Begin MONITOR Therm.SeaIce statistics
(PID.TID 0000.0001) // =======================================================
(PID.TID 0000.0001) %MON thSI_time_sec                =   6.2211456000000E+09
(PID.TID 0000.0001) %MON thSI_Ice_Area_G              =   1.6849049118154E+13
(PID.TID 0000.0001) %MON thSI_Ice_Area_S              =   4.4675830404013E+12
(PID.TID 0000.0001) %MON thSI_Ice_Area_N              =   1.2381466077753E+13
(PID.TID 0000.0001) %MON thSI_IceH_ave_G              =   1.8112960436096E+00
(PID.TID 0000.0001) %MON thSI_IceH_ave_S              =   1.1856440722484E+00
(PID.TID 0000.0001) %MON thSI_IceH_ave_N              =   2.0370489648625E+00
(PID.TID 0000.0001) %MON thSI_IceH_max_S              =   2.1193926589160E+00
(PID.TID 0000.0001) %MON thSI_IceH_max_N              =   5.2060884558929E+00
(PID.TID 0000.0001) %MON thSI_SnwH_ave_G              =   2.0947521894648E-01
(PID.TID 0000.0001) %MON thSI_SnwH_ave_S              =   1.7061059061851E-01
(PID.TID 0000.0001) %MON thSI_SnwH_ave_N              =   2.2349867572447E-01
(PID.TID 0000.0001) %MON thSI_SnwH_max_S              =   5.7477849692354E-01
(PID.TID 0000.0001) %MON thSI_SnwH_max_N              =   4.3095722378723E-01
(PID.TID 0000.0001) %MON thSI_TotEnerg_G              =  -9.9451591810753E+21
(PID.TID 0000.0001) %MON thSI_Tsrf_ave_G              =  -1.9209999770306E+01
(PID.TID 0000.0001) %MON thSI_Tsrf_ave_S              =  -4.2089041236130E-02
(PID.TID 0000.0001) %MON thSI_Tsrf_ave_N              =  -2.6126323924114E+01
(PID.TID 0000.0001) %MON thSI_Tsrf_min_S              =  -5.5119161180352E+00
(PID.TID 0000.0001) %MON thSI_Tsrf_min_N              =  -3.2733440160185E+01
(PID.TID 0000.0001) %MON thSI_Tsrf_max_S              =   0.0000000000000E+00
(PID.TID 0000.0001) %MON thSI_Tsrf_max_N              =  -1.2190076831269E+00
(PID.TID 0000.0001) %MON thSI_Tic1_ave_G              =  -1.0846660467499E+01
(PID.TID 0000.0001) %MON thSI_Tic1_ave_S              =  -1.2409014290127E+00
(PID.TID 0000.0001) %MON thSI_Tic1_ave_N              =  -1.2864028411585E+01
(PID.TID 0000.0001) %MON thSI_Tic1_min_S              =  -2.5574353686673E+00
(PID.TID 0000.0001) %MON thSI_Tic1_min_N              =  -1.8548858875718E+01
(PID.TID 0000.0001) %MON thSI_Tic1_max_S              =  -1.5092354103145E-01
(PID.TID 0000.0001) %MON thSI_Tic1_max_N              =  -2.6915701413894E+00
(PID.TID 0000.0001) %MON thSI_Tic2_ave_G              =  -4.6817410656788E+00
(PID.TID 0000.0001) %MON thSI_Tic2_ave_S              =  -1.6038917272095E+00
(PID.TID 0000.0001) %MON thSI_Tic2_ave_N              =  -5.3281402276060E+00
(PID.TID 0000.0001) %MON thSI_Tic2_min_S              =  -2.0498201799417E+00
(PID.TID 0000.0001) %MON thSI_Tic2_min_N              =  -7.7897394941530E+00
(PID.TID 0000.0001) %MON thSI_Tic2_max_S              =  -8.1758369681083E-01
(PID.TID 0000.0001) %MON thSI_Tic2_max_N              =  -2.0918983756344E+00
(PID.TID 0000.0001) // =======================================================
(PID.TID 0000.0001) // End MONITOR Therm.SeaIce statistics
(PID.TID 0000.0001) // =======================================================
(PID.TID 0000.0001)  exf_GetFFieldsRec:
(PID.TID 0000.0001)  exf_GetFFieldsRec: first, changed, fac:   F   F   0.33333333E+00
(PID.TID 0000.0001)  exf_GetFFieldsRec: myiter, count0, count1:  72004     12      1
(PID.TID 0000.0001)  exf_GetFFieldsRec:
(PID.TID 0000.0001)  exf_GetFFieldsRec:
(PID.TID 0000.0001)  exf_GetFFieldsRec: first, changed, fac:   F   F   0.33333333E+00
(PID.TID 0000.0001)  exf_GetFFieldsRec: myiter, count0, count1:  72004     12      1
(PID.TID 0000.0001)  exf_GetFFieldsRec:
(PID.TID 0000.0001)  exf_GetFFieldsRec:
(PID.TID 0000.0001)  exf_GetFFieldsRec: first, changed, fac:   F   F   0.33333333E+00
(PID.TID 0000.0001)  exf_GetFFieldsRec: myiter, count0, count1:  72004     12      1
(PID.TID 0000.0001)  exf_GetFFieldsRec:
(PID.TID 0000.0001)  exf_GetFFieldsRec:
(PID.TID 0000.0001)  exf_GetFFieldsRec: first, changed, fac:   F   F   0.33333333E+00
(PID.TID 0000.0001)  exf_GetFFieldsRec: myiter, count0, count1:  72004     12      1
(PID.TID 0000.0001)  exf_GetFFieldsRec:
(PID.TID 0000.0001)  exf_GetFFieldsRec:
(PID.TID 0000.0001)  exf_GetFFieldsRec: first, changed, fac:   F   F   0.33333333E+00
(PID.TID 0000.0001)  exf_GetFFieldsRec: myiter, count0, count1:  72004     12      1
(PID.TID 0000.0001)  exf_GetFFieldsRec:
(PID.TID 0000.0001)  exf_GetFFieldsRec:
(PID.TID 0000.0001)  exf_GetFFieldsRec: first, changed, fac:   F   F   0.33333333E+00
(PID.TID 0000.0001)  exf_GetFFieldsRec: myiter, count0, count1:  72004     12      1
(PID.TID 0000.0001)  exf_GetFFieldsRec:
(PID.TID 0000.0001)  exf_GetFFieldsRec:
(PID.TID 0000.0001)  exf_GetFFieldsRec: first, changed, fac:   F   F   0.33333333E+00
(PID.TID 0000.0001)  exf_GetFFieldsRec: myiter, count0, count1:  72004     12      1
(PID.TID 0000.0001)  exf_GetFFieldsRec:
(PID.TID 0000.0001)  exf_GetFFieldsRec:
(PID.TID 0000.0001)  exf_GetFFieldsRec: first, changed, fac:   F   F   0.33333333E+00
(PID.TID 0000.0001)  exf_GetFFieldsRec: myiter, count0, count1:  72004     12      1
(PID.TID 0000.0001)  exf_GetFFieldsRec:
(PID.TID 0000.0001)  exf_GetFFieldsRec:
(PID.TID 0000.0001)  exf_GetFFieldsRec: first, changed, fac:   F   F   0.33333333E+00
(PID.TID 0000.0001)  exf_GetFFieldsRec: myiter, count0, count1:  72004     12      1
(PID.TID 0000.0001)  exf_GetFFieldsRec:
(PID.TID 0000.0001)  exf_GetFFieldsRec:
(PID.TID 0000.0001)  exf_GetFFieldsRec: first, changed, fac:   F   F   0.33333333E+00
(PID.TID 0000.0001)  exf_GetFFieldsRec: myiter, count0, count1:  72004     12      1
(PID.TID 0000.0001)  exf_GetFFieldsRec:
(PID.TID 0000.0001)  exf_GetFFieldsRec:
(PID.TID 0000.0001)  exf_GetFFieldsRec: first, changed, fac:   F   F   0.33333333E+00
(PID.TID 0000.0001)  exf_GetFFieldsRec: myiter, count0, count1:  72004     12      1
(PID.TID 0000.0001)  exf_GetFFieldsRec:
(PID.TID 0000.0001)  exf_GetFFieldsRec:
(PID.TID 0000.0001)  exf_GetFFieldsRec: first, changed, fac:   F   F   0.33333333E+00
(PID.TID 0000.0001)  exf_GetFFieldsRec: myiter, count0, count1:  72004     12      1
(PID.TID 0000.0001)  exf_GetFFieldsRec:
 cg2d: Sum(rhs),rhsMax =   2.21851117189583E+03  2.13788169505574E+01
(PID.TID 0000.0001)                    cg2d_init_res =    2.83568660344844E+00
(PID.TID 0000.0001)                       cg2d_iters =    69
(PID.TID 0000.0001)                         cg2d_res =    5.60108979248049E-07
(PID.TID 0000.0001) // =======================================================
(PID.TID 0000.0001) // Begin MONITOR dynamic field statistics
(PID.TID 0000.0001) // =======================================================
(PID.TID 0000.0001) %MON time_tsnumber                =                 72005
(PID.TID 0000.0001) %MON time_secondsf                =   6.2212320000000E+09
(PID.TID 0000.0001) %MON dynstat_eta_max              =  -2.2112088705680E+00
(PID.TID 0000.0001) %MON dynstat_eta_min              =  -8.3524565492280E+00
(PID.TID 0000.0001) %MON dynstat_eta_mean             =  -3.2996871306111E+00
(PID.TID 0000.0001) %MON dynstat_eta_sd               =   8.7959612272311E-01
(PID.TID 0000.0001) %MON dynstat_eta_del2             =   2.0393983375703E-02
(PID.TID 0000.0001) %MON dynstat_uvel_max             =   2.1399443611425E-01
(PID.TID 0000.0001) %MON dynstat_uvel_min             =  -2.8950915061873E-01
(PID.TID 0000.0001) %MON dynstat_uvel_mean            =  -5.2604277121547E-04
(PID.TID 0000.0001) %MON dynstat_uvel_sd              =   1.4772313061658E-02
(PID.TID 0000.0001) %MON dynstat_uvel_del2            =   2.0206623280195E-03
(PID.TID 0000.0001) %MON dynstat_vvel_max             =   2.1895470763310E-01
(PID.TID 0000.0001) %MON dynstat_vvel_min             =  -2.0093885100318E-01
(PID.TID 0000.0001) %MON dynstat_vvel_mean            =  -3.9799436042014E-04
(PID.TID 0000.0001) %MON dynstat_vvel_sd              =   1.5250005058379E-02
(PID.TID 0000.0001) %MON dynstat_vvel_del2            =   2.0429883328996E-03
(PID.TID 0000.0001) %MON dynstat_wvel_max             =   1.0361382015543E-04
(PID.TID 0000.0001) %MON dynstat_wvel_min             =  -2.1441302159575E-04
(PID.TID 0000.0001) %MON dynstat_wvel_mean            =  -1.5651337408254E-09
(PID.TID 0000.0001) %MON dynstat_wvel_sd              =   5.3585770984863E-06
(PID.TID 0000.0001) %MON dynstat_wvel_del2            =   1.2735502667581E-06
(PID.TID 0000.0001) %MON dynstat_theta_max            =   3.1244984097199E+01
(PID.TID 0000.0001) %MON dynstat_theta_min            =  -6.6523186610833E+00
(PID.TID 0000.0001) %MON dynstat_theta_mean           =   3.0531387702194E+00
(PID.TID 0000.0001) %MON dynstat_theta_sd             =   4.9951522456932E+00
(PID.TID 0000.0001) %MON dynstat_theta_del2           =   9.8157772660391E-02
(PID.TID 0000.0001) %MON dynstat_salt_max             =   5.9552231292278E+01
(PID.TID 0000.0001) %MON dynstat_salt_min             =   1.7775826749152E+01
(PID.TID 0000.0001) %MON dynstat_salt_mean            =   3.4752518115270E+01
(PID.TID 0000.0001) %MON dynstat_salt_sd              =   4.8909691964687E-01
(PID.TID 0000.0001) %MON dynstat_salt_del2            =   2.4182894874508E-02
(PID.TID 0000.0001) %MON extforcing_qnet_max          =   6.5633679810756E+02
(PID.TID 0000.0001) %MON extforcing_qnet_min          =  -2.5362013392479E+02
(PID.TID 0000.0001) %MON extforcing_qnet_mean         =  -1.4120381282153E+01
(PID.TID 0000.0001) %MON extforcing_qnet_sd           =   1.2410717314320E+02
(PID.TID 0000.0001) %MON extforcing_qnet_del2         =   9.7870447067926E+00
(PID.TID 0000.0001) %MON extforcing_qsw_max           =   0.0000000000000E+00
(PID.TID 0000.0001) %MON extforcing_qsw_min           =  -3.0185528845048E+02
(PID.TID 0000.0001) %MON extforcing_qsw_mean          =  -1.8297917563885E+02
(PID.TID 0000.0001) %MON extforcing_qsw_sd            =   7.9499884562690E+01
(PID.TID 0000.0001) %MON extforcing_qsw_del2          =   2.1858656083154E+00
(PID.TID 0000.0001) %MON extforcing_empmr_max         =   7.3057289526588E-04
(PID.TID 0000.0001) %MON extforcing_empmr_min         =  -4.3556156689396E-04
(PID.TID 0000.0001) %MON extforcing_empmr_mean        =  -1.6315738519786E-07
(PID.TID 0000.0001) %MON extforcing_empmr_sd          =   5.9191859132829E-05
(PID.TID 0000.0001) %MON extforcing_empmr_del2        =   7.5558015130353E-06
(PID.TID 0000.0001) %MON advcfl_uvel_max              =   8.4589210709298E-02
(PID.TID 0000.0001) %MON advcfl_vvel_max              =   8.3950523051589E-02
(PID.TID 0000.0001) %MON advcfl_wvel_max              =   6.9906736097635E-02
(PID.TID 0000.0001) %MON advcfl_W_hf_max              =   7.7343693965204E-02
(PID.TID 0000.0001) %MON pe_b_mean                    =   1.4344433905222E-02
(PID.TID 0000.0001) %MON ke_max                       =   4.1299252741927E-02
(PID.TID 0000.0001) %MON ke_mean                      =   2.0834162313870E-04
(PID.TID 0000.0001) %MON ke_vol                       =   1.3386017280218E+18
(PID.TID 0000.0001) %MON vort_r_min                   =  -1.2514821477441E-06
(PID.TID 0000.0001) %MON vort_r_max                   =   1.2864862046506E-06
(PID.TID 0000.0001) %MON vort_a_mean                  =  -2.0549865324846E-05
(PID.TID 0000.0001) %MON vort_a_sd                    =   7.5259723061919E-05
(PID.TID 0000.0001) %MON vort_p_mean                  =  -2.4806336675202E-05
(PID.TID 0000.0001) %MON vort_p_sd                    =   1.2827603860882E-04
(PID.TID 0000.0001) %MON surfExpan_theta_mean         =   4.2572859695527E-08
(PID.TID 0000.0001) %MON surfExpan_salt_mean          =   2.2218861009842E-08
(PID.TID 0000.0001) // =======================================================
(PID.TID 0000.0001) // End MONITOR dynamic field statistics
(PID.TID 0000.0001) // =======================================================
(PID.TID 0000.0001) // =======================================================
(PID.TID 0000.0001) // Begin MONITOR SEAICE statistics
(PID.TID 0000.0001) // =======================================================
(PID.TID 0000.0001) %MON seaice_tsnumber              =                 72005
(PID.TID 0000.0001) %MON seaice_time_sec              =   6.2212320000000E+09
(PID.TID 0000.0001) %MON seaice_area_max              =   1.0000000000000E+00
(PID.TID 0000.0001) %MON seaice_area_min              =   0.0000000000000E+00
(PID.TID 0000.0001) %MON seaice_area_mean             =   4.6303004153253E-02
(PID.TID 0000.0001) %MON seaice_area_sd               =   1.9051130986932E-01
(PID.TID 0000.0001) %MON seaice_area_del2             =   6.7439509800907E-03
(PID.TID 0000.0001) %MON seaice_heff_max              =   5.2060884558929E+00
(PID.TID 0000.0001) %MON seaice_heff_min              =   0.0000000000000E+00
(PID.TID 0000.0001) %MON seaice_heff_mean             =   8.3868448230026E-02
(PID.TID 0000.0001) %MON seaice_heff_sd               =   4.0307891559385E-01
(PID.TID 0000.0001) %MON seaice_heff_del2             =   1.0250166351644E-02
(PID.TID 0000.0001) %MON seaice_hsnow_max             =   0.0000000000000E+00
(PID.TID 0000.0001) %MON seaice_hsnow_min             =   0.0000000000000E+00
(PID.TID 0000.0001) %MON seaice_hsnow_mean            =   0.0000000000000E+00
(PID.TID 0000.0001) %MON seaice_hsnow_sd              =   0.0000000000000E+00
(PID.TID 0000.0001) %MON seaice_hsnow_del2            =   0.0000000000000E+00
(PID.TID 0000.0001) // =======================================================
(PID.TID 0000.0001) // End MONITOR SEAICE statistics
(PID.TID 0000.0001) // =======================================================
(PID.TID 0000.0001) // =======================================================
(PID.TID 0000.0001) // Begin MONITOR Therm.SeaIce statistics
(PID.TID 0000.0001) // =======================================================
(PID.TID 0000.0001) %MON thSI_time_sec                =   6.2212320000000E+09
(PID.TID 0000.0001) %MON thSI_Ice_Area_G              =   1.6809713009707E+13
(PID.TID 0000.0001) %MON thSI_Ice_Area_S              =   4.3441373216285E+12
(PID.TID 0000.0001) %MON thSI_Ice_Area_N              =   1.2465575688079E+13
(PID.TID 0000.0001) %MON thSI_IceH_ave_G              =   1.8144237108995E+00
(PID.TID 0000.0001) %MON thSI_IceH_ave_S              =   1.1829151634376E+00
(PID.TID 0000.0001) %MON thSI_IceH_ave_N              =   2.0344985729518E+00
(PID.TID 0000.0001) %MON thSI_IceH_max_S              =   2.1177934061033E+00
(PID.TID 0000.0001) %MON thSI_IceH_max_N              =   5.2073446017086E+00
(PID.TID 0000.0001) %MON thSI_SnwH_ave_G              =   2.0883580749648E-01
(PID.TID 0000.0001) %MON thSI_SnwH_ave_S              =   1.6375519210293E-01
(PID.TID 0000.0001) %MON thSI_SnwH_ave_N              =   2.2454598316051E-01
(PID.TID 0000.0001) %MON thSI_SnwH_max_S              =   5.6934559990167E-01
(PID.TID 0000.0001) %MON thSI_SnwH_max_N              =   4.3533630528863E-01
(PID.TID 0000.0001) %MON thSI_TotEnerg_G              =  -9.9376842169119E+21
(PID.TID 0000.0001) %MON thSI_Tsrf_ave_G              =  -1.9346632405784E+01
(PID.TID 0000.0001) %MON thSI_Tsrf_ave_S              =  -4.2544131694172E-02
(PID.TID 0000.0001) %MON thSI_Tsrf_ave_N              =  -2.6073927833598E+01
(PID.TID 0000.0001) %MON thSI_Tsrf_min_S              =  -5.5418691416660E+00
(PID.TID 0000.0001) %MON thSI_Tsrf_min_N              =  -3.2735208876977E+01
(PID.TID 0000.0001) %MON thSI_Tsrf_max_S              =   0.0000000000000E+00
(PID.TID 0000.0001) %MON thSI_Tsrf_max_N              =  -1.2528593201422E+00
(PID.TID 0000.0001) %MON thSI_Tic1_ave_G              =  -1.0906181148198E+01
(PID.TID 0000.0001) %MON thSI_Tic1_ave_S              =  -1.1935397635775E+00
(PID.TID 0000.0001) %MON thSI_Tic1_ave_N              =  -1.2874179672012E+01
(PID.TID 0000.0001) %MON thSI_Tic1_min_S              =  -2.5548867835843E+00
(PID.TID 0000.0001) %MON thSI_Tic1_min_N              =  -1.8559930683817E+01
(PID.TID 0000.0001) %MON thSI_Tic1_max_S              =  -1.4598502785296E-01
(PID.TID 0000.0001) %MON thSI_Tic1_max_N              =  -2.1518092195055E+00
(PID.TID 0000.0001) %MON thSI_Tic2_ave_G              =  -4.7048601762384E+00
(PID.TID 0000.0001) %MON thSI_Tic2_ave_S              =  -1.5863439513792E+00
(PID.TID 0000.0001) %MON thSI_Tic2_ave_N              =  -5.3367413591197E+00
(PID.TID 0000.0001) %MON thSI_Tic2_min_S              =  -2.0358591303199E+00
(PID.TID 0000.0001) %MON thSI_Tic2_min_N              =  -7.8111439349965E+00
(PID.TID 0000.0001) %MON thSI_Tic2_max_S              =  -7.7909678579283E-01
(PID.TID 0000.0001) %MON thSI_Tic2_max_N              =  -1.9218435105461E+00
(PID.TID 0000.0001) // =======================================================
(PID.TID 0000.0001) // End MONITOR Therm.SeaIce statistics
(PID.TID 0000.0001) // =======================================================
(PID.TID 0000.0001)  exf_GetFFieldsRec:
(PID.TID 0000.0001)  exf_GetFFieldsRec: first, changed, fac:   F   F   0.30000000E+00
(PID.TID 0000.0001)  exf_GetFFieldsRec: myiter, count0, count1:  72005     12      1
(PID.TID 0000.0001)  exf_GetFFieldsRec:
(PID.TID 0000.0001)  exf_GetFFieldsRec:
(PID.TID 0000.0001)  exf_GetFFieldsRec: first, changed, fac:   F   F   0.30000000E+00
(PID.TID 0000.0001)  exf_GetFFieldsRec: myiter, count0, count1:  72005     12      1
(PID.TID 0000.0001)  exf_GetFFieldsRec:
(PID.TID 0000.0001)  exf_GetFFieldsRec:
(PID.TID 0000.0001)  exf_GetFFieldsRec: first, changed, fac:   F   F   0.30000000E+00
(PID.TID 0000.0001)  exf_GetFFieldsRec: myiter, count0, count1:  72005     12      1
(PID.TID 0000.0001)  exf_GetFFieldsRec:
(PID.TID 0000.0001)  exf_GetFFieldsRec:
(PID.TID 0000.0001)  exf_GetFFieldsRec: first, changed, fac:   F   F   0.30000000E+00
(PID.TID 0000.0001)  exf_GetFFieldsRec: myiter, count0, count1:  72005     12      1
(PID.TID 0000.0001)  exf_GetFFieldsRec:
(PID.TID 0000.0001)  exf_GetFFieldsRec:
(PID.TID 0000.0001)  exf_GetFFieldsRec: first, changed, fac:   F   F   0.30000000E+00
(PID.TID 0000.0001)  exf_GetFFieldsRec: myiter, count0, count1:  72005     12      1
(PID.TID 0000.0001)  exf_GetFFieldsRec:
(PID.TID 0000.0001)  exf_GetFFieldsRec:
(PID.TID 0000.0001)  exf_GetFFieldsRec: first, changed, fac:   F   F   0.30000000E+00
(PID.TID 0000.0001)  exf_GetFFieldsRec: myiter, count0, count1:  72005     12      1
(PID.TID 0000.0001)  exf_GetFFieldsRec:
(PID.TID 0000.0001)  exf_GetFFieldsRec:
(PID.TID 0000.0001)  exf_GetFFieldsRec: first, changed, fac:   F   F   0.30000000E+00
(PID.TID 0000.0001)  exf_GetFFieldsRec: myiter, count0, count1:  72005     12      1
(PID.TID 0000.0001)  exf_GetFFieldsRec:
(PID.TID 0000.0001)  exf_GetFFieldsRec:
(PID.TID 0000.0001)  exf_GetFFieldsRec: first, changed, fac:   F   F   0.30000000E+00
(PID.TID 0000.0001)  exf_GetFFieldsRec: myiter, count0, count1:  72005     12      1
(PID.TID 0000.0001)  exf_GetFFieldsRec:
(PID.TID 0000.0001)  exf_GetFFieldsRec:
(PID.TID 0000.0001)  exf_GetFFieldsRec: first, changed, fac:   F   F   0.30000000E+00
(PID.TID 0000.0001)  exf_GetFFieldsRec: myiter, count0, count1:  72005     12      1
(PID.TID 0000.0001)  exf_GetFFieldsRec:
(PID.TID 0000.0001)  exf_GetFFieldsRec:
(PID.TID 0000.0001)  exf_GetFFieldsRec: first, changed, fac:   F   F   0.30000000E+00
(PID.TID 0000.0001)  exf_GetFFieldsRec: myiter, count0, count1:  72005     12      1
(PID.TID 0000.0001)  exf_GetFFieldsRec:
(PID.TID 0000.0001)  exf_GetFFieldsRec:
(PID.TID 0000.0001)  exf_GetFFieldsRec: first, changed, fac:   F   F   0.30000000E+00
(PID.TID 0000.0001)  exf_GetFFieldsRec: myiter, count0, count1:  72005     12      1
(PID.TID 0000.0001)  exf_GetFFieldsRec:
(PID.TID 0000.0001)  exf_GetFFieldsRec:
(PID.TID 0000.0001)  exf_GetFFieldsRec: first, changed, fac:   F   F   0.30000000E+00
(PID.TID 0000.0001)  exf_GetFFieldsRec: myiter, count0, count1:  72005     12      1
(PID.TID 0000.0001)  exf_GetFFieldsRec:
 cg2d: Sum(rhs),rhsMax =   2.21849269029469E+03  2.13709781342324E+01
(PID.TID 0000.0001)                    cg2d_init_res =    2.85443006255873E+00
(PID.TID 0000.0001)                       cg2d_iters =    69
(PID.TID 0000.0001)                         cg2d_res =    5.59959272292941E-07
(PID.TID 0000.0001) // =======================================================
(PID.TID 0000.0001) // Begin MONITOR dynamic field statistics
(PID.TID 0000.0001) // =======================================================
(PID.TID 0000.0001) %MON time_tsnumber                =                 72006
(PID.TID 0000.0001) %MON time_secondsf                =   6.2213184000000E+09
(PID.TID 0000.0001) %MON dynstat_eta_max              =  -2.2125886515464E+00
(PID.TID 0000.0001) %MON dynstat_eta_min              =  -8.3557589266625E+00
(PID.TID 0000.0001) %MON dynstat_eta_mean             =  -3.2996596421305E+00
(PID.TID 0000.0001) %MON dynstat_eta_sd               =   8.7902599037453E-01
(PID.TID 0000.0001) %MON dynstat_eta_del2             =   2.0299057611826E-02
(PID.TID 0000.0001) %MON dynstat_uvel_max             =   2.1400269484067E-01
(PID.TID 0000.0001) %MON dynstat_uvel_min             =  -2.8910288394100E-01
(PID.TID 0000.0001) %MON dynstat_uvel_mean            =  -5.2539553181487E-04
(PID.TID 0000.0001) %MON dynstat_uvel_sd              =   1.4768409616787E-02
(PID.TID 0000.0001) %MON dynstat_uvel_del2            =   2.0201171624284E-03
(PID.TID 0000.0001) %MON dynstat_vvel_max             =   2.1820581582108E-01
(PID.TID 0000.0001) %MON dynstat_vvel_min             =  -2.0098589020726E-01
(PID.TID 0000.0001) %MON dynstat_vvel_mean            =  -3.9730760043220E-04
(PID.TID 0000.0001) %MON dynstat_vvel_sd              =   1.5250921257002E-02
(PID.TID 0000.0001) %MON dynstat_vvel_del2            =   2.0424363037757E-03
(PID.TID 0000.0001) %MON dynstat_wvel_max             =   1.0419324626816E-04
(PID.TID 0000.0001) %MON dynstat_wvel_min             =  -2.1432937427050E-04
(PID.TID 0000.0001) %MON dynstat_wvel_mean            =  -1.5627921638151E-09
(PID.TID 0000.0001) %MON dynstat_wvel_sd              =   5.3565454727797E-06
(PID.TID 0000.0001) %MON dynstat_wvel_del2            =   1.2726623426919E-06
(PID.TID 0000.0001) %MON dynstat_theta_max            =   3.1254164394757E+01
(PID.TID 0000.0001) %MON dynstat_theta_min            =  -6.6536449124483E+00
(PID.TID 0000.0001) %MON dynstat_theta_mean           =   3.0532167274957E+00
(PID.TID 0000.0001) %MON dynstat_theta_sd             =   4.9952197540938E+00
(PID.TID 0000.0001) %MON dynstat_theta_del2           =   9.8192806334915E-02
(PID.TID 0000.0001) %MON dynstat_salt_max             =   5.9560604868095E+01
(PID.TID 0000.0001) %MON dynstat_salt_min             =   1.7775843771606E+01
(PID.TID 0000.0001) %MON dynstat_salt_mean            =   3.4752517917592E+01
(PID.TID 0000.0001) %MON dynstat_salt_sd              =   4.8909039060905E-01
(PID.TID 0000.0001) %MON dynstat_salt_del2            =   2.4188610014823E-02
(PID.TID 0000.0001) %MON extforcing_qnet_max          =   6.5801911662625E+02
(PID.TID 0000.0001) %MON extforcing_qnet_min          =  -2.5363606606224E+02
(PID.TID 0000.0001) %MON extforcing_qnet_mean         =  -1.3967831775785E+01
(PID.TID 0000.0001) %MON extforcing_qnet_sd           =   1.2426232363039E+02
(PID.TID 0000.0001) %MON extforcing_qnet_del2         =   9.8594704123820E+00
(PID.TID 0000.0001) %MON extforcing_qsw_max           =   0.0000000000000E+00
(PID.TID 0000.0001) %MON extforcing_qsw_min           =  -3.0184329151467E+02
(PID.TID 0000.0001) %MON extforcing_qsw_mean          =  -1.8309127836081E+02
(PID.TID 0000.0001) %MON extforcing_qsw_sd            =   7.9432685321472E+01
(PID.TID 0000.0001) %MON extforcing_qsw_del2          =   2.1690732472714E+00
(PID.TID 0000.0001) %MON extforcing_empmr_max         =   7.2322220087934E-04
(PID.TID 0000.0001) %MON extforcing_empmr_min         =  -4.3773249456027E-04
(PID.TID 0000.0001) %MON extforcing_empmr_mean        =  -3.2928909120422E-07
(PID.TID 0000.0001) %MON extforcing_empmr_sd          =   5.9219801217276E-05
(PID.TID 0000.0001) %MON extforcing_empmr_del2        =   7.6778498543987E-06
(PID.TID 0000.0001) %MON advcfl_uvel_max              =   8.4719619949751E-02
(PID.TID 0000.0001) %MON advcfl_vvel_max              =   8.4022072656576E-02
(PID.TID 0000.0001) %MON advcfl_wvel_max              =   6.9879463913099E-02
(PID.TID 0000.0001) %MON advcfl_W_hf_max              =   7.7314440047684E-02
(PID.TID 0000.0001) %MON pe_b_mean                    =   1.4343972487082E-02
(PID.TID 0000.0001) %MON ke_max                       =   4.1164863034885E-02
(PID.TID 0000.0001) %MON ke_mean                      =   2.0830105235051E-04
(PID.TID 0000.0001) %MON ke_vol                       =   1.3386017329780E+18
(PID.TID 0000.0001) %MON vort_r_min                   =  -1.2572893799795E-06
(PID.TID 0000.0001) %MON vort_r_max                   =   1.2837406918067E-06
(PID.TID 0000.0001) %MON vort_a_mean                  =  -2.0549865324846E-05
(PID.TID 0000.0001) %MON vort_a_sd                    =   7.5259722937128E-05
(PID.TID 0000.0001) %MON vort_p_mean                  =  -2.4806336225450E-05
(PID.TID 0000.0001) %MON vort_p_sd                    =   1.2827604254306E-04
(PID.TID 0000.0001) %MON surfExpan_theta_mean         =   4.3072263094646E-08
(PID.TID 0000.0001) %MON surfExpan_salt_mean          =   2.2629459770392E-08
(PID.TID 0000.0001) // =======================================================
(PID.TID 0000.0001) // End MONITOR dynamic field statistics
(PID.TID 0000.0001) // =======================================================
(PID.TID 0000.0001) // =======================================================
(PID.TID 0000.0001) // Begin MONITOR SEAICE statistics
(PID.TID 0000.0001) // =======================================================
(PID.TID 0000.0001) %MON seaice_tsnumber              =                 72006
(PID.TID 0000.0001) %MON seaice_time_sec              =   6.2213184000000E+09
(PID.TID 0000.0001) %MON seaice_area_max              =   1.0000000000000E+00
(PID.TID 0000.0001) %MON seaice_area_min              =   0.0000000000000E+00
(PID.TID 0000.0001) %MON seaice_area_mean             =   4.6194904284827E-02
(PID.TID 0000.0001) %MON seaice_area_sd               =   1.9040872800989E-01
(PID.TID 0000.0001) %MON seaice_area_del2             =   6.5497930706212E-03
(PID.TID 0000.0001) %MON seaice_heff_max              =   5.2073446017086E+00
(PID.TID 0000.0001) %MON seaice_heff_min              =   0.0000000000000E+00
(PID.TID 0000.0001) %MON seaice_heff_mean             =   8.3817129657120E-02
(PID.TID 0000.0001) %MON seaice_heff_sd               =   4.0375761746980E-01
(PID.TID 0000.0001) %MON seaice_heff_del2             =   1.0114922223662E-02
(PID.TID 0000.0001) %MON seaice_hsnow_max             =   0.0000000000000E+00
(PID.TID 0000.0001) %MON seaice_hsnow_min             =   0.0000000000000E+00
(PID.TID 0000.0001) %MON seaice_hsnow_mean            =   0.0000000000000E+00
(PID.TID 0000.0001) %MON seaice_hsnow_sd              =   0.0000000000000E+00
(PID.TID 0000.0001) %MON seaice_hsnow_del2            =   0.0000000000000E+00
(PID.TID 0000.0001) // =======================================================
(PID.TID 0000.0001) // End MONITOR SEAICE statistics
(PID.TID 0000.0001) // =======================================================
(PID.TID 0000.0001) // =======================================================
(PID.TID 0000.0001) // Begin MONITOR Therm.SeaIce statistics
(PID.TID 0000.0001) // =======================================================
(PID.TID 0000.0001) %MON thSI_time_sec                =   6.2213184000000E+09
(PID.TID 0000.0001) %MON thSI_Ice_Area_G              =   1.6696946931473E+13
(PID.TID 0000.0001) %MON thSI_Ice_Area_S              =   4.2045933722063E+12
(PID.TID 0000.0001) %MON thSI_Ice_Area_N              =   1.2492353559267E+13
(PID.TID 0000.0001) %MON thSI_IceH_ave_G              =   1.8250534801863E+00
(PID.TID 0000.0001) %MON thSI_IceH_ave_S              =   1.1851839239208E+00
(PID.TID 0000.0001) %MON thSI_IceH_ave_N              =   2.0404165246748E+00
(PID.TID 0000.0001) %MON thSI_IceH_max_S              =   2.1161791217222E+00
(PID.TID 0000.0001) %MON thSI_IceH_max_N              =   5.2086138544759E+00
(PID.TID 0000.0001) %MON thSI_SnwH_ave_G              =   2.0925539367881E-01
(PID.TID 0000.0001) %MON thSI_SnwH_ave_S              =   1.5813669704835E-01
(PID.TID 0000.0001) %MON thSI_SnwH_ave_N              =   2.2646058500073E-01
(PID.TID 0000.0001) %MON thSI_SnwH_max_S              =   5.6353570693324E-01
(PID.TID 0000.0001) %MON thSI_SnwH_max_N              =   4.3976619556086E-01
(PID.TID 0000.0001) %MON thSI_TotEnerg_G              =  -9.9278048427766E+21
(PID.TID 0000.0001) %MON thSI_Tsrf_ave_G              =  -1.9550426381705E+01
(PID.TID 0000.0001) %MON thSI_Tsrf_ave_S              =  -4.3812596215337E-02
(PID.TID 0000.0001) %MON thSI_Tsrf_ave_N              =  -2.6115832863962E+01
(PID.TID 0000.0001) %MON thSI_Tsrf_min_S              =  -5.5684701880703E+00
(PID.TID 0000.0001) %MON thSI_Tsrf_min_N              =  -3.2737048659768E+01
(PID.TID 0000.0001) %MON thSI_Tsrf_max_S              =   0.0000000000000E+00
(PID.TID 0000.0001) %MON thSI_Tsrf_max_N              =  -1.2912041252320E+00
(PID.TID 0000.0001) %MON thSI_Tic1_ave_G              =  -1.0966080125943E+01
(PID.TID 0000.0001) %MON thSI_Tic1_ave_S              =  -1.1489345640097E+00
(PID.TID 0000.0001) %MON thSI_Tic1_ave_N              =  -1.2885331607779E+01
(PID.TID 0000.0001) %MON thSI_Tic1_min_S              =  -2.5529658168931E+00
(PID.TID 0000.0001) %MON thSI_Tic1_min_N              =  -1.8562502709273E+01
(PID.TID 0000.0001) %MON thSI_Tic1_max_S              =  -1.4183448476729E-01
(PID.TID 0000.0001) %MON thSI_Tic1_max_N              =  -2.5493343665909E+00
(PID.TID 0000.0001) %MON thSI_Tic2_ave_G              =  -4.7276160460553E+00
(PID.TID 0000.0001) %MON thSI_Tic2_ave_S              =  -1.5685778521579E+00
(PID.TID 0000.0001) %MON thSI_Tic2_ave_N              =  -5.3452078599449E+00
(PID.TID 0000.0001) %MON thSI_Tic2_min_S              =  -2.0304074039744E+00
(PID.TID 0000.0001) %MON thSI_Tic2_min_N              =  -7.8315253627280E+00
(PID.TID 0000.0001) %MON thSI_Tic2_max_S              =  -7.3868493334858E-01
(PID.TID 0000.0001) %MON thSI_Tic2_max_N              =  -2.0309143234735E+00
(PID.TID 0000.0001) // =======================================================
(PID.TID 0000.0001) // End MONITOR Therm.SeaIce statistics
(PID.TID 0000.0001) // =======================================================
(PID.TID 0000.0001)  exf_GetFFieldsRec:
(PID.TID 0000.0001)  exf_GetFFieldsRec: first, changed, fac:   F   F   0.26666667E+00
(PID.TID 0000.0001)  exf_GetFFieldsRec: myiter, count0, count1:  72006     12      1
(PID.TID 0000.0001)  exf_GetFFieldsRec:
(PID.TID 0000.0001)  exf_GetFFieldsRec:
(PID.TID 0000.0001)  exf_GetFFieldsRec: first, changed, fac:   F   F   0.26666667E+00
(PID.TID 0000.0001)  exf_GetFFieldsRec: myiter, count0, count1:  72006     12      1
(PID.TID 0000.0001)  exf_GetFFieldsRec:
(PID.TID 0000.0001)  exf_GetFFieldsRec:
(PID.TID 0000.0001)  exf_GetFFieldsRec: first, changed, fac:   F   F   0.26666667E+00
(PID.TID 0000.0001)  exf_GetFFieldsRec: myiter, count0, count1:  72006     12      1
(PID.TID 0000.0001)  exf_GetFFieldsRec:
(PID.TID 0000.0001)  exf_GetFFieldsRec:
(PID.TID 0000.0001)  exf_GetFFieldsRec: first, changed, fac:   F   F   0.26666667E+00
(PID.TID 0000.0001)  exf_GetFFieldsRec: myiter, count0, count1:  72006     12      1
(PID.TID 0000.0001)  exf_GetFFieldsRec:
(PID.TID 0000.0001)  exf_GetFFieldsRec:
(PID.TID 0000.0001)  exf_GetFFieldsRec: first, changed, fac:   F   F   0.26666667E+00
(PID.TID 0000.0001)  exf_GetFFieldsRec: myiter, count0, count1:  72006     12      1
(PID.TID 0000.0001)  exf_GetFFieldsRec:
(PID.TID 0000.0001)  exf_GetFFieldsRec:
(PID.TID 0000.0001)  exf_GetFFieldsRec: first, changed, fac:   F   F   0.26666667E+00
(PID.TID 0000.0001)  exf_GetFFieldsRec: myiter, count0, count1:  72006     12      1
(PID.TID 0000.0001)  exf_GetFFieldsRec:
(PID.TID 0000.0001)  exf_GetFFieldsRec:
(PID.TID 0000.0001)  exf_GetFFieldsRec: first, changed, fac:   F   F   0.26666667E+00
(PID.TID 0000.0001)  exf_GetFFieldsRec: myiter, count0, count1:  72006     12      1
(PID.TID 0000.0001)  exf_GetFFieldsRec:
(PID.TID 0000.0001)  exf_GetFFieldsRec:
(PID.TID 0000.0001)  exf_GetFFieldsRec: first, changed, fac:   F   F   0.26666667E+00
(PID.TID 0000.0001)  exf_GetFFieldsRec: myiter, count0, count1:  72006     12      1
(PID.TID 0000.0001)  exf_GetFFieldsRec:
(PID.TID 0000.0001)  exf_GetFFieldsRec:
(PID.TID 0000.0001)  exf_GetFFieldsRec: first, changed, fac:   F   F   0.26666667E+00
(PID.TID 0000.0001)  exf_GetFFieldsRec: myiter, count0, count1:  72006     12      1
(PID.TID 0000.0001)  exf_GetFFieldsRec:
(PID.TID 0000.0001)  exf_GetFFieldsRec:
(PID.TID 0000.0001)  exf_GetFFieldsRec: first, changed, fac:   F   F   0.26666667E+00
(PID.TID 0000.0001)  exf_GetFFieldsRec: myiter, count0, count1:  72006     12      1
(PID.TID 0000.0001)  exf_GetFFieldsRec:
(PID.TID 0000.0001)  exf_GetFFieldsRec:
(PID.TID 0000.0001)  exf_GetFFieldsRec: first, changed, fac:   F   F   0.26666667E+00
(PID.TID 0000.0001)  exf_GetFFieldsRec: myiter, count0, count1:  72006     12      1
(PID.TID 0000.0001)  exf_GetFFieldsRec:
(PID.TID 0000.0001)  exf_GetFFieldsRec:
(PID.TID 0000.0001)  exf_GetFFieldsRec: first, changed, fac:   F   F   0.26666667E+00
(PID.TID 0000.0001)  exf_GetFFieldsRec: myiter, count0, count1:  72006     12      1
(PID.TID 0000.0001)  exf_GetFFieldsRec:
 cg2d: Sum(rhs),rhsMax =   2.21849243734771E+03  2.13366879649507E+01
(PID.TID 0000.0001)                    cg2d_init_res =    2.86877964043373E+00
(PID.TID 0000.0001)                       cg2d_iters =    70
(PID.TID 0000.0001)                         cg2d_res =    4.79036383597096E-07
(PID.TID 0000.0001) // =======================================================
(PID.TID 0000.0001) // Begin MONITOR dynamic field statistics
(PID.TID 0000.0001) // =======================================================
(PID.TID 0000.0001) %MON time_tsnumber                =                 72007
(PID.TID 0000.0001) %MON time_secondsf                =   6.2214048000000E+09
(PID.TID 0000.0001) %MON dynstat_eta_max              =  -2.2132430682897E+00
(PID.TID 0000.0001) %MON dynstat_eta_min              =  -8.3591894444194E+00
(PID.TID 0000.0001) %MON dynstat_eta_mean             =  -3.2996592659116E+00
(PID.TID 0000.0001) %MON dynstat_eta_sd               =   8.7850387339967E-01
(PID.TID 0000.0001) %MON dynstat_eta_del2             =   2.0196787369722E-02
(PID.TID 0000.0001) %MON dynstat_uvel_max             =   2.1394055170650E-01
(PID.TID 0000.0001) %MON dynstat_uvel_min             =  -2.8867977996802E-01
(PID.TID 0000.0001) %MON dynstat_uvel_mean            =  -5.2471237292100E-04
(PID.TID 0000.0001) %MON dynstat_uvel_sd              =   1.4764538485174E-02
(PID.TID 0000.0001) %MON dynstat_uvel_del2            =   2.0196606416622E-03
(PID.TID 0000.0001) %MON dynstat_vvel_max             =   2.1742639173070E-01
(PID.TID 0000.0001) %MON dynstat_vvel_min             =  -2.0102825868815E-01
(PID.TID 0000.0001) %MON dynstat_vvel_mean            =  -3.9661322922723E-04
(PID.TID 0000.0001) %MON dynstat_vvel_sd              =   1.5251514648809E-02
(PID.TID 0000.0001) %MON dynstat_vvel_del2            =   2.0418819261585E-03
(PID.TID 0000.0001) %MON dynstat_wvel_max             =   1.0478146393387E-04
(PID.TID 0000.0001) %MON dynstat_wvel_min             =  -2.1417466920568E-04
(PID.TID 0000.0001) %MON dynstat_wvel_mean            =  -1.4286812685254E-09
(PID.TID 0000.0001) %MON dynstat_wvel_sd              =   5.3545579354152E-06
(PID.TID 0000.0001) %MON dynstat_wvel_del2            =   1.2717005211481E-06
(PID.TID 0000.0001) %MON dynstat_theta_max            =   3.1262768561913E+01
(PID.TID 0000.0001) %MON dynstat_theta_min            =  -6.6548414524716E+00
(PID.TID 0000.0001) %MON dynstat_theta_mean           =   3.0532945370248E+00
(PID.TID 0000.0001) %MON dynstat_theta_sd             =   4.9952901398442E+00
(PID.TID 0000.0001) %MON dynstat_theta_del2           =   9.8217794895853E-02
(PID.TID 0000.0001) %MON dynstat_salt_max             =   5.9567338736047E+01
(PID.TID 0000.0001) %MON dynstat_salt_min             =   1.7775850678752E+01
(PID.TID 0000.0001) %MON dynstat_salt_mean            =   3.4752517958721E+01
(PID.TID 0000.0001) %MON dynstat_salt_sd              =   4.8908472983161E-01
(PID.TID 0000.0001) %MON dynstat_salt_del2            =   2.4191819271494E-02
(PID.TID 0000.0001) %MON extforcing_qnet_max          =   6.5968193381613E+02
(PID.TID 0000.0001) %MON extforcing_qnet_min          =  -2.5364378704587E+02
(PID.TID 0000.0001) %MON extforcing_qnet_mean         =  -1.3947892228598E+01
(PID.TID 0000.0001) %MON extforcing_qnet_sd           =   1.2404269877336E+02
(PID.TID 0000.0001) %MON extforcing_qnet_del2         =   9.8920086550026E+00
(PID.TID 0000.0001) %MON extforcing_qsw_max           =   0.0000000000000E+00
(PID.TID 0000.0001) %MON extforcing_qsw_min           =  -3.0183129457886E+02
(PID.TID 0000.0001) %MON extforcing_qsw_mean          =  -1.8319099248017E+02
(PID.TID 0000.0001) %MON extforcing_qsw_sd            =   7.9361548127970E+01
(PID.TID 0000.0001) %MON extforcing_qsw_del2          =   2.1517418981813E+00
(PID.TID 0000.0001) %MON extforcing_empmr_max         =   7.1199115671876E-04
(PID.TID 0000.0001) %MON extforcing_empmr_min         =  -4.3990679492565E-04
(PID.TID 0000.0001) %MON extforcing_empmr_mean        =  -4.5067892225184E-09
(PID.TID 0000.0001) %MON extforcing_empmr_sd          =   5.7863739537150E-05
(PID.TID 0000.0001) %MON extforcing_empmr_del2        =   7.4758803514177E-06
(PID.TID 0000.0001) %MON advcfl_uvel_max              =   8.4845588242871E-02
(PID.TID 0000.0001) %MON advcfl_vvel_max              =   8.4072453309767E-02
(PID.TID 0000.0001) %MON advcfl_wvel_max              =   6.9829024224039E-02
(PID.TID 0000.0001) %MON advcfl_W_hf_max              =   7.7259651197926E-02
(PID.TID 0000.0001) %MON pe_b_mean                    =   1.4343531406390E-02
(PID.TID 0000.0001) %MON ke_max                       =   4.1026777228834E-02
(PID.TID 0000.0001) %MON ke_mean                      =   2.0825634911032E-04
(PID.TID 0000.0001) %MON ke_vol                       =   1.3386017429807E+18
(PID.TID 0000.0001) %MON vort_r_min                   =  -1.2632750709373E-06
(PID.TID 0000.0001) %MON vort_r_max                   =   1.2810735888489E-06
(PID.TID 0000.0001) %MON vort_a_mean                  =  -2.0549865324846E-05
(PID.TID 0000.0001) %MON vort_a_sd                    =   7.5259722814443E-05
(PID.TID 0000.0001) %MON vort_p_mean                  =  -2.4806335687386E-05
(PID.TID 0000.0001) %MON vort_p_sd                    =   1.2827604214412E-04
(PID.TID 0000.0001) %MON surfExpan_theta_mean         =   4.4232739138231E-08
(PID.TID 0000.0001) %MON surfExpan_salt_mean          =   2.2975574474555E-08
(PID.TID 0000.0001) // =======================================================
(PID.TID 0000.0001) // End MONITOR dynamic field statistics
(PID.TID 0000.0001) // =======================================================
(PID.TID 0000.0001) // =======================================================
(PID.TID 0000.0001) // Begin MONITOR SEAICE statistics
(PID.TID 0000.0001) // =======================================================
(PID.TID 0000.0001) %MON seaice_tsnumber              =                 72007
(PID.TID 0000.0001) %MON seaice_time_sec              =   6.2214048000000E+09
(PID.TID 0000.0001) %MON seaice_area_max              =   1.0000000000000E+00
(PID.TID 0000.0001) %MON seaice_area_min              =   0.0000000000000E+00
(PID.TID 0000.0001) %MON seaice_area_mean             =   4.5885010939973E-02
(PID.TID 0000.0001) %MON seaice_area_sd               =   1.9033296823437E-01
(PID.TID 0000.0001) %MON seaice_area_del2             =   6.5086986868911E-03
(PID.TID 0000.0001) %MON seaice_heff_max              =   5.2086138544759E+00
(PID.TID 0000.0001) %MON seaice_heff_min              =   0.0000000000000E+00
(PID.TID 0000.0001) %MON seaice_heff_mean             =   8.3742598904385E-02
(PID.TID 0000.0001) %MON seaice_heff_sd               =   4.0445127881184E-01
(PID.TID 0000.0001) %MON seaice_heff_del2             =   9.9998767149403E-03
(PID.TID 0000.0001) %MON seaice_hsnow_max             =   0.0000000000000E+00
(PID.TID 0000.0001) %MON seaice_hsnow_min             =   0.0000000000000E+00
(PID.TID 0000.0001) %MON seaice_hsnow_mean            =   0.0000000000000E+00
(PID.TID 0000.0001) %MON seaice_hsnow_sd              =   0.0000000000000E+00
(PID.TID 0000.0001) %MON seaice_hsnow_del2            =   0.0000000000000E+00
(PID.TID 0000.0001) // =======================================================
(PID.TID 0000.0001) // End MONITOR SEAICE statistics
(PID.TID 0000.0001) // =======================================================
(PID.TID 0000.0001) // =======================================================
(PID.TID 0000.0001) // Begin MONITOR Therm.SeaIce statistics
(PID.TID 0000.0001) // =======================================================
(PID.TID 0000.0001) %MON thSI_time_sec                =   6.2214048000000E+09
(PID.TID 0000.0001) %MON thSI_Ice_Area_G              =   1.6645136042173E+13
(PID.TID 0000.0001) %MON thSI_Ice_Area_S              =   4.0836471163502E+12
(PID.TID 0000.0001) %MON thSI_Ice_Area_N              =   1.2561488925823E+13
(PID.TID 0000.0001) %MON thSI_IceH_ave_G              =   1.8295884031448E+00
(PID.TID 0000.0001) %MON thSI_IceH_ave_S              =   1.1834901674968E+00
(PID.TID 0000.0001) %MON thSI_IceH_ave_N              =   2.0396301595371E+00
(PID.TID 0000.0001) %MON thSI_IceH_max_S              =   2.1145518401065E+00
(PID.TID 0000.0001) %MON thSI_IceH_max_N              =   5.2098962065416E+00
(PID.TID 0000.0001) %MON thSI_SnwH_ave_G              =   2.0913412479652E-01
(PID.TID 0000.0001) %MON thSI_SnwH_ave_S              =   1.5180340086932E-01
(PID.TID 0000.0001) %MON thSI_SnwH_ave_N              =   2.2777191899640E-01
(PID.TID 0000.0001) %MON thSI_SnwH_max_S              =   5.5736131195816E-01
(PID.TID 0000.0001) %MON thSI_SnwH_max_N              =   4.4424001572431E-01
(PID.TID 0000.0001) %MON thSI_TotEnerg_G              =  -9.9207140469120E+21
(PID.TID 0000.0001) %MON thSI_Tsrf_ave_G              =  -1.9694003288548E+01
(PID.TID 0000.0001) %MON thSI_Tsrf_ave_S              =  -4.4125919562386E-02
(PID.TID 0000.0001) %MON thSI_Tsrf_ave_N              =  -2.6082033045875E+01
(PID.TID 0000.0001) %MON thSI_Tsrf_min_S              =  -5.5913232171307E+00
(PID.TID 0000.0001) %MON thSI_Tsrf_min_N              =  -3.2738946434683E+01
(PID.TID 0000.0001) %MON thSI_Tsrf_max_S              =   0.0000000000000E+00
(PID.TID 0000.0001) %MON thSI_Tsrf_max_N              =  -1.3310796694371E+00
(PID.TID 0000.0001) %MON thSI_Tic1_ave_G              =  -1.1023105003338E+01
(PID.TID 0000.0001) %MON thSI_Tic1_ave_S              =  -1.1102456199437E+00
(PID.TID 0000.0001) %MON thSI_Tic1_ave_N              =  -1.2893008788730E+01
(PID.TID 0000.0001) %MON thSI_Tic1_min_S              =  -2.5517983609472E+00
(PID.TID 0000.0001) %MON thSI_Tic1_min_N              =  -1.8554634442787E+01
(PID.TID 0000.0001) %MON thSI_Tic1_max_S              =  -1.3675313346183E-01
(PID.TID 0000.0001) %MON thSI_Tic1_max_N              =  -2.2042966688503E+00
(PID.TID 0000.0001) %MON thSI_Tic2_ave_G              =  -4.7492443012727E+00
(PID.TID 0000.0001) %MON thSI_Tic2_ave_S              =  -1.5520760449835E+00
(PID.TID 0000.0001) %MON thSI_Tic2_ave_N              =  -5.3523394117495E+00
(PID.TID 0000.0001) %MON thSI_Tic2_min_S              =  -2.0289926636676E+00
(PID.TID 0000.0001) %MON thSI_Tic2_min_N              =  -7.8508305907005E+00
(PID.TID 0000.0001) %MON thSI_Tic2_max_S              =  -7.0025980413934E-01
(PID.TID 0000.0001) %MON thSI_Tic2_max_N              =  -1.9345355426793E+00
(PID.TID 0000.0001) // =======================================================
(PID.TID 0000.0001) // End MONITOR Therm.SeaIce statistics
(PID.TID 0000.0001) // =======================================================
(PID.TID 0000.0001)  exf_GetFFieldsRec:
(PID.TID 0000.0001)  exf_GetFFieldsRec: first, changed, fac:   F   F   0.23333333E+00
(PID.TID 0000.0001)  exf_GetFFieldsRec: myiter, count0, count1:  72007     12      1
(PID.TID 0000.0001)  exf_GetFFieldsRec:
(PID.TID 0000.0001)  exf_GetFFieldsRec:
(PID.TID 0000.0001)  exf_GetFFieldsRec: first, changed, fac:   F   F   0.23333333E+00
(PID.TID 0000.0001)  exf_GetFFieldsRec: myiter, count0, count1:  72007     12      1
(PID.TID 0000.0001)  exf_GetFFieldsRec:
(PID.TID 0000.0001)  exf_GetFFieldsRec:
(PID.TID 0000.0001)  exf_GetFFieldsRec: first, changed, fac:   F   F   0.23333333E+00
(PID.TID 0000.0001)  exf_GetFFieldsRec: myiter, count0, count1:  72007     12      1
(PID.TID 0000.0001)  exf_GetFFieldsRec:
(PID.TID 0000.0001)  exf_GetFFieldsRec:
(PID.TID 0000.0001)  exf_GetFFieldsRec: first, changed, fac:   F   F   0.23333333E+00
(PID.TID 0000.0001)  exf_GetFFieldsRec: myiter, count0, count1:  72007     12      1
(PID.TID 0000.0001)  exf_GetFFieldsRec:
(PID.TID 0000.0001)  exf_GetFFieldsRec:
(PID.TID 0000.0001)  exf_GetFFieldsRec: first, changed, fac:   F   F   0.23333333E+00
(PID.TID 0000.0001)  exf_GetFFieldsRec: myiter, count0, count1:  72007     12      1
(PID.TID 0000.0001)  exf_GetFFieldsRec:
(PID.TID 0000.0001)  exf_GetFFieldsRec:
(PID.TID 0000.0001)  exf_GetFFieldsRec: first, changed, fac:   F   F   0.23333333E+00
(PID.TID 0000.0001)  exf_GetFFieldsRec: myiter, count0, count1:  72007     12      1
(PID.TID 0000.0001)  exf_GetFFieldsRec:
(PID.TID 0000.0001)  exf_GetFFieldsRec:
(PID.TID 0000.0001)  exf_GetFFieldsRec: first, changed, fac:   F   F   0.23333333E+00
(PID.TID 0000.0001)  exf_GetFFieldsRec: myiter, count0, count1:  72007     12      1
(PID.TID 0000.0001)  exf_GetFFieldsRec:
(PID.TID 0000.0001)  exf_GetFFieldsRec:
(PID.TID 0000.0001)  exf_GetFFieldsRec: first, changed, fac:   F   F   0.23333333E+00
(PID.TID 0000.0001)  exf_GetFFieldsRec: myiter, count0, count1:  72007     12      1
(PID.TID 0000.0001)  exf_GetFFieldsRec:
(PID.TID 0000.0001)  exf_GetFFieldsRec:
(PID.TID 0000.0001)  exf_GetFFieldsRec: first, changed, fac:   F   F   0.23333333E+00
(PID.TID 0000.0001)  exf_GetFFieldsRec: myiter, count0, count1:  72007     12      1
(PID.TID 0000.0001)  exf_GetFFieldsRec:
(PID.TID 0000.0001)  exf_GetFFieldsRec:
(PID.TID 0000.0001)  exf_GetFFieldsRec: first, changed, fac:   F   F   0.23333333E+00
(PID.TID 0000.0001)  exf_GetFFieldsRec: myiter, count0, count1:  72007     12      1
(PID.TID 0000.0001)  exf_GetFFieldsRec:
(PID.TID 0000.0001)  exf_GetFFieldsRec:
(PID.TID 0000.0001)  exf_GetFFieldsRec: first, changed, fac:   F   F   0.23333333E+00
(PID.TID 0000.0001)  exf_GetFFieldsRec: myiter, count0, count1:  72007     12      1
(PID.TID 0000.0001)  exf_GetFFieldsRec:
(PID.TID 0000.0001)  exf_GetFFieldsRec:
(PID.TID 0000.0001)  exf_GetFFieldsRec: first, changed, fac:   F   F   0.23333333E+00
(PID.TID 0000.0001)  exf_GetFFieldsRec: myiter, count0, count1:  72007     12      1
(PID.TID 0000.0001)  exf_GetFFieldsRec:
 cg2d: Sum(rhs),rhsMax =   2.21847558951974E+03  2.12765093605312E+01
(PID.TID 0000.0001)                    cg2d_init_res =    2.93397259267516E+00
(PID.TID 0000.0001)                       cg2d_iters =    69
(PID.TID 0000.0001)                         cg2d_res =    5.68220614425204E-07
(PID.TID 0000.0001) // =======================================================
(PID.TID 0000.0001) // Begin MONITOR dynamic field statistics
(PID.TID 0000.0001) // =======================================================
(PID.TID 0000.0001) %MON time_tsnumber                =                 72008
(PID.TID 0000.0001) %MON time_secondsf                =   6.2214912000000E+09
(PID.TID 0000.0001) %MON dynstat_eta_max              =  -2.2128894663721E+00
(PID.TID 0000.0001) %MON dynstat_eta_min              =  -8.3627205429582E+00
(PID.TID 0000.0001) %MON dynstat_eta_mean             =  -3.2996342074120E+00
(PID.TID 0000.0001) %MON dynstat_eta_sd               =   8.7796182367562E-01
(PID.TID 0000.0001) %MON dynstat_eta_del2             =   2.0129457708697E-02
(PID.TID 0000.0001) %MON dynstat_uvel_max             =   2.1411227038551E-01
(PID.TID 0000.0001) %MON dynstat_uvel_min             =  -2.8823992037461E-01
(PID.TID 0000.0001) %MON dynstat_uvel_mean            =  -5.2400137547480E-04
(PID.TID 0000.0001) %MON dynstat_uvel_sd              =   1.4760745709564E-02
(PID.TID 0000.0001) %MON dynstat_uvel_del2            =   2.0192563076462E-03
(PID.TID 0000.0001) %MON dynstat_vvel_max             =   2.1662458589127E-01
(PID.TID 0000.0001) %MON dynstat_vvel_min             =  -2.0106625693912E-01
(PID.TID 0000.0001) %MON dynstat_vvel_mean            =  -3.9591268673064E-04
(PID.TID 0000.0001) %MON dynstat_vvel_sd              =   1.5251741945129E-02
(PID.TID 0000.0001) %MON dynstat_vvel_del2            =   2.0414491230184E-03
(PID.TID 0000.0001) %MON dynstat_wvel_max             =   1.0537190586370E-04
(PID.TID 0000.0001) %MON dynstat_wvel_min             =  -2.1396881095779E-04
(PID.TID 0000.0001) %MON dynstat_wvel_mean            =  -1.4778333095479E-09
(PID.TID 0000.0001) %MON dynstat_wvel_sd              =   5.3529076373813E-06
(PID.TID 0000.0001) %MON dynstat_wvel_del2            =   1.2707283621333E-06
(PID.TID 0000.0001) %MON dynstat_theta_max            =   3.1270805019050E+01
(PID.TID 0000.0001) %MON dynstat_theta_min            =  -6.6559093478371E+00
(PID.TID 0000.0001) %MON dynstat_theta_mean           =   3.0533710663022E+00
(PID.TID 0000.0001) %MON dynstat_theta_sd             =   4.9953624126191E+00
(PID.TID 0000.0001) %MON dynstat_theta_del2           =   9.8219979446159E-02
(PID.TID 0000.0001) %MON dynstat_salt_max             =   5.9572666412299E+01
(PID.TID 0000.0001) %MON dynstat_salt_min             =   1.7775847828770E+01
(PID.TID 0000.0001) %MON dynstat_salt_mean            =   3.4752517793384E+01
(PID.TID 0000.0001) %MON dynstat_salt_sd              =   4.8907920613983E-01
(PID.TID 0000.0001) %MON dynstat_salt_del2            =   2.4190351462110E-02
(PID.TID 0000.0001) %MON extforcing_qnet_max          =   6.6132676974377E+02
(PID.TID 0000.0001) %MON extforcing_qnet_min          =  -2.5364261522827E+02
(PID.TID 0000.0001) %MON extforcing_qnet_mean         =  -1.3719944240163E+01
(PID.TID 0000.0001) %MON extforcing_qnet_sd           =   1.2424363266043E+02
(PID.TID 0000.0001) %MON extforcing_qnet_del2         =   1.0029740179519E+01
(PID.TID 0000.0001) %MON extforcing_qsw_max           =   0.0000000000000E+00
(PID.TID 0000.0001) %MON extforcing_qsw_min           =  -3.0181929764305E+02
(PID.TID 0000.0001) %MON extforcing_qsw_mean          =  -1.8328694787237E+02
(PID.TID 0000.0001) %MON extforcing_qsw_sd            =   7.9291107688178E+01
(PID.TID 0000.0001) %MON extforcing_qsw_del2          =   2.1379977418252E+00
(PID.TID 0000.0001) %MON extforcing_empmr_max         =   6.9785810173119E-04
(PID.TID 0000.0001) %MON extforcing_empmr_min         =  -4.8255191681497E-04
(PID.TID 0000.0001) %MON extforcing_empmr_mean        =  -3.0017994219971E-07
(PID.TID 0000.0001) %MON extforcing_empmr_sd          =   5.8632432772621E-05
(PID.TID 0000.0001) %MON extforcing_empmr_del2        =   7.7991349011264E-06
(PID.TID 0000.0001) %MON advcfl_uvel_max              =   8.4965912020749E-02
(PID.TID 0000.0001) %MON advcfl_vvel_max              =   8.4101468371840E-02
(PID.TID 0000.0001) %MON advcfl_wvel_max              =   6.9761906666993E-02
(PID.TID 0000.0001) %MON advcfl_W_hf_max              =   7.7186496003477E-02
(PID.TID 0000.0001) %MON pe_b_mean                    =   1.4343113418153E-02
(PID.TID 0000.0001) %MON ke_max                       =   4.0885010613965E-02
(PID.TID 0000.0001) %MON ke_mean                      =   2.0820752869135E-04
(PID.TID 0000.0001) %MON ke_vol                       =   1.3386017431176E+18
(PID.TID 0000.0001) %MON vort_r_min                   =  -1.2694049446636E-06
(PID.TID 0000.0001) %MON vort_r_max                   =   1.2784887856151E-06
(PID.TID 0000.0001) %MON vort_a_mean                  =  -2.0549865324846E-05
(PID.TID 0000.0001) %MON vort_a_sd                    =   7.5259722693774E-05
(PID.TID 0000.0001) %MON vort_p_mean                  =  -2.4806335335696E-05
(PID.TID 0000.0001) %MON vort_p_sd                    =   1.2827604639473E-04
(PID.TID 0000.0001) %MON surfExpan_theta_mean         =   4.4480434791086E-08
(PID.TID 0000.0001) %MON surfExpan_salt_mean          =   2.3446243971240E-08
(PID.TID 0000.0001) // =======================================================
(PID.TID 0000.0001) // End MONITOR dynamic field statistics
(PID.TID 0000.0001) // =======================================================
(PID.TID 0000.0001) // =======================================================
(PID.TID 0000.0001) // Begin MONITOR SEAICE statistics
(PID.TID 0000.0001) // =======================================================
(PID.TID 0000.0001) %MON seaice_tsnumber              =                 72008
(PID.TID 0000.0001) %MON seaice_time_sec              =   6.2214912000000E+09
(PID.TID 0000.0001) %MON seaice_area_max              =   1.0000000000000E+00
(PID.TID 0000.0001) %MON seaice_area_min              =   0.0000000000000E+00
(PID.TID 0000.0001) %MON seaice_area_mean             =   4.5742629028351E-02
(PID.TID 0000.0001) %MON seaice_area_sd               =   1.9023573959179E-01
(PID.TID 0000.0001) %MON seaice_area_del2             =   6.3621123887509E-03
(PID.TID 0000.0001) %MON seaice_heff_max              =   5.2098962065416E+00
(PID.TID 0000.0001) %MON seaice_heff_min              =   0.0000000000000E+00
(PID.TID 0000.0001) %MON seaice_heff_mean             =   8.3690183599625E-02
(PID.TID 0000.0001) %MON seaice_heff_sd               =   4.0515247616650E-01
(PID.TID 0000.0001) %MON seaice_heff_del2             =   9.8959353545498E-03
(PID.TID 0000.0001) %MON seaice_hsnow_max             =   0.0000000000000E+00
(PID.TID 0000.0001) %MON seaice_hsnow_min             =   0.0000000000000E+00
(PID.TID 0000.0001) %MON seaice_hsnow_mean            =   0.0000000000000E+00
(PID.TID 0000.0001) %MON seaice_hsnow_sd              =   0.0000000000000E+00
(PID.TID 0000.0001) %MON seaice_hsnow_del2            =   0.0000000000000E+00
(PID.TID 0000.0001) // =======================================================
(PID.TID 0000.0001) // End MONITOR SEAICE statistics
(PID.TID 0000.0001) // =======================================================
(PID.TID 0000.0001) // =======================================================
(PID.TID 0000.0001) // Begin MONITOR Therm.SeaIce statistics
(PID.TID 0000.0001) // =======================================================
(PID.TID 0000.0001) %MON thSI_time_sec                =   6.2214912000000E+09
(PID.TID 0000.0001) %MON thSI_Ice_Area_G              =   1.6523337678337E+13
(PID.TID 0000.0001) %MON thSI_Ice_Area_S              =   3.9374706966841E+12
(PID.TID 0000.0001) %MON thSI_Ice_Area_N              =   1.2585866981653E+13
(PID.TID 0000.0001) %MON thSI_IceH_ave_G              =   1.8412001855235E+00
(PID.TID 0000.0001) %MON thSI_IceH_ave_S              =   1.1889011575654E+00
(PID.TID 0000.0001) %MON thSI_IceH_ave_N              =   2.0452710144783E+00
(PID.TID 0000.0001) %MON thSI_IceH_max_S              =   2.1129132692043E+00
(PID.TID 0000.0001) %MON thSI_IceH_max_N              =   5.2111915091298E+00
(PID.TID 0000.0001) %MON thSI_SnwH_ave_G              =   2.0983043104412E-01
(PID.TID 0000.0001) %MON thSI_SnwH_ave_S              =   1.4620565813650E-01
(PID.TID 0000.0001) %MON thSI_SnwH_ave_N              =   2.2973535132273E-01
(PID.TID 0000.0001) %MON thSI_SnwH_max_S              =   5.5083278160572E-01
(PID.TID 0000.0001) %MON thSI_SnwH_max_N              =   4.4874941703154E-01
(PID.TID 0000.0001) %MON thSI_TotEnerg_G              =  -9.9100300480157E+21
(PID.TID 0000.0001) %MON thSI_Tsrf_ave_G              =  -1.9906471351280E+01
(PID.TID 0000.0001) %MON thSI_Tsrf_ave_S              =  -4.5424745347225E-02
(PID.TID 0000.0001) %MON thSI_Tsrf_ave_N              =  -2.6119971710876E+01
(PID.TID 0000.0001) %MON thSI_Tsrf_min_S              =  -5.6099481374713E+00
(PID.TID 0000.0001) %MON thSI_Tsrf_min_N              =  -3.2740886072054E+01
(PID.TID 0000.0001) %MON thSI_Tsrf_max_S              =   0.0000000000000E+00
(PID.TID 0000.0001) %MON thSI_Tsrf_max_N              =  -1.3725186040484E+00
(PID.TID 0000.0001) %MON thSI_Tic1_ave_G              =  -1.1082075284718E+01
(PID.TID 0000.0001) %MON thSI_Tic1_ave_S              =  -1.0758123895089E+00
(PID.TID 0000.0001) %MON thSI_Tic1_ave_N              =  -1.2901780302099E+01
(PID.TID 0000.0001) %MON thSI_Tic1_min_S              =  -2.5513340536659E+00
(PID.TID 0000.0001) %MON thSI_Tic1_min_N              =  -1.8608603813552E+01
(PID.TID 0000.0001) %MON thSI_Tic1_max_S              =  -1.3219418773521E-01
(PID.TID 0000.0001) %MON thSI_Tic1_max_N              =  -2.1102693907784E+00
(PID.TID 0000.0001) %MON thSI_Tic2_ave_G              =  -4.7709736070509E+00
(PID.TID 0000.0001) %MON thSI_Tic2_ave_S              =  -1.5350086614654E+00
(PID.TID 0000.0001) %MON thSI_Tic2_ave_N              =  -5.3594552119434E+00
(PID.TID 0000.0001) %MON thSI_Tic2_min_S              =  -2.0285920588738E+00
(PID.TID 0000.0001) %MON thSI_Tic2_min_N              =  -7.8688692558630E+00
(PID.TID 0000.0001) %MON thSI_Tic2_max_S              =  -6.6530183509890E-01
(PID.TID 0000.0001) %MON thSI_Tic2_max_N              =  -1.9167091008085E+00
(PID.TID 0000.0001) // =======================================================
(PID.TID 0000.0001) // End MONITOR Therm.SeaIce statistics
(PID.TID 0000.0001) // =======================================================
(PID.TID 0000.0001)  exf_GetFFieldsRec:
(PID.TID 0000.0001)  exf_GetFFieldsRec: first, changed, fac:   F   F   0.20000000E+00
(PID.TID 0000.0001)  exf_GetFFieldsRec: myiter, count0, count1:  72008     12      1
(PID.TID 0000.0001)  exf_GetFFieldsRec:
(PID.TID 0000.0001)  exf_GetFFieldsRec:
(PID.TID 0000.0001)  exf_GetFFieldsRec: first, changed, fac:   F   F   0.20000000E+00
(PID.TID 0000.0001)  exf_GetFFieldsRec: myiter, count0, count1:  72008     12      1
(PID.TID 0000.0001)  exf_GetFFieldsRec:
(PID.TID 0000.0001)  exf_GetFFieldsRec:
(PID.TID 0000.0001)  exf_GetFFieldsRec: first, changed, fac:   F   F   0.20000000E+00
(PID.TID 0000.0001)  exf_GetFFieldsRec: myiter, count0, count1:  72008     12      1
(PID.TID 0000.0001)  exf_GetFFieldsRec:
(PID.TID 0000.0001)  exf_GetFFieldsRec:
(PID.TID 0000.0001)  exf_GetFFieldsRec: first, changed, fac:   F   F   0.20000000E+00
(PID.TID 0000.0001)  exf_GetFFieldsRec: myiter, count0, count1:  72008     12      1
(PID.TID 0000.0001)  exf_GetFFieldsRec:
(PID.TID 0000.0001)  exf_GetFFieldsRec:
(PID.TID 0000.0001)  exf_GetFFieldsRec: first, changed, fac:   F   F   0.20000000E+00
(PID.TID 0000.0001)  exf_GetFFieldsRec: myiter, count0, count1:  72008     12      1
(PID.TID 0000.0001)  exf_GetFFieldsRec:
(PID.TID 0000.0001)  exf_GetFFieldsRec:
(PID.TID 0000.0001)  exf_GetFFieldsRec: first, changed, fac:   F   F   0.20000000E+00
(PID.TID 0000.0001)  exf_GetFFieldsRec: myiter, count0, count1:  72008     12      1
(PID.TID 0000.0001)  exf_GetFFieldsRec:
(PID.TID 0000.0001)  exf_GetFFieldsRec:
(PID.TID 0000.0001)  exf_GetFFieldsRec: first, changed, fac:   F   F   0.20000000E+00
(PID.TID 0000.0001)  exf_GetFFieldsRec: myiter, count0, count1:  72008     12      1
(PID.TID 0000.0001)  exf_GetFFieldsRec:
(PID.TID 0000.0001)  exf_GetFFieldsRec:
(PID.TID 0000.0001)  exf_GetFFieldsRec: first, changed, fac:   F   F   0.20000000E+00
(PID.TID 0000.0001)  exf_GetFFieldsRec: myiter, count0, count1:  72008     12      1
(PID.TID 0000.0001)  exf_GetFFieldsRec:
(PID.TID 0000.0001)  exf_GetFFieldsRec:
(PID.TID 0000.0001)  exf_GetFFieldsRec: first, changed, fac:   F   F   0.20000000E+00
(PID.TID 0000.0001)  exf_GetFFieldsRec: myiter, count0, count1:  72008     12      1
(PID.TID 0000.0001)  exf_GetFFieldsRec:
(PID.TID 0000.0001)  exf_GetFFieldsRec:
(PID.TID 0000.0001)  exf_GetFFieldsRec: first, changed, fac:   F   F   0.20000000E+00
(PID.TID 0000.0001)  exf_GetFFieldsRec: myiter, count0, count1:  72008     12      1
(PID.TID 0000.0001)  exf_GetFFieldsRec:
(PID.TID 0000.0001)  exf_GetFFieldsRec:
(PID.TID 0000.0001)  exf_GetFFieldsRec: first, changed, fac:   F   F   0.20000000E+00
(PID.TID 0000.0001)  exf_GetFFieldsRec: myiter, count0, count1:  72008     12      1
(PID.TID 0000.0001)  exf_GetFFieldsRec:
(PID.TID 0000.0001)  exf_GetFFieldsRec:
(PID.TID 0000.0001)  exf_GetFFieldsRec: first, changed, fac:   F   F   0.20000000E+00
(PID.TID 0000.0001)  exf_GetFFieldsRec: myiter, count0, count1:  72008     12      1
(PID.TID 0000.0001)  exf_GetFFieldsRec:
 cg2d: Sum(rhs),rhsMax =   2.21849421273074E+03  2.11918203105571E+01
(PID.TID 0000.0001)                    cg2d_init_res =    2.79601226574511E+00
(PID.TID 0000.0001)                       cg2d_iters =    70
(PID.TID 0000.0001)                         cg2d_res =    5.02647380231828E-07
(PID.TID 0000.0001) // =======================================================
(PID.TID 0000.0001) // Begin MONITOR dynamic field statistics
(PID.TID 0000.0001) // =======================================================
(PID.TID 0000.0001) %MON time_tsnumber                =                 72009
(PID.TID 0000.0001) %MON time_secondsf                =   6.2215776000000E+09
(PID.TID 0000.0001) %MON dynstat_eta_max              =  -2.2124711075181E+00
(PID.TID 0000.0001) %MON dynstat_eta_min              =  -8.3663198922111E+00
(PID.TID 0000.0001) %MON dynstat_eta_mean             =  -3.2996619065151E+00
(PID.TID 0000.0001) %MON dynstat_eta_sd               =   8.7747828050144E-01
(PID.TID 0000.0001) %MON dynstat_eta_del2             =   2.0036363602302E-02
(PID.TID 0000.0001) %MON dynstat_uvel_max             =   2.1439866113909E-01
(PID.TID 0000.0001) %MON dynstat_uvel_min             =  -2.8778341049260E-01
(PID.TID 0000.0001) %MON dynstat_uvel_mean            =  -5.2326615813499E-04
(PID.TID 0000.0001) %MON dynstat_uvel_sd              =   1.4757087985260E-02
(PID.TID 0000.0001) %MON dynstat_uvel_del2            =   2.0188172070565E-03
(PID.TID 0000.0001) %MON dynstat_vvel_max             =   2.1580892469633E-01
(PID.TID 0000.0001) %MON dynstat_vvel_min             =  -2.0110015987374E-01
(PID.TID 0000.0001) %MON dynstat_vvel_mean            =  -3.9521076251759E-04
(PID.TID 0000.0001) %MON dynstat_vvel_sd              =   1.5251570392844E-02
(PID.TID 0000.0001) %MON dynstat_vvel_del2            =   2.0410162949465E-03
(PID.TID 0000.0001) %MON dynstat_wvel_max             =   1.0595280500457E-04
(PID.TID 0000.0001) %MON dynstat_wvel_min             =  -2.1369818489602E-04
(PID.TID 0000.0001) %MON dynstat_wvel_mean            =  -1.2965405639272E-09
(PID.TID 0000.0001) %MON dynstat_wvel_sd              =   5.3512910900938E-06
(PID.TID 0000.0001) %MON dynstat_wvel_del2            =   1.2697045751525E-06
(PID.TID 0000.0001) %MON dynstat_theta_max            =   3.1278282225116E+01
(PID.TID 0000.0001) %MON dynstat_theta_min            =  -6.6568497702560E+00
(PID.TID 0000.0001) %MON dynstat_theta_mean           =   3.0534478146693E+00
(PID.TID 0000.0001) %MON dynstat_theta_sd             =   4.9954358545894E+00
(PID.TID 0000.0001) %MON dynstat_theta_del2           =   9.8240063683740E-02
(PID.TID 0000.0001) %MON dynstat_salt_max             =   5.9576819457972E+01
(PID.TID 0000.0001) %MON dynstat_salt_min             =   1.7775835657339E+01
(PID.TID 0000.0001) %MON dynstat_salt_mean            =   3.4752518069758E+01
(PID.TID 0000.0001) %MON dynstat_salt_sd              =   4.8907271308596E-01
(PID.TID 0000.0001) %MON dynstat_salt_del2            =   2.4190172216911E-02
(PID.TID 0000.0001) %MON extforcing_qnet_max          =   6.6295052724718E+02
(PID.TID 0000.0001) %MON extforcing_qnet_min          =  -2.5363199736993E+02
(PID.TID 0000.0001) %MON extforcing_qnet_mean         =  -1.3768715953858E+01
(PID.TID 0000.0001) %MON extforcing_qnet_sd           =   1.2389557068503E+02
(PID.TID 0000.0001) %MON extforcing_qnet_del2         =   1.0018003305587E+01
(PID.TID 0000.0001) %MON extforcing_qsw_max           =   0.0000000000000E+00
(PID.TID 0000.0001) %MON extforcing_qsw_min           =  -3.0180730070724E+02
(PID.TID 0000.0001) %MON extforcing_qsw_mean          =  -1.8338720757719E+02
(PID.TID 0000.0001) %MON extforcing_qsw_sd            =   7.9224424657565E+01
(PID.TID 0000.0001) %MON extforcing_qsw_del2          =   2.1264240013461E+00
(PID.TID 0000.0001) %MON extforcing_empmr_max         =   8.4067582008419E-04
(PID.TID 0000.0001) %MON extforcing_empmr_min         =  -4.4426518033803E-04
(PID.TID 0000.0001) %MON extforcing_empmr_mean        =   3.3181217253664E-07
(PID.TID 0000.0001) %MON extforcing_empmr_sd          =   5.8835822711111E-05
(PID.TID 0000.0001) %MON extforcing_empmr_del2        =   7.8047548525424E-06
(PID.TID 0000.0001) %MON advcfl_uvel_max              =   8.5079560115405E-02
(PID.TID 0000.0001) %MON advcfl_vvel_max              =   8.4109260635199E-02
(PID.TID 0000.0001) %MON advcfl_wvel_max              =   6.9673672358552E-02
(PID.TID 0000.0001) %MON advcfl_W_hf_max              =   7.7090016734712E-02
(PID.TID 0000.0001) %MON pe_b_mean                    =   1.4342717550382E-02
(PID.TID 0000.0001) %MON ke_max                       =   4.0739579057506E-02
(PID.TID 0000.0001) %MON ke_mean                      =   2.0815489857758E-04
(PID.TID 0000.0001) %MON ke_vol                       =   1.3386017522361E+18
(PID.TID 0000.0001) %MON vort_r_min                   =  -1.2756452232569E-06
(PID.TID 0000.0001) %MON vort_r_max                   =   1.2759896699259E-06
(PID.TID 0000.0001) %MON vort_a_mean                  =  -2.0549865324846E-05
(PID.TID 0000.0001) %MON vort_a_sd                    =   7.5259722574968E-05
(PID.TID 0000.0001) %MON vort_p_mean                  =  -2.4806334825684E-05
(PID.TID 0000.0001) %MON vort_p_sd                    =   1.2827604448621E-04
(PID.TID 0000.0001) %MON surfExpan_theta_mean         =   4.5827006168280E-08
(PID.TID 0000.0001) %MON surfExpan_salt_mean          =   2.3668297826607E-08
(PID.TID 0000.0001) // =======================================================
(PID.TID 0000.0001) // End MONITOR dynamic field statistics
(PID.TID 0000.0001) // =======================================================
(PID.TID 0000.0001) // =======================================================
(PID.TID 0000.0001) // Begin MONITOR SEAICE statistics
(PID.TID 0000.0001) // =======================================================
(PID.TID 0000.0001) %MON seaice_tsnumber              =                 72009
(PID.TID 0000.0001) %MON seaice_time_sec              =   6.2215776000000E+09
(PID.TID 0000.0001) %MON seaice_area_max              =   1.0000000000000E+00
(PID.TID 0000.0001) %MON seaice_area_min              =   0.0000000000000E+00
(PID.TID 0000.0001) %MON seaice_area_mean             =   4.5407913988528E-02
(PID.TID 0000.0001) %MON seaice_area_sd               =   1.9015810415141E-01
(PID.TID 0000.0001) %MON seaice_area_del2             =   6.3254766950967E-03
(PID.TID 0000.0001) %MON seaice_heff_max              =   5.2111915091298E+00
(PID.TID 0000.0001) %MON seaice_heff_min              =   0.0000000000000E+00
(PID.TID 0000.0001) %MON seaice_heff_mean             =   8.3605059659914E-02
(PID.TID 0000.0001) %MON seaice_heff_sd               =   4.0587299566027E-01
(PID.TID 0000.0001) %MON seaice_heff_del2             =   9.8159163875913E-03
(PID.TID 0000.0001) %MON seaice_hsnow_max             =   0.0000000000000E+00
(PID.TID 0000.0001) %MON seaice_hsnow_min             =   0.0000000000000E+00
(PID.TID 0000.0001) %MON seaice_hsnow_mean            =   0.0000000000000E+00
(PID.TID 0000.0001) %MON seaice_hsnow_sd              =   0.0000000000000E+00
(PID.TID 0000.0001) %MON seaice_hsnow_del2            =   0.0000000000000E+00
(PID.TID 0000.0001) // =======================================================
(PID.TID 0000.0001) // End MONITOR SEAICE statistics
(PID.TID 0000.0001) // =======================================================
(PID.TID 0000.0001) // =======================================================
(PID.TID 0000.0001) // Begin MONITOR Therm.SeaIce statistics
(PID.TID 0000.0001) // =======================================================
(PID.TID 0000.0001) %MON thSI_time_sec                =   6.2215776000000E+09
(PID.TID 0000.0001) %MON thSI_Ice_Area_G              =   1.6503375270419E+13
(PID.TID 0000.0001) %MON thSI_Ice_Area_S              =   3.8162168620794E+12
(PID.TID 0000.0001) %MON thSI_Ice_Area_N              =   1.2687158408340E+13
(PID.TID 0000.0001) %MON thSI_IceH_ave_G              =   1.8426827737361E+00
(PID.TID 0000.0001) %MON thSI_IceH_ave_S              =   1.1887747218648E+00
(PID.TID 0000.0001) %MON thSI_IceH_ave_N              =   2.0393741725099E+00
(PID.TID 0000.0001) %MON thSI_IceH_max_S              =   2.1112648015478E+00
(PID.TID 0000.0001) %MON thSI_IceH_max_N              =   5.2124992894787E+00
(PID.TID 0000.0001) %MON thSI_SnwH_ave_G              =   2.0944342194862E-01
(PID.TID 0000.0001) %MON thSI_SnwH_ave_S              =   1.3962214795197E-01
(PID.TID 0000.0001) %MON thSI_SnwH_ave_N              =   2.3044521877199E-01
(PID.TID 0000.0001) %MON thSI_SnwH_max_S              =   5.4391745634597E-01
(PID.TID 0000.0001) %MON thSI_SnwH_max_N              =   4.5327778260853E-01
(PID.TID 0000.0001) %MON thSI_TotEnerg_G              =  -9.9052382589695E+21
(PID.TID 0000.0001) %MON thSI_Tsrf_ave_G              =  -2.0013052662497E+01
(PID.TID 0000.0001) %MON thSI_Tsrf_ave_S              =  -4.6454855062071E-02
(PID.TID 0000.0001) %MON thSI_Tsrf_ave_N              =  -2.6018878772543E+01
(PID.TID 0000.0001) %MON thSI_Tsrf_min_S              =  -5.6238072054788E+00
(PID.TID 0000.0001) %MON thSI_Tsrf_min_N              =  -3.2742838509552E+01
(PID.TID 0000.0001) %MON thSI_Tsrf_max_S              =   0.0000000000000E+00
(PID.TID 0000.0001) %MON thSI_Tsrf_max_N              =  -1.4147323042066E+00
(PID.TID 0000.0001) %MON thSI_Tic1_ave_G              =  -1.1134683957780E+01
(PID.TID 0000.0001) %MON thSI_Tic1_ave_S              =  -1.0431008271038E+00
(PID.TID 0000.0001) %MON thSI_Tic1_ave_N              =  -1.2904102738683E+01
(PID.TID 0000.0001) %MON thSI_Tic1_min_S              =  -2.5514400695445E+00
(PID.TID 0000.0001) %MON thSI_Tic1_min_N              =  -1.8683874280095E+01
(PID.TID 0000.0001) %MON thSI_Tic1_max_S              =  -1.1723670931233E-01
(PID.TID 0000.0001) %MON thSI_Tic1_max_N              =  -1.7116488119335E+00
(PID.TID 0000.0001) %MON thSI_Tic2_ave_G              =  -4.7912683337069E+00
(PID.TID 0000.0001) %MON thSI_Tic2_ave_S              =  -1.5230867383128E+00
(PID.TID 0000.0001) %MON thSI_Tic2_ave_N              =  -5.3642985331722E+00
(PID.TID 0000.0001) %MON thSI_Tic2_min_S              =  -2.0288813740996E+00
(PID.TID 0000.0001) %MON thSI_Tic2_min_N              =  -7.8853801952210E+00
(PID.TID 0000.0001) %MON thSI_Tic2_max_S              =  -9.2900116169460E-01
(PID.TID 0000.0001) %MON thSI_Tic2_max_N              =  -1.7116488119335E+00
(PID.TID 0000.0001) // =======================================================
(PID.TID 0000.0001) // End MONITOR Therm.SeaIce statistics
(PID.TID 0000.0001) // =======================================================
(PID.TID 0000.0001)  exf_GetFFieldsRec:
(PID.TID 0000.0001)  exf_GetFFieldsRec: first, changed, fac:   F   F   0.16666667E+00
(PID.TID 0000.0001)  exf_GetFFieldsRec: myiter, count0, count1:  72009     12      1
(PID.TID 0000.0001)  exf_GetFFieldsRec:
(PID.TID 0000.0001)  exf_GetFFieldsRec:
(PID.TID 0000.0001)  exf_GetFFieldsRec: first, changed, fac:   F   F   0.16666667E+00
(PID.TID 0000.0001)  exf_GetFFieldsRec: myiter, count0, count1:  72009     12      1
(PID.TID 0000.0001)  exf_GetFFieldsRec:
(PID.TID 0000.0001)  exf_GetFFieldsRec:
(PID.TID 0000.0001)  exf_GetFFieldsRec: first, changed, fac:   F   F   0.16666667E+00
(PID.TID 0000.0001)  exf_GetFFieldsRec: myiter, count0, count1:  72009     12      1
(PID.TID 0000.0001)  exf_GetFFieldsRec:
(PID.TID 0000.0001)  exf_GetFFieldsRec:
(PID.TID 0000.0001)  exf_GetFFieldsRec: first, changed, fac:   F   F   0.16666667E+00
(PID.TID 0000.0001)  exf_GetFFieldsRec: myiter, count0, count1:  72009     12      1
(PID.TID 0000.0001)  exf_GetFFieldsRec:
(PID.TID 0000.0001)  exf_GetFFieldsRec:
(PID.TID 0000.0001)  exf_GetFFieldsRec: first, changed, fac:   F   F   0.16666667E+00
(PID.TID 0000.0001)  exf_GetFFieldsRec: myiter, count0, count1:  72009     12      1
(PID.TID 0000.0001)  exf_GetFFieldsRec:
(PID.TID 0000.0001)  exf_GetFFieldsRec:
(PID.TID 0000.0001)  exf_GetFFieldsRec: first, changed, fac:   F   F   0.16666667E+00
(PID.TID 0000.0001)  exf_GetFFieldsRec: myiter, count0, count1:  72009     12      1
(PID.TID 0000.0001)  exf_GetFFieldsRec:
(PID.TID 0000.0001)  exf_GetFFieldsRec:
(PID.TID 0000.0001)  exf_GetFFieldsRec: first, changed, fac:   F   F   0.16666667E+00
(PID.TID 0000.0001)  exf_GetFFieldsRec: myiter, count0, count1:  72009     12      1
(PID.TID 0000.0001)  exf_GetFFieldsRec:
(PID.TID 0000.0001)  exf_GetFFieldsRec:
(PID.TID 0000.0001)  exf_GetFFieldsRec: first, changed, fac:   F   F   0.16666667E+00
(PID.TID 0000.0001)  exf_GetFFieldsRec: myiter, count0, count1:  72009     12      1
(PID.TID 0000.0001)  exf_GetFFieldsRec:
(PID.TID 0000.0001)  exf_GetFFieldsRec:
(PID.TID 0000.0001)  exf_GetFFieldsRec: first, changed, fac:   F   F   0.16666667E+00
(PID.TID 0000.0001)  exf_GetFFieldsRec: myiter, count0, count1:  72009     12      1
(PID.TID 0000.0001)  exf_GetFFieldsRec:
(PID.TID 0000.0001)  exf_GetFFieldsRec:
(PID.TID 0000.0001)  exf_GetFFieldsRec: first, changed, fac:   F   F   0.16666667E+00
(PID.TID 0000.0001)  exf_GetFFieldsRec: myiter, count0, count1:  72009     12      1
(PID.TID 0000.0001)  exf_GetFFieldsRec:
(PID.TID 0000.0001)  exf_GetFFieldsRec:
(PID.TID 0000.0001)  exf_GetFFieldsRec: first, changed, fac:   F   F   0.16666667E+00
(PID.TID 0000.0001)  exf_GetFFieldsRec: myiter, count0, count1:  72009     12      1
(PID.TID 0000.0001)  exf_GetFFieldsRec:
(PID.TID 0000.0001)  exf_GetFFieldsRec:
(PID.TID 0000.0001)  exf_GetFFieldsRec: first, changed, fac:   F   F   0.16666667E+00
(PID.TID 0000.0001)  exf_GetFFieldsRec: myiter, count0, count1:  72009     12      1
(PID.TID 0000.0001)  exf_GetFFieldsRec:
 cg2d: Sum(rhs),rhsMax =   2.21852109301109E+03  2.10842704701853E+01
(PID.TID 0000.0001)                    cg2d_init_res =    2.85043061057764E+00
(PID.TID 0000.0001)                       cg2d_iters =    69
(PID.TID 0000.0001)                         cg2d_res =    5.73217168167156E-07
(PID.TID 0000.0001) // =======================================================
(PID.TID 0000.0001) // Begin MONITOR dynamic field statistics
(PID.TID 0000.0001) // =======================================================
(PID.TID 0000.0001) %MON time_tsnumber                =                 72010
(PID.TID 0000.0001) %MON time_secondsf                =   6.2216640000000E+09
(PID.TID 0000.0001) %MON dynstat_eta_max              =  -2.2119862057974E+00
(PID.TID 0000.0001) %MON dynstat_eta_min              =  -8.3699651252951E+00
(PID.TID 0000.0001) %MON dynstat_eta_mean             =  -3.2997018867128E+00
(PID.TID 0000.0001) %MON dynstat_eta_sd               =   8.7703734230471E-01
(PID.TID 0000.0001) %MON dynstat_eta_del2             =   1.9958251350598E-02
(PID.TID 0000.0001) %MON dynstat_uvel_max             =   2.1466610575366E-01
(PID.TID 0000.0001) %MON dynstat_uvel_min             =  -2.8731037456980E-01
(PID.TID 0000.0001) %MON dynstat_uvel_mean            =  -5.2250002094488E-04
(PID.TID 0000.0001) %MON dynstat_uvel_sd              =   1.4753558554489E-02
(PID.TID 0000.0001) %MON dynstat_uvel_del2            =   2.0183954057829E-03
(PID.TID 0000.0001) %MON dynstat_vvel_max             =   2.1498818373378E-01
(PID.TID 0000.0001) %MON dynstat_vvel_min             =  -2.0113024150946E-01
(PID.TID 0000.0001) %MON dynstat_vvel_mean            =  -3.9451290648613E-04
(PID.TID 0000.0001) %MON dynstat_vvel_sd              =   1.5250974780952E-02
(PID.TID 0000.0001) %MON dynstat_vvel_del2            =   2.0405448518252E-03
(PID.TID 0000.0001) %MON dynstat_wvel_max             =   1.0651436942865E-04
(PID.TID 0000.0001) %MON dynstat_wvel_min             =  -2.1338552747225E-04
(PID.TID 0000.0001) %MON dynstat_wvel_mean            =  -1.2467915962473E-09
(PID.TID 0000.0001) %MON dynstat_wvel_sd              =   5.3503572756846E-06
(PID.TID 0000.0001) %MON dynstat_wvel_del2            =   1.2688344936204E-06
(PID.TID 0000.0001) %MON dynstat_theta_max            =   3.1285208697895E+01
(PID.TID 0000.0001) %MON dynstat_theta_min            =  -6.6576638677279E+00
(PID.TID 0000.0001) %MON dynstat_theta_mean           =   3.0535241117744E+00
(PID.TID 0000.0001) %MON dynstat_theta_sd             =   4.9955104420069E+00
(PID.TID 0000.0001) %MON dynstat_theta_del2           =   9.8261936533885E-02
(PID.TID 0000.0001) %MON dynstat_salt_max             =   5.9580119885202E+01
(PID.TID 0000.0001) %MON dynstat_salt_min             =   1.7775814720930E+01
(PID.TID 0000.0001) %MON dynstat_salt_mean            =   3.4752518463515E+01
(PID.TID 0000.0001) %MON dynstat_salt_sd              =   4.8906592115940E-01
(PID.TID 0000.0001) %MON dynstat_salt_del2            =   2.4185992594923E-02
(PID.TID 0000.0001) %MON extforcing_qnet_max          =   6.6455453720782E+02
(PID.TID 0000.0001) %MON extforcing_qnet_min          =  -2.5361151388699E+02
(PID.TID 0000.0001) %MON extforcing_qnet_mean         =  -1.3685661593422E+01
(PID.TID 0000.0001) %MON extforcing_qnet_sd           =   1.2406114762874E+02
(PID.TID 0000.0001) %MON extforcing_qnet_del2         =   1.0182469001525E+01
(PID.TID 0000.0001) %MON extforcing_qsw_max           =   0.0000000000000E+00
(PID.TID 0000.0001) %MON extforcing_qsw_min           =  -3.0179530377143E+02
(PID.TID 0000.0001) %MON extforcing_qsw_mean          =  -1.8348999446529E+02
(PID.TID 0000.0001) %MON extforcing_qsw_sd            =   7.9164611406073E+01
(PID.TID 0000.0001) %MON extforcing_qsw_del2          =   2.1211372357186E+00
(PID.TID 0000.0001) %MON extforcing_empmr_max         =   1.0832600053167E-03
(PID.TID 0000.0001) %MON extforcing_empmr_min         =  -4.4644910130505E-04
(PID.TID 0000.0001) %MON extforcing_empmr_mean        =   4.7892945097241E-07
(PID.TID 0000.0001) %MON extforcing_empmr_sd          =   5.9874609280416E-05
(PID.TID 0000.0001) %MON extforcing_empmr_del2        =   8.0718282969181E-06
(PID.TID 0000.0001) %MON advcfl_uvel_max              =   8.5185689836746E-02
(PID.TID 0000.0001) %MON advcfl_vvel_max              =   8.4096215734611E-02
(PID.TID 0000.0001) %MON advcfl_wvel_max              =   6.9571734240010E-02
(PID.TID 0000.0001) %MON advcfl_W_hf_max              =   7.6978414181892E-02
(PID.TID 0000.0001) %MON pe_b_mean                    =   1.4342340366843E-02
(PID.TID 0000.0001) %MON ke_max                       =   4.0590497764493E-02
(PID.TID 0000.0001) %MON ke_mean                      =   2.0809800776291E-04
(PID.TID 0000.0001) %MON ke_vol                       =   1.3386017421567E+18
(PID.TID 0000.0001) %MON vort_r_min                   =  -1.2819623688955E-06
(PID.TID 0000.0001) %MON vort_r_max                   =   1.2735780160352E-06
(PID.TID 0000.0001) %MON vort_a_mean                  =  -2.0549865324846E-05
(PID.TID 0000.0001) %MON vort_a_sd                    =   7.5259722458040E-05
(PID.TID 0000.0001) %MON vort_p_mean                  =  -2.4806334684587E-05
(PID.TID 0000.0001) %MON vort_p_sd                    =   1.2827604895792E-04
(PID.TID 0000.0001) %MON surfExpan_theta_mean         =   4.6861675126124E-08
(PID.TID 0000.0001) %MON surfExpan_salt_mean          =   2.3992679164743E-08
(PID.TID 0000.0001) // =======================================================
(PID.TID 0000.0001) // End MONITOR dynamic field statistics
(PID.TID 0000.0001) // =======================================================
(PID.TID 0000.0001) // =======================================================
(PID.TID 0000.0001) // Begin MONITOR SEAICE statistics
(PID.TID 0000.0001) // =======================================================
(PID.TID 0000.0001) %MON seaice_tsnumber              =                 72010
(PID.TID 0000.0001) %MON seaice_time_sec              =   6.2216640000000E+09
(PID.TID 0000.0001) %MON seaice_area_max              =   1.0000000000000E+00
(PID.TID 0000.0001) %MON seaice_area_min              =   0.0000000000000E+00
(PID.TID 0000.0001) %MON seaice_area_mean             =   4.5353055138618E-02
(PID.TID 0000.0001) %MON seaice_area_sd               =   1.9014622516926E-01
(PID.TID 0000.0001) %MON seaice_area_del2             =   6.2467620866419E-03
(PID.TID 0000.0001) %MON seaice_heff_max              =   5.2124992894787E+00
(PID.TID 0000.0001) %MON seaice_heff_min              =   0.0000000000000E+00
(PID.TID 0000.0001) %MON seaice_heff_mean             =   8.3571293440237E-02
(PID.TID 0000.0001) %MON seaice_heff_sd               =   4.0660105857259E-01
(PID.TID 0000.0001) %MON seaice_heff_del2             =   9.7208675434516E-03
(PID.TID 0000.0001) %MON seaice_hsnow_max             =   0.0000000000000E+00
(PID.TID 0000.0001) %MON seaice_hsnow_min             =   0.0000000000000E+00
(PID.TID 0000.0001) %MON seaice_hsnow_mean            =   0.0000000000000E+00
(PID.TID 0000.0001) %MON seaice_hsnow_sd              =   0.0000000000000E+00
(PID.TID 0000.0001) %MON seaice_hsnow_del2            =   0.0000000000000E+00
(PID.TID 0000.0001) // =======================================================
(PID.TID 0000.0001) // End MONITOR SEAICE statistics
(PID.TID 0000.0001) // =======================================================
(PID.TID 0000.0001) // =======================================================
(PID.TID 0000.0001) // Begin MONITOR Therm.SeaIce statistics
(PID.TID 0000.0001) // =======================================================
(PID.TID 0000.0001) %MON thSI_time_sec                =   6.2216640000000E+09
(PID.TID 0000.0001) %MON thSI_Ice_Area_G              =   1.6425531339255E+13
(PID.TID 0000.0001) %MON thSI_Ice_Area_S              =   3.6913203252313E+12
(PID.TID 0000.0001) %MON thSI_Ice_Area_N              =   1.2734211014024E+13
(PID.TID 0000.0001) %MON thSI_IceH_ave_G              =   1.8508059460900E+00
(PID.TID 0000.0001) %MON thSI_IceH_ave_S              =   1.1913880297871E+00
(PID.TID 0000.0001) %MON thSI_IceH_ave_N              =   2.0419542437419E+00
(PID.TID 0000.0001) %MON thSI_IceH_max_S              =   2.1096075551247E+00
(PID.TID 0000.0001) %MON thSI_IceH_max_N              =   5.2138187119368E+00
(PID.TID 0000.0001) %MON thSI_SnwH_ave_G              =   2.0992035415381E-01
(PID.TID 0000.0001) %MON thSI_SnwH_ave_S              =   1.3352031633516E-01
(PID.TID 0000.0001) %MON thSI_SnwH_ave_N              =   2.3206676056547E-01
(PID.TID 0000.0001) %MON thSI_SnwH_max_S              =   5.3654228437604E-01
(PID.TID 0000.0001) %MON thSI_SnwH_max_N              =   4.5778657956564E-01
(PID.TID 0000.0001) %MON thSI_TotEnerg_G              =  -9.9016209412354E+21
(PID.TID 0000.0001) %MON thSI_Tsrf_ave_G              =  -2.0210299664440E+01
(PID.TID 0000.0001) %MON thSI_Tsrf_ave_S              =  -4.7182996537913E-02
(PID.TID 0000.0001) %MON thSI_Tsrf_ave_N              =  -2.6055068711715E+01
(PID.TID 0000.0001) %MON thSI_Tsrf_min_S              =  -5.6323068056860E+00
(PID.TID 0000.0001) %MON thSI_Tsrf_min_N              =  -3.2744740699816E+01
(PID.TID 0000.0001) %MON thSI_Tsrf_max_S              =   0.0000000000000E+00
(PID.TID 0000.0001) %MON thSI_Tsrf_max_N              =  -1.4578916804032E+00
(PID.TID 0000.0001) %MON thSI_Tic1_ave_G              =  -1.1189099636644E+01
(PID.TID 0000.0001) %MON thSI_Tic1_ave_S              =  -1.0120863036147E+00
(PID.TID 0000.0001) %MON thSI_Tic1_ave_N              =  -1.2910323115342E+01
(PID.TID 0000.0001) %MON thSI_Tic1_min_S              =  -2.5519379188736E+00
(PID.TID 0000.0001) %MON thSI_Tic1_min_N              =  -1.8752218022314E+01
(PID.TID 0000.0001) %MON thSI_Tic1_max_S              =  -1.1915671592026E-01
(PID.TID 0000.0001) %MON thSI_Tic1_max_N              =  -2.2453583845670E+00
(PID.TID 0000.0001) %MON thSI_Tic2_ave_G              =  -4.8107749344050E+00
(PID.TID 0000.0001) %MON thSI_Tic2_ave_S              =  -1.5038594327883E+00
(PID.TID 0000.0001) %MON thSI_Tic2_ave_N              =  -5.3700687485322E+00
(PID.TID 0000.0001) %MON thSI_Tic2_min_S              =  -2.0296987198124E+00
(PID.TID 0000.0001) %MON thSI_Tic2_min_N              =  -7.8996044270634E+00
(PID.TID 0000.0001) %MON thSI_Tic2_max_S              =  -7.6808035739829E-01
(PID.TID 0000.0001) %MON thSI_Tic2_max_N              =  -1.9501957540566E+00
(PID.TID 0000.0001) // =======================================================
(PID.TID 0000.0001) // End MONITOR Therm.SeaIce statistics
(PID.TID 0000.0001) // =======================================================
 Compute Stats, Diag. #     23  ETAN      vol(   0 ): 3.639E+15  Parms: SM      M1      
 Compute Stats, Diag. #     30  UVEL      vol(   0 ): 1.230E+19  Parms: UU      MR      
 Compute Stats, Diag. #     31  VVEL      vol(   0 ): 1.242E+19  Parms: VV      MR      
 Compute Stats, Diag. #     32  WVEL      vol(   0 ): 1.315E+19  Parms: WM      LR      
 Compute Stats, Diag. #     26  THETA     vol(   0 ): 1.339E+19  Parms: SM      MR      
 Compute Stats, Diag. #     27  SALT      vol(   0 ): 1.339E+19  Parms: SM      MR      
 Compute Stats, Diag. #     74  CONVADJ   vol(   0 ): 1.315E+19  Parms: SM      LR      
 Compute Stats, Diag. #     25  DETADT2   vol(   0 ): 3.639E+15  Parms: SM      M1      
 Compute Stats, Diag. #    212  SI_Fract  vol(   0 ): 3.639E+15  Parms: SM P    M1      
 Compute Stats, Diag. #    212  SI_Fract  vol(   1 ): 1.289E+15  Parms: SM P    M1      
 Compute Stats, Diag. #    212  SI_Fract  vol(   3 ): 7.935E+14  Parms: SM P    M1      
 Compute Stats, Diag. #    213  SI_Thick  vol(   0 ): 1.684E+14  Parms: SM PC   M1      
    use Counter Mate  #    212  SI_Fract  vol(   0 ): 3.639E+15 integral 1.684E+14
 Compute Stats, Diag. #    213  SI_Thick  vol(   1 ): 4.424E+13  Parms: SM PC   M1      
    use Counter Mate  #    212  SI_Fract  vol(   1 ): 1.289E+15 integral 4.424E+13
 Compute Stats, Diag. #    213  SI_Thick  vol(   3 ): 1.241E+14  Parms: SM PC   M1      
    use Counter Mate  #    212  SI_Fract  vol(   3 ): 7.935E+14 integral 1.241E+14
 Compute Stats, Diag. #    214  SI_SnowH  vol(   0 ): 1.684E+14  Parms: SM PC   M1      
    use Counter Mate  #    212  SI_Fract  vol(   0 ): 3.639E+15 integral 1.684E+14
 Compute Stats, Diag. #    214  SI_SnowH  vol(   1 ): 4.424E+13  Parms: SM PC   M1      
    use Counter Mate  #    212  SI_Fract  vol(   1 ): 1.289E+15 integral 4.424E+13
 Compute Stats, Diag. #    214  SI_SnowH  vol(   3 ): 1.241E+14  Parms: SM PC   M1      
    use Counter Mate  #    212  SI_Fract  vol(   3 ): 7.935E+14 integral 1.241E+14
 Compute Stats, Diag. #    215  SI_Tsrf   vol(   0 ): 1.684E+14  Parms: SM  C   M1      
    use Counter Mate  #    212  SI_Fract  vol(   0 ): 3.639E+15 integral 1.684E+14
 Compute Stats, Diag. #    215  SI_Tsrf   vol(   1 ): 4.424E+13  Parms: SM  C   M1      
    use Counter Mate  #    212  SI_Fract  vol(   1 ): 1.289E+15 integral 4.424E+13
 Compute Stats, Diag. #    215  SI_Tsrf   vol(   3 ): 1.241E+14  Parms: SM  C   M1      
    use Counter Mate  #    212  SI_Fract  vol(   3 ): 7.935E+14 integral 1.241E+14
 Compute Stats, Diag. #    216  SI_Tice1  vol(   0 ): 1.684E+14  Parms: SM  C   M1      
    use Counter Mate  #    212  SI_Fract  vol(   0 ): 3.639E+15 integral 1.684E+14
 Compute Stats, Diag. #    216  SI_Tice1  vol(   1 ): 4.424E+13  Parms: SM  C   M1      
    use Counter Mate  #    212  SI_Fract  vol(   1 ): 1.289E+15 integral 4.424E+13
 Compute Stats, Diag. #    216  SI_Tice1  vol(   3 ): 1.241E+14  Parms: SM  C   M1      
    use Counter Mate  #    212  SI_Fract  vol(   3 ): 7.935E+14 integral 1.241E+14
 Compute Stats, Diag. #    217  SI_Tice2  vol(   0 ): 1.684E+14  Parms: SM  C   M1      
    use Counter Mate  #    212  SI_Fract  vol(   0 ): 3.639E+15 integral 1.684E+14
 Compute Stats, Diag. #    217  SI_Tice2  vol(   1 ): 4.424E+13  Parms: SM  C   M1      
    use Counter Mate  #    212  SI_Fract  vol(   1 ): 1.289E+15 integral 4.424E+13
 Compute Stats, Diag. #    217  SI_Tice2  vol(   3 ): 1.241E+14  Parms: SM  C   M1      
    use Counter Mate  #    212  SI_Fract  vol(   3 ): 7.935E+14 integral 1.241E+14
 Compute Stats, Diag. #    218  SI_Qice1  vol(   0 ): 3.051E+14  Parms: SM  C   M1      
    use Counter Mate  #    213  SI_Thick  vol(   0 ): 1.684E+14 integral 3.051E+14
 Compute Stats, Diag. #    218  SI_Qice1  vol(   1 ): 5.234E+13  Parms: SM  C   M1      
    use Counter Mate  #    213  SI_Thick  vol(   1 ): 4.424E+13 integral 5.234E+13
 Compute Stats, Diag. #    218  SI_Qice1  vol(   3 ): 2.528E+14  Parms: SM  C   M1      
    use Counter Mate  #    213  SI_Thick  vol(   3 ): 1.241E+14 integral 2.528E+14
 Compute Stats, Diag. #    219  SI_Qice2  vol(   0 ): 3.051E+14  Parms: SM  C   M1      
    use Counter Mate  #    213  SI_Thick  vol(   0 ): 1.684E+14 integral 3.051E+14
 Compute Stats, Diag. #    219  SI_Qice2  vol(   1 ): 5.234E+13  Parms: SM  C   M1      
    use Counter Mate  #    213  SI_Thick  vol(   1 ): 4.424E+13 integral 5.234E+13
 Compute Stats, Diag. #    219  SI_Qice2  vol(   3 ): 2.528E+14  Parms: SM  C   M1      
    use Counter Mate  #    213  SI_Thick  vol(   3 ): 1.241E+14 integral 2.528E+14
 Compute Stats, Diag. #    223  SIsnwPrc  vol(   0 ): 1.694E+14  Parms: SM  C   M1      
    use Counter Mate  #    221  SI_FrcFx  vol(   0 ): 3.639E+15 integral 1.694E+14
 Compute Stats, Diag. #    223  SIsnwPrc  vol(   1 ): 4.517E+13  Parms: SM  C   M1      
    use Counter Mate  #    221  SI_FrcFx  vol(   1 ): 1.289E+15 integral 4.517E+13
 Compute Stats, Diag. #    223  SIsnwPrc  vol(   3 ): 1.243E+14  Parms: SM  C   M1      
    use Counter Mate  #    221  SI_FrcFx  vol(   3 ): 7.935E+14 integral 1.243E+14
 Compute Stats, Diag. #    222  SIalbedo  vol(   0 ): 1.694E+14  Parms: SM PC   M1      
    use Counter Mate  #    221  SI_FrcFx  vol(   0 ): 3.639E+15 integral 1.694E+14
 Compute Stats, Diag. #    222  SIalbedo  vol(   1 ): 4.517E+13  Parms: SM PC   M1      
    use Counter Mate  #    221  SI_FrcFx  vol(   1 ): 1.289E+15 integral 4.517E+13
 Compute Stats, Diag. #    222  SIalbedo  vol(   3 ): 1.243E+14  Parms: SM PC   M1      
    use Counter Mate  #    221  SI_FrcFx  vol(   3 ): 7.935E+14 integral 1.243E+14
 Compute Stats, Diag. #    220  SIsnwAge  vol(   0 ): 3.639E+15  Parms: SM P    M1      
 Compute Stats, Diag. #    220  SIsnwAge  vol(   1 ): 1.289E+15  Parms: SM P    M1      
 Compute Stats, Diag. #    220  SIsnwAge  vol(   3 ): 7.935E+14  Parms: SM P    M1      
 Compute Stats, Diag. #    226  SIflx2oc  vol(   0 ): 3.639E+15  Parms: SM      M1      
 Compute Stats, Diag. #    226  SIflx2oc  vol(   1 ): 1.289E+15  Parms: SM      M1      
 Compute Stats, Diag. #    226  SIflx2oc  vol(   3 ): 7.935E+14  Parms: SM      M1      
 Compute Stats, Diag. #    227  SIfrw2oc  vol(   0 ): 3.639E+15  Parms: SM      M1      
 Compute Stats, Diag. #    227  SIfrw2oc  vol(   1 ): 1.289E+15  Parms: SM      M1      
 Compute Stats, Diag. #    227  SIfrw2oc  vol(   3 ): 7.935E+14  Parms: SM      M1      
 Compute Stats, Diag. #    228  SIsaltFx  vol(   0 ): 3.639E+15  Parms: SM      M1      
 Compute Stats, Diag. #    228  SIsaltFx  vol(   1 ): 1.289E+15  Parms: SM      M1      
 Compute Stats, Diag. #    228  SIsaltFx  vol(   3 ): 7.935E+14  Parms: SM      M1      
 Compute Stats, Diag. #    224  SIflxAtm  vol(   0 ): 3.639E+15  Parms: SM      M1      
 Compute Stats, Diag. #    224  SIflxAtm  vol(   1 ): 1.289E+15  Parms: SM      M1      
 Compute Stats, Diag. #    224  SIflxAtm  vol(   3 ): 7.935E+14  Parms: SM      M1      
 Compute Stats, Diag. #    225  SIfrwAtm  vol(   0 ): 3.639E+15  Parms: SM      M1      
 Compute Stats, Diag. #    225  SIfrwAtm  vol(   1 ): 1.289E+15  Parms: SM      M1      
 Compute Stats, Diag. #    225  SIfrwAtm  vol(   3 ): 7.935E+14  Parms: SM      M1      
(PID.TID 0000.0001) %CHECKPOINT     72010 ckptA
(PID.TID 0000.0001) DIAGSTATS_CLOSE_IO: close file: dynStDiag.0000072000.txt , unit=     9
(PID.TID 0000.0001) DIAGSTATS_CLOSE_IO: close file: thSIceStDiag.0000072000.txt , unit=    10
(PID.TID 0000.0001)   Seconds in section "ALL                    [THE_MODEL_MAIN]":
(PID.TID 0000.0001)           User time:  89.2664313
(PID.TID 0000.0001)         System time:  0.446932013
(PID.TID 0000.0001)     Wall clock time:  89.839597
(PID.TID 0000.0001)          No. starts: 1
(PID.TID 0000.0001)           No. stops: 1
(PID.TID 0000.0001)   Seconds in section "INITIALISE_FIXED       [THE_MODEL_MAIN]":
(PID.TID 0000.0001)           User time:  0.619905998
(PID.TID 0000.0001)         System time:  0.104984003
(PID.TID 0000.0001)     Wall clock time:  0.72511816
(PID.TID 0000.0001)          No. starts: 1
(PID.TID 0000.0001)           No. stops: 1
(PID.TID 0000.0001)   Seconds in section "THE_MAIN_LOOP          [THE_MODEL_MAIN]":
(PID.TID 0000.0001)           User time:  88.6465253
(PID.TID 0000.0001)         System time:  0.34194801
(PID.TID 0000.0001)     Wall clock time:  89.114167
(PID.TID 0000.0001)          No. starts: 1
(PID.TID 0000.0001)           No. stops: 1
(PID.TID 0000.0001)   Seconds in section "INITIALISE_VARIA    [THE_MAIN_LOOP]":
(PID.TID 0000.0001)           User time:  1.55076402
(PID.TID 0000.0001)         System time:  0.230964996
(PID.TID 0000.0001)     Wall clock time:  1.87192297
(PID.TID 0000.0001)          No. starts: 1
(PID.TID 0000.0001)           No. stops: 1
(PID.TID 0000.0001)   Seconds in section "MAIN LOOP           [THE_MAIN_LOOP]":
(PID.TID 0000.0001)           User time:  87.0957613
(PID.TID 0000.0001)         System time:  0.110983014
(PID.TID 0000.0001)     Wall clock time:  87.2421169
(PID.TID 0000.0001)          No. starts: 1
(PID.TID 0000.0001)           No. stops: 1
(PID.TID 0000.0001)   Seconds in section "FORWARD_STEP        [THE_MAIN_LOOP]":
(PID.TID 0000.0001)           User time:  87.0947618
(PID.TID 0000.0001)         System time:  0.110983014
(PID.TID 0000.0001)     Wall clock time:  87.2416689
(PID.TID 0000.0001)          No. starts: 10
(PID.TID 0000.0001)           No. stops: 10
(PID.TID 0000.0001)   Seconds in section "DO_STATEVARS_DIAGS  [FORWARD_STEP]":
(PID.TID 0000.0001)           User time:  0.276965857
(PID.TID 0000.0001)         System time:  0.
(PID.TID 0000.0001)     Wall clock time:  0.277199984
(PID.TID 0000.0001)          No. starts: 30
(PID.TID 0000.0001)           No. stops: 30
(PID.TID 0000.0001)   Seconds in section "LOAD_FIELDS_DRIVER  [FORWARD_STEP]":
(PID.TID 0000.0001)           User time:  0.646903992
(PID.TID 0000.0001)         System time:  0.00599899888
(PID.TID 0000.0001)     Wall clock time:  0.655771971
(PID.TID 0000.0001)          No. starts: 10
(PID.TID 0000.0001)           No. stops: 10
(PID.TID 0000.0001)   Seconds in section "EXF_GETFORCING     [LOAD_FLDS_DRIVER]":
(PID.TID 0000.0001)           User time:  0.646903992
(PID.TID 0000.0001)         System time:  0.00499898195
(PID.TID 0000.0001)     Wall clock time:  0.654944658
(PID.TID 0000.0001)          No. starts: 10
(PID.TID 0000.0001)           No. stops: 10
(PID.TID 0000.0001)   Seconds in section "DO_ATMOSPHERIC_PHYS [FORWARD_STEP]":
(PID.TID 0000.0001)           User time:  0.
(PID.TID 0000.0001)         System time:  0.
(PID.TID 0000.0001)     Wall clock time:  0.000413656235
(PID.TID 0000.0001)          No. starts: 10
(PID.TID 0000.0001)           No. stops: 10
(PID.TID 0000.0001)   Seconds in section "DO_OCEANIC_PHYS     [FORWARD_STEP]":
(PID.TID 0000.0001)           User time:  64.719151
(PID.TID 0000.0001)         System time:  0.0309960246
(PID.TID 0000.0001)     Wall clock time:  64.7731767
(PID.TID 0000.0001)          No. starts: 10
(PID.TID 0000.0001)           No. stops: 10
(PID.TID 0000.0001)   Seconds in section "SEAICE_MODEL    [DO_OCEANIC_PHYS]":
(PID.TID 0000.0001)           User time:  60.1348562
(PID.TID 0000.0001)         System time:  0.0289960206
(PID.TID 0000.0001)     Wall clock time:  60.1847298
(PID.TID 0000.0001)          No. starts: 10
(PID.TID 0000.0001)           No. stops: 10
(PID.TID 0000.0001)   Seconds in section "SEAICE_DYNSOLVER   [SEAICE_MODEL]":
(PID.TID 0000.0001)           User time:  60.0998595
(PID.TID 0000.0001)         System time:  0.0289960206
(PID.TID 0000.0001)     Wall clock time:  60.1467378
(PID.TID 0000.0001)          No. starts: 10
(PID.TID 0000.0001)           No. stops: 10
(PID.TID 0000.0001)   Seconds in section "THSICE_MAIN     [DO_OCEANIC_PHYS]":
(PID.TID 0000.0001)           User time:  0.777873993
(PID.TID 0000.0001)         System time:  0.000999987125
(PID.TID 0000.0001)     Wall clock time:  0.778326511
(PID.TID 0000.0001)          No. starts: 10
(PID.TID 0000.0001)           No. stops: 10
(PID.TID 0000.0001)   Seconds in section "DYNAMICS            [FORWARD_STEP]":
(PID.TID 0000.0001)           User time:  6.62999392
(PID.TID 0000.0001)         System time:  0.00499996543
(PID.TID 0000.0001)     Wall clock time:  6.63462067
(PID.TID 0000.0001)          No. starts: 10
(PID.TID 0000.0001)           No. stops: 10
(PID.TID 0000.0001)   Seconds in section "UPDATE_R_STAR       [FORWARD_STEP]":
(PID.TID 0000.0001)           User time:  0.460931301
(PID.TID 0000.0001)         System time:  0.
(PID.TID 0000.0001)     Wall clock time:  0.462600946
(PID.TID 0000.0001)          No. starts: 10
(PID.TID 0000.0001)           No. stops: 10
(PID.TID 0000.0001)   Seconds in section "UPDATE_CG2D         [FORWARD_STEP]":
(PID.TID 0000.0001)           User time:  0.149979591
(PID.TID 0000.0001)         System time:  0.
(PID.TID 0000.0001)     Wall clock time:  0.148493528
(PID.TID 0000.0001)          No. starts: 10
(PID.TID 0000.0001)           No. stops: 10
(PID.TID 0000.0001)   Seconds in section "SOLVE_FOR_PRESSURE  [FORWARD_STEP]":
(PID.TID 0000.0001)           User time:  3.52146721
(PID.TID 0000.0001)         System time:  0.000999003649
(PID.TID 0000.0001)     Wall clock time:  3.52291274
(PID.TID 0000.0001)          No. starts: 10
(PID.TID 0000.0001)           No. stops: 10
(PID.TID 0000.0001)   Seconds in section "MOM_CORRECTION_STEP [FORWARD_STEP]":
(PID.TID 0000.0001)           User time:  0.65489769
(PID.TID 0000.0001)         System time:  0.
(PID.TID 0000.0001)     Wall clock time:  0.655079842
(PID.TID 0000.0001)          No. starts: 10
(PID.TID 0000.0001)           No. stops: 10
(PID.TID 0000.0001)   Seconds in section "UPDATE_ETAH         [FORWARD_STEP]":
(PID.TID 0000.0001)           User time:  0.00699710846
(PID.TID 0000.0001)         System time:  0.
(PID.TID 0000.0001)     Wall clock time:  0.00553107262
(PID.TID 0000.0001)          No. starts: 10
(PID.TID 0000.0001)           No. stops: 10
(PID.TID 0000.0001)   Seconds in section "CALC_R_STAR         [FORWARD_STEP]":
(PID.TID 0000.0001)           User time:  0.100980759
(PID.TID 0000.0001)         System time:  0.
(PID.TID 0000.0001)     Wall clock time:  0.103238344
(PID.TID 0000.0001)          No. starts: 10
(PID.TID 0000.0001)           No. stops: 10
(PID.TID 0000.0001)   Seconds in section "BLOCKING_EXCHANGES  [FORWARD_STEP]":
(PID.TID 0000.0001)           User time:  1.02884865
(PID.TID 0000.0001)         System time:  0.
(PID.TID 0000.0001)     Wall clock time:  1.03018665
(PID.TID 0000.0001)          No. starts: 20
(PID.TID 0000.0001)           No. stops: 20
(PID.TID 0000.0001)   Seconds in section "THERMODYNAMICS      [FORWARD_STEP]":
(PID.TID 0000.0001)           User time:  5.88010311
(PID.TID 0000.0001)         System time:  0.00199902058
(PID.TID 0000.0001)     Wall clock time:  5.88258386
(PID.TID 0000.0001)          No. starts: 10
(PID.TID 0000.0001)           No. stops: 10
(PID.TID 0000.0001)   Seconds in section "TRC_CORRECTION_STEP [FORWARD_STEP]":
(PID.TID 0000.0001)           User time:  0.102976799
(PID.TID 0000.0001)         System time:  0.
(PID.TID 0000.0001)     Wall clock time:  0.104020834
(PID.TID 0000.0001)          No. starts: 10
(PID.TID 0000.0001)           No. stops: 10
(PID.TID 0000.0001)   Seconds in section "DO_STATEVARS_TAVE   [FORWARD_STEP]":
(PID.TID 0000.0001)           User time:  0.
(PID.TID 0000.0001)         System time:  0.
(PID.TID 0000.0001)     Wall clock time:  0.0004093647
(PID.TID 0000.0001)          No. starts: 10
(PID.TID 0000.0001)           No. stops: 10
(PID.TID 0000.0001)   Seconds in section "MONITOR             [FORWARD_STEP]":
(PID.TID 0000.0001)           User time:  2.22366142
(PID.TID 0000.0001)         System time:  0.00199899077
(PID.TID 0000.0001)     Wall clock time:  2.22818589
(PID.TID 0000.0001)          No. starts: 10
(PID.TID 0000.0001)           No. stops: 10
(PID.TID 0000.0001)   Seconds in section "DO_THE_MODEL_IO     [FORWARD_STEP]":
(PID.TID 0000.0001)           User time:  0.394939423
(PID.TID 0000.0001)         System time:  0.0289959908
(PID.TID 0000.0001)     Wall clock time:  0.426431656
(PID.TID 0000.0001)          No. starts: 10
(PID.TID 0000.0001)           No. stops: 10
(PID.TID 0000.0001)   Seconds in section "DO_WRITE_PICKUP     [FORWARD_STEP]":
(PID.TID 0000.0001)           User time:  0.28396225
(PID.TID 0000.0001)         System time:  0.0329950154
(PID.TID 0000.0001)     Wall clock time:  0.321572542
(PID.TID 0000.0001)          No. starts: 10
(PID.TID 0000.0001)           No. stops: 10
(PID.TID 0000.0001) // ======================================================
(PID.TID 0000.0001) // Tile <-> Tile communication statistics
(PID.TID 0000.0001) // ======================================================
(PID.TID 0000.0001) // o Tile number: 000001
(PID.TID 0000.0001) //         No. X exchanges =              0
(PID.TID 0000.0001) //            Max. X spins =              0
(PID.TID 0000.0001) //            Min. X spins =     1000000000
(PID.TID 0000.0001) //          Total. X spins =              0
(PID.TID 0000.0001) //            Avg. X spins =       0.00E+00
(PID.TID 0000.0001) //         No. Y exchanges =              0
(PID.TID 0000.0001) //            Max. Y spins =              0
(PID.TID 0000.0001) //            Min. Y spins =     1000000000
(PID.TID 0000.0001) //          Total. Y spins =              0
(PID.TID 0000.0001) //            Avg. Y spins =       0.00E+00
(PID.TID 0000.0001) // o Tile number: 000002
(PID.TID 0000.0001) //         No. X exchanges =              0
(PID.TID 0000.0001) //            Max. X spins =              0
(PID.TID 0000.0001) //            Min. X spins =     1000000000
(PID.TID 0000.0001) //          Total. X spins =              0
(PID.TID 0000.0001) //            Avg. X spins =       0.00E+00
(PID.TID 0000.0001) //         No. Y exchanges =              0
(PID.TID 0000.0001) //            Max. Y spins =              0
(PID.TID 0000.0001) //            Min. Y spins =     1000000000
(PID.TID 0000.0001) //          Total. Y spins =              0
(PID.TID 0000.0001) //            Avg. Y spins =       0.00E+00
(PID.TID 0000.0001) // o Tile number: 000003
(PID.TID 0000.0001) //         No. X exchanges =              0
(PID.TID 0000.0001) //            Max. X spins =              0
(PID.TID 0000.0001) //            Min. X spins =     1000000000
(PID.TID 0000.0001) //          Total. X spins =              0
(PID.TID 0000.0001) //            Avg. X spins =       0.00E+00
(PID.TID 0000.0001) //         No. Y exchanges =              0
(PID.TID 0000.0001) //            Max. Y spins =              0
(PID.TID 0000.0001) //            Min. Y spins =     1000000000
(PID.TID 0000.0001) //          Total. Y spins =              0
(PID.TID 0000.0001) //            Avg. Y spins =       0.00E+00
(PID.TID 0000.0001) // o Tile number: 000004
(PID.TID 0000.0001) //         No. X exchanges =              0
(PID.TID 0000.0001) //            Max. X spins =              0
(PID.TID 0000.0001) //            Min. X spins =     1000000000
(PID.TID 0000.0001) //          Total. X spins =              0
(PID.TID 0000.0001) //            Avg. X spins =       0.00E+00
(PID.TID 0000.0001) //         No. Y exchanges =              0
(PID.TID 0000.0001) //            Max. Y spins =              0
(PID.TID 0000.0001) //            Min. Y spins =     1000000000
(PID.TID 0000.0001) //          Total. Y spins =              0
(PID.TID 0000.0001) //            Avg. Y spins =       0.00E+00
(PID.TID 0000.0001) // o Tile number: 000005
(PID.TID 0000.0001) //         No. X exchanges =              0
(PID.TID 0000.0001) //            Max. X spins =              0
(PID.TID 0000.0001) //            Min. X spins =     1000000000
(PID.TID 0000.0001) //          Total. X spins =              0
(PID.TID 0000.0001) //            Avg. X spins =       0.00E+00
(PID.TID 0000.0001) //         No. Y exchanges =              0
(PID.TID 0000.0001) //            Max. Y spins =              0
(PID.TID 0000.0001) //            Min. Y spins =     1000000000
(PID.TID 0000.0001) //          Total. Y spins =              0
(PID.TID 0000.0001) //            Avg. Y spins =       0.00E+00
(PID.TID 0000.0001) // o Tile number: 000006
(PID.TID 0000.0001) //         No. X exchanges =              0
(PID.TID 0000.0001) //            Max. X spins =              0
(PID.TID 0000.0001) //            Min. X spins =     1000000000
(PID.TID 0000.0001) //          Total. X spins =              0
(PID.TID 0000.0001) //            Avg. X spins =       0.00E+00
(PID.TID 0000.0001) //         No. Y exchanges =              0
(PID.TID 0000.0001) //            Max. Y spins =              0
(PID.TID 0000.0001) //            Min. Y spins =     1000000000
(PID.TID 0000.0001) //          Total. Y spins =              0
(PID.TID 0000.0001) //            Avg. Y spins =       0.00E+00
(PID.TID 0000.0001) // o Tile number: 000007
(PID.TID 0000.0001) //         No. X exchanges =              0
(PID.TID 0000.0001) //            Max. X spins =              0
(PID.TID 0000.0001) //            Min. X spins =     1000000000
(PID.TID 0000.0001) //          Total. X spins =              0
(PID.TID 0000.0001) //            Avg. X spins =       0.00E+00
(PID.TID 0000.0001) //         No. Y exchanges =              0
(PID.TID 0000.0001) //            Max. Y spins =              0
(PID.TID 0000.0001) //            Min. Y spins =     1000000000
(PID.TID 0000.0001) //          Total. Y spins =              0
(PID.TID 0000.0001) //            Avg. Y spins =       0.00E+00
(PID.TID 0000.0001) // o Tile number: 000008
(PID.TID 0000.0001) //         No. X exchanges =              0
(PID.TID 0000.0001) //            Max. X spins =              0
(PID.TID 0000.0001) //            Min. X spins =     1000000000
(PID.TID 0000.0001) //          Total. X spins =              0
(PID.TID 0000.0001) //            Avg. X spins =       0.00E+00
(PID.TID 0000.0001) //         No. Y exchanges =              0
(PID.TID 0000.0001) //            Max. Y spins =              0
(PID.TID 0000.0001) //            Min. Y spins =     1000000000
(PID.TID 0000.0001) //          Total. Y spins =              0
(PID.TID 0000.0001) //            Avg. Y spins =       0.00E+00
(PID.TID 0000.0001) // o Tile number: 000009
(PID.TID 0000.0001) //         No. X exchanges =              0
(PID.TID 0000.0001) //            Max. X spins =              0
(PID.TID 0000.0001) //            Min. X spins =     1000000000
(PID.TID 0000.0001) //          Total. X spins =              0
(PID.TID 0000.0001) //            Avg. X spins =       0.00E+00
(PID.TID 0000.0001) //         No. Y exchanges =              0
(PID.TID 0000.0001) //            Max. Y spins =              0
(PID.TID 0000.0001) //            Min. Y spins =     1000000000
(PID.TID 0000.0001) //          Total. Y spins =              0
(PID.TID 0000.0001) //            Avg. Y spins =       0.00E+00
(PID.TID 0000.0001) // o Tile number: 000010
(PID.TID 0000.0001) //         No. X exchanges =              0
(PID.TID 0000.0001) //            Max. X spins =              0
(PID.TID 0000.0001) //            Min. X spins =     1000000000
(PID.TID 0000.0001) //          Total. X spins =              0
(PID.TID 0000.0001) //            Avg. X spins =       0.00E+00
(PID.TID 0000.0001) //         No. Y exchanges =              0
(PID.TID 0000.0001) //            Max. Y spins =              0
(PID.TID 0000.0001) //            Min. Y spins =     1000000000
(PID.TID 0000.0001) //          Total. Y spins =              0
(PID.TID 0000.0001) //            Avg. Y spins =       0.00E+00
(PID.TID 0000.0001) // o Tile number: 000011
(PID.TID 0000.0001) //         No. X exchanges =              0
(PID.TID 0000.0001) //            Max. X spins =              0
(PID.TID 0000.0001) //            Min. X spins =     1000000000
(PID.TID 0000.0001) //          Total. X spins =              0
(PID.TID 0000.0001) //            Avg. X spins =       0.00E+00
(PID.TID 0000.0001) //         No. Y exchanges =              0
(PID.TID 0000.0001) //            Max. Y spins =              0
(PID.TID 0000.0001) //            Min. Y spins =     1000000000
(PID.TID 0000.0001) //          Total. Y spins =              0
(PID.TID 0000.0001) //            Avg. Y spins =       0.00E+00
(PID.TID 0000.0001) // o Tile number: 000012
(PID.TID 0000.0001) //         No. X exchanges =              0
(PID.TID 0000.0001) //            Max. X spins =              0
(PID.TID 0000.0001) //            Min. X spins =     1000000000
(PID.TID 0000.0001) //          Total. X spins =              0
(PID.TID 0000.0001) //            Avg. X spins =       0.00E+00
(PID.TID 0000.0001) //         No. Y exchanges =              0
(PID.TID 0000.0001) //            Max. Y spins =              0
(PID.TID 0000.0001) //            Min. Y spins =     1000000000
(PID.TID 0000.0001) //          Total. Y spins =              0
(PID.TID 0000.0001) //            Avg. Y spins =       0.00E+00
(PID.TID 0000.0001) // o Thread number: 000001
(PID.TID 0000.0001) //            No. barriers =          74558
(PID.TID 0000.0001) //      Max. barrier spins =              1
(PID.TID 0000.0001) //      Min. barrier spins =              1
(PID.TID 0000.0001) //     Total barrier spins =          74558
(PID.TID 0000.0001) //      Avg. barrier spins =       1.00E+00
