(PID.TID 0000.0001) 
(PID.TID 0000.0001) // ======================================================
(PID.TID 0000.0001) //                      MITgcm UV
(PID.TID 0000.0001) //                      =========
(PID.TID 0000.0001) // ======================================================
(PID.TID 0000.0001) // execution environment starting up...
(PID.TID 0000.0001) 
(PID.TID 0000.0001) // MITgcmUV version:  checkpoint63p
(PID.TID 0000.0001) // Build user:        jmc
(PID.TID 0000.0001) // Build host:        baudelaire
(PID.TID 0000.0001) // Build date:        Sun Jul 29 15:14:44 EDT 2012
(PID.TID 0000.0001) 
(PID.TID 0000.0001) // =======================================================
(PID.TID 0000.0001) // Execution Environment parameter file "eedata"
(PID.TID 0000.0001) // =======================================================
(PID.TID 0000.0001) ># Example "eedata" file
(PID.TID 0000.0001) ># Lines beginning "#" are comments
(PID.TID 0000.0001) ># nTx - No. threads per process in X
(PID.TID 0000.0001) ># nTy - No. threads per process in Y
(PID.TID 0000.0001) > &EEPARMS
(PID.TID 0000.0001) > useCubedSphereExchange=.TRUE.,
(PID.TID 0000.0001) > nTx=1,
(PID.TID 0000.0001) > nTy=1,
(PID.TID 0000.0001) > /
(PID.TID 0000.0001) ># Note: Some systems use & as the
(PID.TID 0000.0001) ># namelist terminator. Other systems
(PID.TID 0000.0001) ># use a / character (as shown here).
(PID.TID 0000.0001) 
(PID.TID 0000.0001) // =======================================================
(PID.TID 0000.0001) // Computational Grid Specification ( see files "SIZE.h" )
(PID.TID 0000.0001) //                                  ( and "eedata"       )
(PID.TID 0000.0001) // =======================================================
(PID.TID 0000.0001)      nPx =    1 ; /* No. processes in X */
(PID.TID 0000.0001)      nPy =    1 ; /* No. processes in Y */
(PID.TID 0000.0001)      nSx =   12 ; /* No. tiles in X per process */
(PID.TID 0000.0001)      nSy =    1 ; /* No. tiles in Y per process */
(PID.TID 0000.0001)      sNx =   32 ; /* Tile size in X */
(PID.TID 0000.0001)      sNy =   16 ; /* Tile size in Y */
(PID.TID 0000.0001)      OLx =    4 ; /* Tile overlap distance in X */
(PID.TID 0000.0001)      OLy =    4 ; /* Tile overlap distance in Y */
(PID.TID 0000.0001)      nTx =    1 ; /* No. threads in X per process */
(PID.TID 0000.0001)      nTy =    1 ; /* No. threads in Y per process */
(PID.TID 0000.0001)       Nr =   15 ; /* No. levels in the vertical   */
(PID.TID 0000.0001)       Nx =  384 ; /* Total domain size in X ( = nPx*nSx*sNx ) */
(PID.TID 0000.0001)       Ny =   16 ; /* Total domain size in Y ( = nPy*nSy*sNy ) */
(PID.TID 0000.0001)   nTiles =   12 ; /* Total no. tiles per process ( = nSx*nSy ) */
(PID.TID 0000.0001)   nProcs =    1 ; /* Total no. processes ( = nPx*nPy ) */
(PID.TID 0000.0001) nThreads =    1 ; /* Total no. threads per process ( = nTx*nTy ) */
(PID.TID 0000.0001) usingMPI =    F ; /* Flag used to control whether MPI is in use */
(PID.TID 0000.0001)                   /*  note: To execute a program with MPI calls */
(PID.TID 0000.0001)                   /*  it must be launched appropriately e.g     */
(PID.TID 0000.0001)                   /*  "mpirun -np 64 ......"                    */
(PID.TID 0000.0001) useCoupler=    F ;/* Flag used to control communications with   */
(PID.TID 0000.0001)                   /*  other model components, through a coupler */
(PID.TID 0000.0001) debugMode =    F ; /* print debug msg. (sequence of S/R calls)  */
(PID.TID 0000.0001) printMapIncludesZeros=    F ; /* print zeros in Std.Output maps */
(PID.TID 0000.0001) maxLengthPrt1D=   65 /* maxLength of 1D array printed to StdOut */
(PID.TID 0000.0001) 
(PID.TID 0000.0001) // ======================================================
(PID.TID 0000.0001) // Mapping of tiles to threads
(PID.TID 0000.0001) // ======================================================
(PID.TID 0000.0001) // -o- Thread   1, tiles (   1:  12,   1:   1)
(PID.TID 0000.0001) 
(PID.TID 0000.0001) W2_READPARMS: file data.exch2 not found
(PID.TID 0000.0001) => use W2_EXCH2 default: regular 6-facets Cube
(PID.TID 0000.0001) W2_useE2ioLayOut=    T ;/* T: use Exch2 glob IO map; F: use model default */
(PID.TID 0000.0001) W2_mapIO        =  -1 ; /* select option for Exch2 global-IO map */
(PID.TID 0000.0001) W2_printMsg     =  -1 ; /* select option for printing information */
(PID.TID 0000.0001) ===== Start setting W2 TOPOLOGY:
(PID.TID 0000.0001)  write to log-file: w2_tile_topology.0000.log
(PID.TID 0000.0001) =====       setting W2 TOPOLOGY: Done
(PID.TID 0000.0001) 
(PID.TID 0000.0001)  INI_PARMS: opening model parameter file "data"
(PID.TID 0000.0001)  OPEN_COPY_DATA_FILE: opening file data
(PID.TID 0000.0001) // =======================================================
(PID.TID 0000.0001) // Parameter file "data"
(PID.TID 0000.0001) // =======================================================
(PID.TID 0000.0001) ># ====================
(PID.TID 0000.0001) ># | Model parameters |
(PID.TID 0000.0001) ># ====================
(PID.TID 0000.0001) >#
(PID.TID 0000.0001) ># Continuous equation parameters
(PID.TID 0000.0001) > &PARM01
(PID.TID 0000.0001) > tRef=15*20.,
(PID.TID 0000.0001) > sRef=15*35.,
(PID.TID 0000.0001) > viscAh =3.E5,
(PID.TID 0000.0001) >#- biharmonic Viscosity: 3.e15 is close to the stability limit with deltaTmom=20mn
(PID.TID 0000.0001) >#viscA4 =3.E15,
(PID.TID 0000.0001) > viscAr =1.E-3,
(PID.TID 0000.0001) > diffKhT=0.,
(PID.TID 0000.0001) > diffK4T=0.,
(PID.TID 0000.0001) > diffKrT=3.E-5,
(PID.TID 0000.0001) > diffKhS=0.,
(PID.TID 0000.0001) > diffK4S=0.,
(PID.TID 0000.0001) > diffKrS=3.E-5,
(PID.TID 0000.0001) > ivdc_kappa=10.,
(PID.TID 0000.0001) > implicitDiffusion=.TRUE.,
(PID.TID 0000.0001) > gravity=9.81,
(PID.TID 0000.0001) > rhoConst=1035.,
(PID.TID 0000.0001) > rhoConstFresh=1000.,
(PID.TID 0000.0001) > eosType='JMD95Z',
(PID.TID 0000.0001) > staggerTimeStep=.TRUE.,
(PID.TID 0000.0001) > vectorInvariantMomentum=.TRUE.,
(PID.TID 0000.0001) > implicitFreeSurface=.TRUE.,
(PID.TID 0000.0001) > tempAdvScheme=30,
(PID.TID 0000.0001) > saltAdvScheme=30,
(PID.TID 0000.0001) > exactConserv=.TRUE.,
(PID.TID 0000.0001) > select_rStar=2,
(PID.TID 0000.0001) > nonlinFreeSurf=2,
(PID.TID 0000.0001) > hFacInf=0.2,
(PID.TID 0000.0001) > hFacSup=2.0,
(PID.TID 0000.0001) > useRealFreshWaterFlux=.TRUE.,
(PID.TID 0000.0001) >### allowFreezing=.TRUE.,
(PID.TID 0000.0001) > hFacMin=.1,
(PID.TID 0000.0001) > hFacMinDr=20.,
(PID.TID 0000.0001) > readBinaryPrec=64,
(PID.TID 0000.0001) > /
(PID.TID 0000.0001) >
(PID.TID 0000.0001) ># Elliptic solver parameters
(PID.TID 0000.0001) > &PARM02
(PID.TID 0000.0001) > cg2dMaxIters=200,
(PID.TID 0000.0001) >#cg2dTargetResidual=1.E-9,
(PID.TID 0000.0001) > cg2dTargetResWunit=1.E-14,
(PID.TID 0000.0001) > /
(PID.TID 0000.0001) >
(PID.TID 0000.0001) ># Time stepping parameters
(PID.TID 0000.0001) > &PARM03
(PID.TID 0000.0001) > nIter0=72000,
(PID.TID 0000.0001) > nTimeSteps=10,
(PID.TID 0000.0001) > deltaTMom   =1200.,
(PID.TID 0000.0001) > deltaTtracer=86400.,
(PID.TID 0000.0001) > deltaTFreeSurf=86400.,
(PID.TID 0000.0001) > deltaTClock =86400.,
(PID.TID 0000.0001) > abEps = 0.1,
(PID.TID 0000.0001) > alph_AB=0.6,
(PID.TID 0000.0001) > beta_AB=0.0,
(PID.TID 0000.0001) >#forcing_In_AB=.FALSE.,
(PID.TID 0000.0001) > tracForcingOutAB=1,
(PID.TID 0000.0001) > pChkptFreq  =311040000.,
(PID.TID 0000.0001) > chkptFreq   = 31104000.,
(PID.TID 0000.0001) >#taveFreq    =311040000.,
(PID.TID 0000.0001) >#dumpFreq    = 31104000.,
(PID.TID 0000.0001) >#adjDumpFreq = 31104000.,
(PID.TID 0000.0001) >#monitorFreq = 31104000.,
(PID.TID 0000.0001) >#- forcing is set by EXF
(PID.TID 0000.0001) ># periodicExternalForcing=.TRUE.,
(PID.TID 0000.0001) ># externForcingPeriod=2592000.,
(PID.TID 0000.0001) ># externForcingCycle=31104000.,
(PID.TID 0000.0001) ># 2 months restoring timescale for temperature
(PID.TID 0000.0001) ># tauThetaClimRelax = 5184000.,
(PID.TID 0000.0001) ># 2yrs restoring timescale for salinity
(PID.TID 0000.0001) ># tauSaltClimRelax = 62208000.,
(PID.TID 0000.0001) > monitorFreq   =1.,
(PID.TID 0000.0001) > adjMonitorFreq=1.,
(PID.TID 0000.0001) > dumpFreq    = 432000.,
(PID.TID 0000.0001) > adjDumpFreq = 432000.,
(PID.TID 0000.0001) > pickupStrictlyMatch=.FALSE.,
(PID.TID 0000.0001) > /
(PID.TID 0000.0001) >
(PID.TID 0000.0001) ># Gridding parameters
(PID.TID 0000.0001) > &PARM04
(PID.TID 0000.0001) > usingCurvilinearGrid=.TRUE.,
(PID.TID 0000.0001) > horizGridFile='grid_cs32',
(PID.TID 0000.0001) > delR= 50., 70., 100., 140., 190.,
(PID.TID 0000.0001) >       240., 290., 340., 390., 440.,
(PID.TID 0000.0001) >       490., 540., 590., 640., 690.,
(PID.TID 0000.0001) > /
(PID.TID 0000.0001) >
(PID.TID 0000.0001) ># Input datasets
(PID.TID 0000.0001) > &PARM05
(PID.TID 0000.0001) > bathyFile      ='bathy_Hmin50.bin',
(PID.TID 0000.0001) > hydrogThetaFile='lev_T_cs_15k.bin',
(PID.TID 0000.0001) > hydrogSaltFile ='lev_S_cs_15k.bin',
(PID.TID 0000.0001) >#- forcing is set by EXF
(PID.TID 0000.0001) ># zonalWindFile  ='trenberth_taux.bin',
(PID.TID 0000.0001) ># meridWindFile  ='trenberth_tauy.bin',
(PID.TID 0000.0001) ># thetaClimFile  ='lev_surfT_cs_12m.bin',
(PID.TID 0000.0001) ># saltClimFile   ='lev_surfS_cs_12m.bin',
(PID.TID 0000.0001) ># surfQFile      ='shiQnet_cs32.bin',
(PID.TID 0000.0001) ># EmPmRFile      ='shiEmPR_cs32.bin',
(PID.TID 0000.0001) > /
(PID.TID 0000.0001) 
(PID.TID 0000.0001)  INI_PARMS ; starts to read PARM01
(PID.TID 0000.0001)  INI_PARMS ; read PARM01 : OK
(PID.TID 0000.0001)  INI_PARMS ; starts to read PARM02
(PID.TID 0000.0001)  INI_PARMS ; read PARM02 : OK
(PID.TID 0000.0001)  INI_PARMS ; starts to read PARM03
(PID.TID 0000.0001)  INI_PARMS ; read PARM03 : OK
(PID.TID 0000.0001)  INI_PARMS ; starts to read PARM04
(PID.TID 0000.0001)  INI_PARMS ; read PARM04 : OK
(PID.TID 0000.0001)  INI_PARMS ; starts to read PARM05
(PID.TID 0000.0001)  INI_PARMS ; read PARM05 : OK
(PID.TID 0000.0001)  INI_PARMS: finished reading file "data"
(PID.TID 0000.0001)  PACKAGES_BOOT: opening data.pkg
(PID.TID 0000.0001)  OPEN_COPY_DATA_FILE: opening file data.pkg
(PID.TID 0000.0001) // =======================================================
(PID.TID 0000.0001) // Parameter file "data.pkg"
(PID.TID 0000.0001) // =======================================================
(PID.TID 0000.0001) ># Packages
(PID.TID 0000.0001) > &PACKAGES
(PID.TID 0000.0001) > useGMRedi = .TRUE.,
(PID.TID 0000.0001) > useEXF    = .TRUE.,
(PID.TID 0000.0001) > useTHSICE = .TRUE.,
(PID.TID 0000.0001) >#useDiagnostics=.TRUE.,
(PID.TID 0000.0001) >#useMNC=.TRUE.,
(PID.TID 0000.0001) > useGrdchk=.TRUE.,
(PID.TID 0000.0001) > /
(PID.TID 0000.0001) 
(PID.TID 0000.0001)  PACKAGES_BOOT: finished reading data.pkg
(PID.TID 0000.0001) CAL_READPARMS: opening data.cal
(PID.TID 0000.0001)  OPEN_COPY_DATA_FILE: opening file data.cal
(PID.TID 0000.0001) // =======================================================
(PID.TID 0000.0001) // Parameter file "data.cal"
(PID.TID 0000.0001) // =======================================================
(PID.TID 0000.0001) >#
(PID.TID 0000.0001) ># *******************
(PID.TID 0000.0001) ># Calendar Parameters
(PID.TID 0000.0001) ># *******************
(PID.TID 0000.0001) > &CAL_NML
(PID.TID 0000.0001) > TheCalendar='model',
(PID.TID 0000.0001) > startDate_1=00010101,
(PID.TID 0000.0001) > startDate_2=000000,
(PID.TID 0000.0001) > /
(PID.TID 0000.0001) 
(PID.TID 0000.0001) CAL_READPARMS: finished reading data.cal
(PID.TID 0000.0001) EXF_READPARMS: opening data.exf
(PID.TID 0000.0001)  OPEN_COPY_DATA_FILE: opening file data.exf
(PID.TID 0000.0001) // =======================================================
(PID.TID 0000.0001) // Parameter file "data.exf"
(PID.TID 0000.0001) // =======================================================
(PID.TID 0000.0001) ># *********************
(PID.TID 0000.0001) ># External Forcing Data
(PID.TID 0000.0001) ># *********************
(PID.TID 0000.0001) > &EXF_NML_01
(PID.TID 0000.0001) >#exf_verbose       = .TRUE.,
(PID.TID 0000.0001) >#useExfCheckRange  = .TRUE.,
(PID.TID 0000.0001) >#useStabilityFct_overIce=.TRUE.,
(PID.TID 0000.0001) >#snow_emissivity   = 0.98,
(PID.TID 0000.0001) >#ice_emissivity    = 0.98,
(PID.TID 0000.0001) > ocean_emissivity  = 1.,
(PID.TID 0000.0001) > atmrho            = 1.22,
(PID.TID 0000.0001) > humid_fac         = .608,
(PID.TID 0000.0001) > ht                = 10.,
(PID.TID 0000.0001) > exf_albedo        = 0.066,
(PID.TID 0000.0001) >#readStressOnAgrid = .TRUE.,
(PID.TID 0000.0001) > readStressOnCgrid = .TRUE.,
(PID.TID 0000.0001) > exf_monFreq       = 0.,
(PID.TID 0000.0001) > repeatPeriod      = 31104000.,
(PID.TID 0000.0001) > exf_iprec         = 64,
(PID.TID 0000.0001) > /
(PID.TID 0000.0001) >
(PID.TID 0000.0001) ># *********************
(PID.TID 0000.0001) > &EXF_NML_02
(PID.TID 0000.0001) >#
(PID.TID 0000.0001) > atempstartdate1   = 00010115,
(PID.TID 0000.0001) >#atempstartdate2   = 180000,
(PID.TID 0000.0001) > atempperiod       = 2592000.0,
(PID.TID 0000.0001) >#
(PID.TID 0000.0001) > aqhstartdate1     = 00010115,
(PID.TID 0000.0001) >#aqhstartdate2     = 180000,
(PID.TID 0000.0001) > aqhperiod         = 2592000.0,
(PID.TID 0000.0001) >#
(PID.TID 0000.0001) > precipstartdate1  = 00010115,
(PID.TID 0000.0001) >#precipstartdate2  = 180000,
(PID.TID 0000.0001) > precipperiod      = 2592000.0,
(PID.TID 0000.0001) >#
(PID.TID 0000.0001) > snowprecipstartdate1= 00010115,
(PID.TID 0000.0001) >#snowprecipstartdate2= 180000,
(PID.TID 0000.0001) > snowprecipperiod    = 2592000.,
(PID.TID 0000.0001) >#
(PID.TID 0000.0001) > runoffstartdate1  = 00010115,
(PID.TID 0000.0001) >#runoffstartdate2  = 180000,
(PID.TID 0000.0001) > runoffperiod      = 2592000.0,
(PID.TID 0000.0001) >#
(PID.TID 0000.0001) > uwindstartdate1   = 00010115,
(PID.TID 0000.0001) >#uwindstartdate2   = 180000,
(PID.TID 0000.0001) > uwindperiod       = 2592000.0,
(PID.TID 0000.0001) >#
(PID.TID 0000.0001) > vwindstartdate1   = 00010115,
(PID.TID 0000.0001) >#vwindstartdate2   = 180000,
(PID.TID 0000.0001) > vwindperiod       = 2592000.0,
(PID.TID 0000.0001) >#
(PID.TID 0000.0001) > ustressstartdate1 = 00010115,
(PID.TID 0000.0001) >#ustressstartdate2 = 180000,
(PID.TID 0000.0001) > ustressperiod     = 2592000.0,
(PID.TID 0000.0001) >#
(PID.TID 0000.0001) > vstressstartdate1 = 00010115,
(PID.TID 0000.0001) >#vstressstartdate2 = 180000,
(PID.TID 0000.0001) > vstressperiod     = 2592000.0,
(PID.TID 0000.0001) >#
(PID.TID 0000.0001) > wspeedstartdate1  = 00010115,
(PID.TID 0000.0001) >#wspeedstartdate2  = 180000,
(PID.TID 0000.0001) > wspeedperiod      = 2592000.0,
(PID.TID 0000.0001) >#
(PID.TID 0000.0001) > swdownstartdate1  = 00010115,
(PID.TID 0000.0001) >#swdownstartdate2  = 180000,
(PID.TID 0000.0001) > swdownperiod      = 2592000.0,
(PID.TID 0000.0001) >#
(PID.TID 0000.0001) > lwdownstartdate1  = 00010115,
(PID.TID 0000.0001) >#lwdownstartdate2  = 180000,
(PID.TID 0000.0001) > lwdownperiod      = 2592000.0,
(PID.TID 0000.0001) >#
(PID.TID 0000.0001) > climsssstartdate1  = 00010115,
(PID.TID 0000.0001) >#climsssstartdate2  = 180000,
(PID.TID 0000.0001) > climsssperiod      = 2592000.0,
(PID.TID 0000.0001) >#
(PID.TID 0000.0001) > climsststartdate1  = 00010115,
(PID.TID 0000.0001) >#climsststartdate2  = 180000,
(PID.TID 0000.0001) > climsstperiod      = 2592000.0,
(PID.TID 0000.0001) >#
(PID.TID 0000.0001) > atempfile         = 'core_t_Air_cs32.bin',
(PID.TID 0000.0001) > aqhfile           = 'core_q_air_cs32.bin',
(PID.TID 0000.0001) > ustressfile       = 'trenberth_taux.bin',
(PID.TID 0000.0001) > vstressfile       = 'trenberth_tauy.bin',
(PID.TID 0000.0001) >#uwindfile         = 'core_u_wind_cs32.bin',
(PID.TID 0000.0001) >#vwindfile         = 'core_v_wind_cs32.bin',
(PID.TID 0000.0001) > wspeedfile        = 'core_wndSpd_cs32.bin',
(PID.TID 0000.0001) > precipfile        = 'core_prec_1_cs32.bin',
(PID.TID 0000.0001) > snowprecipfile    = 'core_snwP_1_cs32.bin',
(PID.TID 0000.0001) > lwdownfile        = 'core_dwnLw_cs32.bin',
(PID.TID 0000.0001) > swdownfile        = 'core_dwnSw_cs32.bin',
(PID.TID 0000.0001) > runoffFile        = 'core_rnof_1_cs32.bin'
(PID.TID 0000.0001) > climsstfile       = 'lev_surfT_cs_12m.bin',
(PID.TID 0000.0001) > climsssfile       = 'lev_surfS_cs_12m.bin',
(PID.TID 0000.0001) >#
(PID.TID 0000.0001) > /
(PID.TID 0000.0001) >
(PID.TID 0000.0001) ># *********************
(PID.TID 0000.0001) > &EXF_NML_03
(PID.TID 0000.0001) > /
(PID.TID 0000.0001) >
(PID.TID 0000.0001) ># *********************
(PID.TID 0000.0001) > &EXF_NML_04
(PID.TID 0000.0001) > /
(PID.TID 0000.0001) 
(PID.TID 0000.0001) EXF_READPARMS: reading EXF_NML_01
(PID.TID 0000.0001) EXF_READPARMS: reading EXF_NML_02
(PID.TID 0000.0001) EXF_READPARMS: reading EXF_NML_03
(PID.TID 0000.0001) EXF_READPARMS: finished reading data.exf
(PID.TID 0000.0001)  GM_READPARMS: opening data.gmredi
(PID.TID 0000.0001)  OPEN_COPY_DATA_FILE: opening file data.gmredi
(PID.TID 0000.0001) // =======================================================
(PID.TID 0000.0001) // Parameter file "data.gmredi"
(PID.TID 0000.0001) // =======================================================
(PID.TID 0000.0001) ># GM+Redi package parameters:
(PID.TID 0000.0001) >#     GM_Small_Number  :: epsilon used in computing the slope
(PID.TID 0000.0001) >#     GM_slopeSqCutoff :: slope^2 cut-off value
(PID.TID 0000.0001) >
(PID.TID 0000.0001) >#-from MOM :
(PID.TID 0000.0001) ># GM_background_K: 	G & Mc.W  diffusion coefficient
(PID.TID 0000.0001) ># GM_maxSlope    :	max slope of isopycnals
(PID.TID 0000.0001) ># GM_Scrit       :	transition for scaling diffusion coefficient
(PID.TID 0000.0001) ># GM_Sd          :	half width scaling for diffusion coefficient
(PID.TID 0000.0001) ># GM_taper_scheme:	slope clipping or one of the tapering schemes
(PID.TID 0000.0001) ># GM_Kmin_horiz  :	horizontal diffusion minimum value
(PID.TID 0000.0001) >
(PID.TID 0000.0001) >#-Option parameters (needs to "define" options in GMREDI_OPTIONS.h")
(PID.TID 0000.0001) ># GM_isopycK     :	isopycnal diffusion coefficient (default=GM_background_K)
(PID.TID 0000.0001) ># GM_AdvForm     :	turn on GM Advective form       (default=Skew flux form)
(PID.TID 0000.0001) >
(PID.TID 0000.0001) > &GM_PARM01
(PID.TID 0000.0001) >  GM_Small_Number  = 1.D-20,
(PID.TID 0000.0001) >  GM_slopeSqCutoff = 1.D+08,
(PID.TID 0000.0001) >  GM_AdvForm         = .FALSE.,
(PID.TID 0000.0001) >  GM_background_K    = 1.D+3,
(PID.TID 0000.0001) >  GM_taper_scheme    = 'dm95',
(PID.TID 0000.0001) >  GM_maxSlope        = 1.D-2,
(PID.TID 0000.0001) >  GM_Kmin_horiz      = 50.,
(PID.TID 0000.0001) >  GM_Scrit           = 4.D-3,
(PID.TID 0000.0001) >  GM_Sd              = 1.D-3,
(PID.TID 0000.0001) >#  GM_Visbeck_alpha   = 1.5D-2,
(PID.TID 0000.0001) >  GM_Visbeck_alpha   = 0.,
(PID.TID 0000.0001) >  GM_Visbeck_length  = 2.D+5,
(PID.TID 0000.0001) >  GM_Visbeck_depth   = 1.D+3,
(PID.TID 0000.0001) >  GM_Visbeck_maxval_K= 2.5D+3,
(PID.TID 0000.0001) > /
(PID.TID 0000.0001) >
(PID.TID 0000.0001) >
(PID.TID 0000.0001) 
(PID.TID 0000.0001)  GM_READPARMS: finished reading data.gmredi
(PID.TID 0000.0001)  THSICE_READPARMS: opening data.ice
(PID.TID 0000.0001)  OPEN_COPY_DATA_FILE: opening file data.ice
(PID.TID 0000.0001) // =======================================================
(PID.TID 0000.0001) // Parameter file "data.ice"
(PID.TID 0000.0001) // =======================================================
(PID.TID 0000.0001) > &THSICE_CONST
(PID.TID 0000.0001) > Tf0kel  = 273.15,
(PID.TID 0000.0001) >#- with LANL albedo:
(PID.TID 0000.0001) >#albWarmSnow= 0.75,
(PID.TID 0000.0001) >#- for full ice-fraction :
(PID.TID 0000.0001) >#fracEnMelt = 0.,
(PID.TID 0000.0001) >#iceMaskMin = 1.,
(PID.TID 0000.0001) >#hThinIce   = 0.01,
(PID.TID 0000.0001) >#hThickIce  = 100.,
(PID.TID 0000.0001) >#- with fractional ice:
(PID.TID 0000.0001) > iceMaskMin = 0.05,
(PID.TID 0000.0001) > hiMax      = 10.,
(PID.TID 0000.0001) > hsMax      = 10.,
(PID.TID 0000.0001) >#albIceMax  = 0.7,
(PID.TID 0000.0001) >#albIceMin  = 0.7,
(PID.TID 0000.0001) > nitMaxTsf=1,
(PID.TID 0000.0001) > /
(PID.TID 0000.0001) >
(PID.TID 0000.0001) > &THSICE_PARM01
(PID.TID 0000.0001) >#StartIceModel=1,
(PID.TID 0000.0001) > stressReduction=0.,
(PID.TID 0000.0001) >#thSIce_taveFreq=2592000.,
(PID.TID 0000.0001) >#thSIce_diagFreq=2592000.,
(PID.TID 0000.0001) >#thSIce_monFreq=864000.,
(PID.TID 0000.0001) > thSIce_monFreq=1.,
(PID.TID 0000.0001) > /
(PID.TID 0000.0001) >
(PID.TID 0000.0001) 
(PID.TID 0000.0001)  THSICE_READPARMS: read THSICE_CONST
(PID.TID 0000.0001)  THSICE_READPARMS: read THSICE_PARM01
 ThSI: rhos      =   330.00000000000000     
 ThSI: rhoi      =   900.00000000000000     
 ThSI: rhosw     =   1035.0000000000000     
 ThSI: rhofw     =   1000.0000000000000     
 ThSI: floodFac  =  0.40909090909090912     
 ThSI: cpIce     =   2106.0000000000000     
 ThSI: cpWater   =   3994.0000000000000     
 ThSI: kIce      =   2.0299999999999998     
 ThSI: kSnow     =  0.29999999999999999     
 ThSI: bMeltCoef =  6.00000000000000012E-003
 ThSI: Lfresh    =   334000.00000000000     
 ThSI: qsnow     =   334000.00000000000     
 ThSI: albColdSnow=  0.84999999999999998     
 ThSI: albWarmSnow=  0.69999999999999996     
 ThSI: tempSnowAlb=  -10.000000000000000     
 ThSI: albOldSnow =  0.55000000000000004     
 ThSI: hNewSnowAge=  2.00000000000000004E-003
 ThSI: snowAgTime =   4320000.0000000000     
 ThSI: albIceMax =  0.65000000000000002     
 ThSI: albIceMin =  0.20000000000000001     
 ThSI: hAlbIce   =  0.50000000000000000     
 ThSI: hAlbSnow  =  0.29999999999999999     
 ThSI: i0swFrac  =  0.29999999999999999     
 ThSI: ksolar    =   1.5000000000000000     
 ThSI: dhSnowLin =   0.0000000000000000     
 ThSI: saltIce   =   4.0000000000000000     
 ThSI: S_winton  =   1.0000000000000000     
 ThSI: mu_Tf     =  5.39999999999999994E-002
 ThSI: Tf0kel    =   273.14999999999998     
 ThSI: Tmlt1     = -5.39999999999999994E-002
 ThSI: Terrmax   =  0.50000000000000000     
 ThSI: nitMaxTsf =           1
 ThSI: hIceMin   =  1.00000000000000002E-002
 ThSI: hiMax     =   10.000000000000000     
 ThSI: hsMax     =   10.000000000000000     
 ThSI: iceMaskMax =   1.0000000000000000     
 ThSI: iceMaskMin =  5.00000000000000028E-002
 ThSI: fracEnMelt =  0.40000000000000002     
 ThSI: fracEnFreez=   0.0000000000000000     
 ThSI: hThinIce   =  0.20000000000000001     
 ThSI: hThickIce  =   2.5000000000000000     
 ThSI: hNewIceMax =   10.000000000000000     
 ThSI: stressReduction =   0.0000000000000000     
 ThSI: thSIceAdvScheme =           0
 ThSI: thSIce_diffK  =   0.0000000000000000     
 ThSI: thSIce_deltaT =   86400.000000000000     
 ThSI: ocean_deltaT  =   86400.000000000000     
 ThSI: stepFwd_oceMxL= F
 ThSI: tauRelax_MxL  =   0.0000000000000000     
 ThSI: tauRelax_MxL_salt  =   0.0000000000000000     
 ThSI: hMxL_default  =   50.000000000000000     
 ThSI: sMxL_default  =   35.000000000000000     
 ThSI: vMxL_default  =  5.00000000000000028E-002
 ThSI: thSIce_taveFreq=   0.0000000000000000     
 ThSI: thSIce_diagFreq=   432000.00000000000     
 ThSI: thSIce_monFreq =   1.0000000000000000     
 ThSI: startIceModel =           0
(PID.TID 0000.0001) AUTODIFF_READPARMS: opening data.autodiff
(PID.TID 0000.0001)  OPEN_COPY_DATA_FILE: opening file data.autodiff
(PID.TID 0000.0001) // =======================================================
(PID.TID 0000.0001) // Parameter file "data.autodiff"
(PID.TID 0000.0001) // =======================================================
(PID.TID 0000.0001) ># =========================
(PID.TID 0000.0001) ># pkg AUTODIFF parameters :
(PID.TID 0000.0001) ># =========================
(PID.TID 0000.0001) >#  inAdExact :: get an exact adjoint (no approximation) (def=.True.)
(PID.TID 0000.0001) >#
(PID.TID 0000.0001) > &AUTODIFF_PARM01
(PID.TID 0000.0001) ># inAdExact = .FALSE.,
(PID.TID 0000.0001) > /
(PID.TID 0000.0001) 
(PID.TID 0000.0001) AUTODIFF_READPARMS: finished reading data.autodiff
(PID.TID 0000.0001) // ===================================
(PID.TID 0000.0001) // AUTODIFF parameters :
(PID.TID 0000.0001) // ===================================
(PID.TID 0000.0001) inAdExact = /* get an exact adjoint (no approximation) */
(PID.TID 0000.0001)                   T
(PID.TID 0000.0001)     ;
(PID.TID 0000.0001) useKPPinAdMode = /* use KPP in adjoint mode */
(PID.TID 0000.0001)                   F
(PID.TID 0000.0001)     ;
(PID.TID 0000.0001) useGMRediInAdMode = /* use GMRedi in adjoint mode */
(PID.TID 0000.0001)                   T
(PID.TID 0000.0001)     ;
(PID.TID 0000.0001) useSEAICEinAdMode = /* use SEAICE in adjoint mode */
(PID.TID 0000.0001)                   F
(PID.TID 0000.0001)     ;
(PID.TID 0000.0001) turnFreeDriftInAdMode= /* turn On/Off Free-Drift in adj/fwd mode */
(PID.TID 0000.0001)                   F
(PID.TID 0000.0001)     ;
(PID.TID 0000.0001) dumpAdVarExch = /* control adexch before dumpinp */
(PID.TID 0000.0001)                       2
(PID.TID 0000.0001)     ;
(PID.TID 0000.0001) mon_AdVarExch = /* control adexch before monitor */
(PID.TID 0000.0001)                       2
(PID.TID 0000.0001)     ;
(PID.TID 0000.0001) 
(PID.TID 0000.0001) OPTIM_READPARMS: opening data.optim
(PID.TID 0000.0001)  OPEN_COPY_DATA_FILE: opening file data.optim
(PID.TID 0000.0001) // =======================================================
(PID.TID 0000.0001) // Parameter file "data.optim"
(PID.TID 0000.0001) // =======================================================
(PID.TID 0000.0001) > &OPTIM
(PID.TID 0000.0001) > optimcycle=0,
(PID.TID 0000.0001) > /
(PID.TID 0000.0001) 
(PID.TID 0000.0001) OPTIM_READPARMS: finished reading data.optim
(PID.TID 0000.0001) CTRL_READPARMS: opening data.ctrl
(PID.TID 0000.0001)  OPEN_COPY_DATA_FILE: opening file data.ctrl
(PID.TID 0000.0001) // =======================================================
(PID.TID 0000.0001) // Parameter file "data.ctrl"
(PID.TID 0000.0001) // =======================================================
(PID.TID 0000.0001) >#
(PID.TID 0000.0001) >#
(PID.TID 0000.0001) ># *********************
(PID.TID 0000.0001) ># ECCO controlvariables
(PID.TID 0000.0001) ># *********************
(PID.TID 0000.0001) > &CTRL_NML
(PID.TID 0000.0001) > xx_theta_file      ='xx_theta',
(PID.TID 0000.0001) > xx_salt_file       ='xx_salt',
(PID.TID 0000.0001) >#
(PID.TID 0000.0001) > xx_hfluxstartdate1 = 19790101,
(PID.TID 0000.0001) > xx_hfluxstartdate2 = 000000,
(PID.TID 0000.0001) > xx_hfluxperiod     = 864000.0,
(PID.TID 0000.0001) > xx_hflux_file      = 'xx_hfl',
(PID.TID 0000.0001) >#
(PID.TID 0000.0001) > xx_sfluxstartdate1 = 19790101,
(PID.TID 0000.0001) > xx_sfluxstartdate2 = 000000,
(PID.TID 0000.0001) > xx_sfluxperiod     = 864000.0,
(PID.TID 0000.0001) > xx_sflux_file      = 'xx_sfl',
(PID.TID 0000.0001) >#
(PID.TID 0000.0001) > xx_tauustartdate1 = 19790101,
(PID.TID 0000.0001) > xx_tauustartdate2 = 000000,
(PID.TID 0000.0001) > xx_tauuperiod     = 864000.0,
(PID.TID 0000.0001) > xx_tauu_file      = 'xx_tauu',
(PID.TID 0000.0001) >#
(PID.TID 0000.0001) > xx_tauvstartdate1 = 19790101,
(PID.TID 0000.0001) > xx_tauvstartdate2 = 000000,
(PID.TID 0000.0001) > xx_tauvperiod     = 864000.0,
(PID.TID 0000.0001) > xx_tauv_file      = 'xx_tauv',
(PID.TID 0000.0001) >#
(PID.TID 0000.0001) > xx_atempstartdate1 = 19790101,
(PID.TID 0000.0001) > xx_atempstartdate2 = 000000,
(PID.TID 0000.0001) > xx_atempperiod     = 864000.0,
(PID.TID 0000.0001) > xx_atemp_file      = 'xx_atemp',
(PID.TID 0000.0001) >#
(PID.TID 0000.0001) > xx_aqhstartdate1 = 19790101,
(PID.TID 0000.0001) > xx_aqhstartdate2 = 000000,
(PID.TID 0000.0001) > xx_aqhperiod     = 864000.0,
(PID.TID 0000.0001) > xx_aqh_file      = 'xx_aqh',
(PID.TID 0000.0001) >#
(PID.TID 0000.0001) > xx_precipstartdate1 = 19790101,
(PID.TID 0000.0001) > xx_precipstartdate2 = 000000,
(PID.TID 0000.0001) > xx_precipperiod     = 864000.0,
(PID.TID 0000.0001) > xx_precip_file      = 'xx_precip',
(PID.TID 0000.0001) >#
(PID.TID 0000.0001) > xx_swdownstartdate1 = 19790101,
(PID.TID 0000.0001) > xx_swdownstartdate2 = 000000,
(PID.TID 0000.0001) > xx_swdownperiod     = 864000.0,
(PID.TID 0000.0001) > xx_swdown_file      = 'xx_swdown',
(PID.TID 0000.0001) >#
(PID.TID 0000.0001) > xx_uwindstartdate1 = 19790101,
(PID.TID 0000.0001) > xx_uwindstartdate2 = 000000,
(PID.TID 0000.0001) > xx_uwindperiod     = 864000.0,
(PID.TID 0000.0001) > xx_uwind_file      = 'xx_uwind',
(PID.TID 0000.0001) >#
(PID.TID 0000.0001) > xx_vwindstartdate1 = 19790101,
(PID.TID 0000.0001) > xx_vwindstartdate2 = 000000,
(PID.TID 0000.0001) > xx_vwindperiod     = 864000.0,
(PID.TID 0000.0001) > xx_vwind_file      = 'xx_vwind',
(PID.TID 0000.0001) >#
(PID.TID 0000.0001) > xx_sststartdate1 = 19790101,
(PID.TID 0000.0001) > xx_sststartdate2 = 000000,
(PID.TID 0000.0001) > xx_sstperiod     = 864000.0,
(PID.TID 0000.0001) > xx_sst_file      = 'xx_sst',
(PID.TID 0000.0001) >#
(PID.TID 0000.0001) > xx_sssstartdate1 = 19790101,
(PID.TID 0000.0001) > xx_sssstartdate2 = 000000,
(PID.TID 0000.0001) > xx_sssperiod     = 864000.0,
(PID.TID 0000.0001) > xx_sss_file      = 'xx_sss',
(PID.TID 0000.0001) > /
(PID.TID 0000.0001) >#
(PID.TID 0000.0001) ># *********************
(PID.TID 0000.0001) ># names for ctrl_pack/unpack
(PID.TID 0000.0001) ># *********************
(PID.TID 0000.0001) > &CTRL_PACKNAMES
(PID.TID 0000.0001) > /
(PID.TID 0000.0001) 
(PID.TID 0000.0001) CTRL_READPARMS: finished reading data.ctrl
(PID.TID 0000.0001) COST_READPARMS: opening data.cost
(PID.TID 0000.0001)  OPEN_COPY_DATA_FILE: opening file data.cost
(PID.TID 0000.0001) // =======================================================
(PID.TID 0000.0001) // Parameter file "data.cost"
(PID.TID 0000.0001) // =======================================================
(PID.TID 0000.0001) >#
(PID.TID 0000.0001) >#
(PID.TID 0000.0001) ># ******************
(PID.TID 0000.0001) ># cost function
(PID.TID 0000.0001) ># ******************
(PID.TID 0000.0001) > &COST_NML
(PID.TID 0000.0001) >#revert to default 1 month
(PID.TID 0000.0001) ># lastinterval=7776000.,
(PID.TID 0000.0001) > mult_test=1.,
(PID.TID 0000.0001) > /
(PID.TID 0000.0001) 
(PID.TID 0000.0001) COST_READPARMS: finished reading data.cost
(PID.TID 0000.0001) GRDCHK_READPARMS: opening data.grdchk
(PID.TID 0000.0001)  OPEN_COPY_DATA_FILE: opening file data.grdchk
(PID.TID 0000.0001) // =======================================================
(PID.TID 0000.0001) // Parameter file "data.grdchk"
(PID.TID 0000.0001) // =======================================================
(PID.TID 0000.0001) ># *******************
(PID.TID 0000.0001) ># ECCO gradient check
(PID.TID 0000.0001) ># *******************
(PID.TID 0000.0001) > &GRDCHK_NML
(PID.TID 0000.0001) > grdchk_eps       = 1.d-2,
(PID.TID 0000.0001) >#  iglopos         = 6,
(PID.TID 0000.0001) >#  jglopos         = 17,
(PID.TID 0000.0001) >#  kglopos         = 1,
(PID.TID 0000.0001) > nbeg             = 1,
(PID.TID 0000.0001) > nstep            = 1,
(PID.TID 0000.0001) > nend             = 4,
(PID.TID 0000.0001) > grdchkvarindex   = 1,
(PID.TID 0000.0001) > /
(PID.TID 0000.0001) 
(PID.TID 0000.0001) GRDCHK_READPARMS: finished reading data.grdchk
(PID.TID 0000.0001) 
(PID.TID 0000.0001) // =======================================================
(PID.TID 0000.0001) // Gradient check configuration  >>> START <<<
(PID.TID 0000.0001) // =======================================================
(PID.TID 0000.0001) 
(PID.TID 0000.0001)   eps:                              0.100E-01
(PID.TID 0000.0001)   First location:                           1
(PID.TID 0000.0001)   Last location:                            4
(PID.TID 0000.0001)   Increment:                                1
(PID.TID 0000.0001)   grdchkWhichProc:                          0
(PID.TID 0000.0001)   iLocTile =       1  ,    jLocTile =       1
(PID.TID 0000.0001) 
(PID.TID 0000.0001) // =======================================================
(PID.TID 0000.0001) // Gradient check configuration  >>> END <<<
(PID.TID 0000.0001) // =======================================================
(PID.TID 0000.0001) 
(PID.TID 0000.0001) SET_PARMS: done
(PID.TID 0000.0001) Enter INI_VERTICAL_GRID: setInterFDr=    T ; setCenterDr=    F
(PID.TID 0000.0001) tile:   1 ; Read from file grid_cs32.face001.bin
(PID.TID 0000.0001)   => xC yC dxF dyF rA xG yG dxV dyU rAz dxC dyC rAw rAs dxG dyG AngleCS AngleSN
(PID.TID 0000.0001) tile:   2 ; Read from file grid_cs32.face001.bin
(PID.TID 0000.0001)   => xC yC dxF dyF rA xG yG dxV dyU rAz dxC dyC rAw rAs dxG dyG AngleCS AngleSN
(PID.TID 0000.0001) tile:   3 ; Read from file grid_cs32.face002.bin
(PID.TID 0000.0001)   => xC yC dxF dyF rA xG yG dxV dyU rAz dxC dyC rAw rAs dxG dyG AngleCS AngleSN
(PID.TID 0000.0001) tile:   4 ; Read from file grid_cs32.face002.bin
(PID.TID 0000.0001)   => xC yC dxF dyF rA xG yG dxV dyU rAz dxC dyC rAw rAs dxG dyG AngleCS AngleSN
(PID.TID 0000.0001) tile:   5 ; Read from file grid_cs32.face003.bin
(PID.TID 0000.0001)   => xC yC dxF dyF rA xG yG dxV dyU rAz dxC dyC rAw rAs dxG dyG AngleCS AngleSN
(PID.TID 0000.0001) tile:   6 ; Read from file grid_cs32.face003.bin
(PID.TID 0000.0001)   => xC yC dxF dyF rA xG yG dxV dyU rAz dxC dyC rAw rAs dxG dyG AngleCS AngleSN
(PID.TID 0000.0001) tile:   7 ; Read from file grid_cs32.face004.bin
(PID.TID 0000.0001)   => xC yC dxF dyF rA xG yG dxV dyU rAz dxC dyC rAw rAs dxG dyG AngleCS AngleSN
(PID.TID 0000.0001) tile:   8 ; Read from file grid_cs32.face004.bin
(PID.TID 0000.0001)   => xC yC dxF dyF rA xG yG dxV dyU rAz dxC dyC rAw rAs dxG dyG AngleCS AngleSN
(PID.TID 0000.0001) tile:   9 ; Read from file grid_cs32.face005.bin
(PID.TID 0000.0001)   => xC yC dxF dyF rA xG yG dxV dyU rAz dxC dyC rAw rAs dxG dyG AngleCS AngleSN
(PID.TID 0000.0001) tile:  10 ; Read from file grid_cs32.face005.bin
(PID.TID 0000.0001)   => xC yC dxF dyF rA xG yG dxV dyU rAz dxC dyC rAw rAs dxG dyG AngleCS AngleSN
(PID.TID 0000.0001) tile:  11 ; Read from file grid_cs32.face006.bin
(PID.TID 0000.0001)   => xC yC dxF dyF rA xG yG dxV dyU rAz dxC dyC rAw rAs dxG dyG AngleCS AngleSN
(PID.TID 0000.0001) tile:  12 ; Read from file grid_cs32.face006.bin
(PID.TID 0000.0001)   => xC yC dxF dyF rA xG yG dxV dyU rAz dxC dyC rAw rAs dxG dyG AngleCS AngleSN
(PID.TID 0000.0001) %MON XC_max                       =   1.7854351589505E+02
(PID.TID 0000.0001) %MON XC_min                       =  -1.7854351589505E+02
(PID.TID 0000.0001) %MON XC_mean                      =  -1.4199289892029E-14
(PID.TID 0000.0001) %MON XC_sd                        =   1.0355545336287E+02
(PID.TID 0000.0001) %MON XG_max                       =   1.8000000000000E+02
(PID.TID 0000.0001) %MON XG_min                       =  -1.7708797161002E+02
(PID.TID 0000.0001) %MON XG_mean                      =   1.8603515625000E+00
(PID.TID 0000.0001) %MON XG_sd                        =   1.0357130300504E+02
(PID.TID 0000.0001) %MON DXC_max                      =   3.2375185836900E+05
(PID.TID 0000.0001) %MON DXC_min                      =   1.1142031410131E+05
(PID.TID 0000.0001) %MON DXC_mean                     =   2.8605689051214E+05
(PID.TID 0000.0001) %MON DXC_sd                       =   3.4042087138252E+04
(PID.TID 0000.0001) %MON DXF_max                      =   3.2369947500827E+05
(PID.TID 0000.0001) %MON DXF_min                      =   1.2020820513318E+05
(PID.TID 0000.0001) %MON DXF_mean                     =   2.8605437324820E+05
(PID.TID 0000.0001) %MON DXF_sd                       =   3.4050524252539E+04
(PID.TID 0000.0001) %MON DXG_max                      =   3.2375195872773E+05
(PID.TID 0000.0001) %MON DXG_min                      =   1.0098378008791E+05
(PID.TID 0000.0001) %MON DXG_mean                     =   2.8603818508931E+05
(PID.TID 0000.0001) %MON DXG_sd                       =   3.4140406908005E+04
(PID.TID 0000.0001) %MON DXV_max                      =   3.2380418162750E+05
(PID.TID 0000.0001) %MON DXV_min                      =   8.0152299824136E+04
(PID.TID 0000.0001) %MON DXV_mean                     =   2.8603970633619E+05
(PID.TID 0000.0001) %MON DXV_sd                       =   3.4145142117723E+04
(PID.TID 0000.0001) %MON YC_max                       =   8.7940663871962E+01
(PID.TID 0000.0001) %MON YC_min                       =  -8.7940663871962E+01
(PID.TID 0000.0001) %MON YC_mean                      =  -2.3684757858670E-15
(PID.TID 0000.0001) %MON YC_sd                        =   3.8676242969072E+01
(PID.TID 0000.0001) %MON YG_max                       =   9.0000000000000E+01
(PID.TID 0000.0001) %MON YG_min                       =  -9.0000000000000E+01
(PID.TID 0000.0001) %MON YG_mean                      =  -4.1448326252673E-15
(PID.TID 0000.0001) %MON YG_sd                        =   3.8676895860710E+01
(PID.TID 0000.0001) %MON DYC_max                      =   3.2375185836900E+05
(PID.TID 0000.0001) %MON DYC_min                      =   1.1142031410131E+05
(PID.TID 0000.0001) %MON DYC_mean                     =   2.8605689051214E+05
(PID.TID 0000.0001) %MON DYC_sd                       =   3.4042087138252E+04
(PID.TID 0000.0001) %MON DYF_max                      =   3.2369947500827E+05
(PID.TID 0000.0001) %MON DYF_min                      =   1.2020820513318E+05
(PID.TID 0000.0001) %MON DYF_mean                     =   2.8605437324820E+05
(PID.TID 0000.0001) %MON DYF_sd                       =   3.4050524252539E+04
(PID.TID 0000.0001) %MON DYG_max                      =   3.2375195872773E+05
(PID.TID 0000.0001) %MON DYG_min                      =   1.0098378008791E+05
(PID.TID 0000.0001) %MON DYG_mean                     =   2.8603818508931E+05
(PID.TID 0000.0001) %MON DYG_sd                       =   3.4140406908005E+04
(PID.TID 0000.0001) %MON DYU_max                      =   3.2380418162750E+05
(PID.TID 0000.0001) %MON DYU_min                      =   8.0152299824136E+04
(PID.TID 0000.0001) %MON DYU_mean                     =   2.8603970633619E+05
(PID.TID 0000.0001) %MON DYU_sd                       =   3.4145142117723E+04
(PID.TID 0000.0001) %MON RA_max                       =   1.0479260248419E+11
(PID.TID 0000.0001) %MON RA_min                       =   1.4019007022556E+10
(PID.TID 0000.0001) %MON RA_mean                      =   8.2992246709265E+10
(PID.TID 0000.0001) %MON RA_sd                        =   1.7509089299457E+10
(PID.TID 0000.0001) %MON RAW_max                      =   1.0480965274559E+11
(PID.TID 0000.0001) %MON RAW_min                      =   1.2166903467143E+10
(PID.TID 0000.0001) %MON RAW_mean                     =   8.2992246709235E+10
(PID.TID 0000.0001) %MON RAW_sd                       =   1.7481917919656E+10
(PID.TID 0000.0001) %MON RAS_max                      =   1.0480965274559E+11
(PID.TID 0000.0001) %MON RAS_min                      =   1.2166903467143E+10
(PID.TID 0000.0001) %MON RAS_mean                     =   8.2992246709235E+10
(PID.TID 0000.0001) %MON RAS_sd                       =   1.7481917919656E+10
(PID.TID 0000.0001) %MON RAZ_max                      =   1.0484349334619E+11
(PID.TID 0000.0001) %MON RAZ_min                      =   8.8317900612505E+09
(PID.TID 0000.0001) %MON RAZ_mean                     =   8.2992246709235E+10
(PID.TID 0000.0001) %MON RAZ_sd                       =   1.7482297311044E+10
(PID.TID 0000.0001) %MON AngleCS_max                  =   9.9999994756719E-01
(PID.TID 0000.0001) %MON AngleCS_min                  =  -9.9968286884824E-01
(PID.TID 0000.0001) %MON AngleCS_mean                 =   3.3078922539000E-01
(PID.TID 0000.0001) %MON AngleCS_sd                   =   6.2496278958502E-01
(PID.TID 0000.0001) %MON AngleSN_max                  =   9.9968286884824E-01
(PID.TID 0000.0001) %MON AngleSN_min                  =  -9.9999994756719E-01
(PID.TID 0000.0001) %MON AngleSN_mean                 =  -3.3078922539000E-01
(PID.TID 0000.0001) %MON AngleSN_sd                   =   6.2496278958502E-01
(PID.TID 0000.0001) 
(PID.TID 0000.0001) // =======================================================
(PID.TID 0000.0001) // Calendar configuration >>> START <<<
(PID.TID 0000.0001) // =======================================================
(PID.TID 0000.0001) 
(PID.TID 0000.0001) modelstart = /* Start time of the model integration [s] */
(PID.TID 0000.0001)                 6.220800000000000E+09
(PID.TID 0000.0001)     ;
(PID.TID 0000.0001) modelend  = /* End time of the model integration [s] */
(PID.TID 0000.0001)                 6.221664000000000E+09
(PID.TID 0000.0001)     ;
(PID.TID 0000.0001) modelstep = /* Time interval for a model forward step [s] */
(PID.TID 0000.0001)                 8.640000000000000E+04
(PID.TID 0000.0001)     ;
(PID.TID 0000.0001) usingGregorianCalendar= /* Calendar Type: Gregorian Calendar */
(PID.TID 0000.0001)                   F
(PID.TID 0000.0001)     ;
(PID.TID 0000.0001) usingJulianCalendar = /* Calendar Type: Julian Calendar */
(PID.TID 0000.0001)                   F
(PID.TID 0000.0001)     ;
(PID.TID 0000.0001) usingModelCalendar  = /* Calendar Type: Model Calendar */
(PID.TID 0000.0001)                   T
(PID.TID 0000.0001)     ;
(PID.TID 0000.0001) modelstartdate YYYYMMDD = /* Model start date YYYY-MM-DD */
(PID.TID 0000.0001)                 2010101
(PID.TID 0000.0001)     ;
(PID.TID 0000.0001)   modelstartdate HHMMSS = /* Model start date HH-MM-SS  */
(PID.TID 0000.0001)                       0
(PID.TID 0000.0001)     ;
(PID.TID 0000.0001) modelenddate   YYYYMMDD = /* Model end date YYYY-MM-DD */
(PID.TID 0000.0001)                 2010111
(PID.TID 0000.0001)     ;
(PID.TID 0000.0001)   modelenddate   HHMMSS = /* Model end date HH-MM-SS  */
(PID.TID 0000.0001)                       0
(PID.TID 0000.0001)     ;
(PID.TID 0000.0001) intyears = /* Number of calendar years affected by the integration */
(PID.TID 0000.0001)                       1
(PID.TID 0000.0001)     ;
(PID.TID 0000.0001) intmonths= /* Number of calendar months affected by the integration */
(PID.TID 0000.0001)                       1
(PID.TID 0000.0001)     ;
(PID.TID 0000.0001) intdays = /* Number of calendar days affected by the integration */
(PID.TID 0000.0001)                      10
(PID.TID 0000.0001)     ;
(PID.TID 0000.0001) modeliter0 = /* Base timestep number  */
(PID.TID 0000.0001)                   72000
(PID.TID 0000.0001)     ;
(PID.TID 0000.0001) modeliterend = /* Final timestep number  */
(PID.TID 0000.0001)                   72010
(PID.TID 0000.0001)     ;
(PID.TID 0000.0001) modelintsteps= /* Number of model timesteps  */
(PID.TID 0000.0001)                      10
(PID.TID 0000.0001)     ;
(PID.TID 0000.0001) 
(PID.TID 0000.0001) // =======================================================
(PID.TID 0000.0001) // Calendar configuration  >>> END <<<
(PID.TID 0000.0001) // =======================================================
(PID.TID 0000.0001) 
(PID.TID 0000.0001) GAD_INIT_FIXED: GAD_OlMinSize=  2  0  2
(PID.TID 0000.0001) 
(PID.TID 0000.0001) // ===================================
(PID.TID 0000.0001) // GAD parameters :
(PID.TID 0000.0001) // ===================================
(PID.TID 0000.0001) tempAdvScheme =   /* Temp. Horiz.Advection scheme selector */
(PID.TID 0000.0001)                      30
(PID.TID 0000.0001)     ;
(PID.TID 0000.0001) tempVertAdvScheme =   /* Temp. Vert. Advection scheme selector */
(PID.TID 0000.0001)                      30
(PID.TID 0000.0001)     ;
(PID.TID 0000.0001) tempMultiDimAdvec =   /* use Muti-Dim Advec method for Temp */
(PID.TID 0000.0001)                   T
(PID.TID 0000.0001)     ;
(PID.TID 0000.0001) tempSOM_Advection = /* use 2nd Order Moment Advection for Temp */
(PID.TID 0000.0001)                   F
(PID.TID 0000.0001)     ;
(PID.TID 0000.0001) AdamsBashforthGt = /* apply Adams-Bashforth extrapolation on Gt */
(PID.TID 0000.0001)                   F
(PID.TID 0000.0001)     ;
(PID.TID 0000.0001) AdamsBashforth_T = /* apply Adams-Bashforth extrapolation on Temp */
(PID.TID 0000.0001)                   F
(PID.TID 0000.0001)     ;
(PID.TID 0000.0001) saltAdvScheme =   /* Salt. Horiz.advection scheme selector */
(PID.TID 0000.0001)                      30
(PID.TID 0000.0001)     ;
(PID.TID 0000.0001) saltVertAdvScheme =   /* Salt. Vert. Advection scheme selector */
(PID.TID 0000.0001)                      30
(PID.TID 0000.0001)     ;
(PID.TID 0000.0001) saltMultiDimAdvec =   /* use Muti-Dim Advec method for Salt */
(PID.TID 0000.0001)                   T
(PID.TID 0000.0001)     ;
(PID.TID 0000.0001) saltSOM_Advection = /* use 2nd Order Moment Advection for Salt */
(PID.TID 0000.0001)                   F
(PID.TID 0000.0001)     ;
(PID.TID 0000.0001) AdamsBashforthGs = /* apply Adams-Bashforth extrapolation on Gs */
(PID.TID 0000.0001)                   F
(PID.TID 0000.0001)     ;
(PID.TID 0000.0001) AdamsBashforth_S = /* apply Adams-Bashforth extrapolation on Salt */
(PID.TID 0000.0001)                   F
(PID.TID 0000.0001)     ;
(PID.TID 0000.0001) // ===================================
(PID.TID 0000.0001) 
(PID.TID 0000.0001) // =======================================================
(PID.TID 0000.0001) // External forcing (EXF) configuration >>> START <<<
(PID.TID 0000.0001) // =======================================================
(PID.TID 0000.0001) 
(PID.TID 0000.0001)  EXF general parameters:
(PID.TID 0000.0001) 
(PID.TID 0000.0001) exf_iprec = /* exf file precision */
(PID.TID 0000.0001)                      64
(PID.TID 0000.0001)     ;
(PID.TID 0000.0001) useExfYearlyFields = /* add extension _YEAR to input file names */
(PID.TID 0000.0001)                   F
(PID.TID 0000.0001)     ;
(PID.TID 0000.0001) twoDigitYear = /* use 2-digit year extension */
(PID.TID 0000.0001)                   F
(PID.TID 0000.0001)     ;
(PID.TID 0000.0001) exf_verbose = /* print more messages to STDOUT */
(PID.TID 0000.0001)                   F
(PID.TID 0000.0001)     ;
(PID.TID 0000.0001) useExfCheckRange = /* check for fields range */
(PID.TID 0000.0001)                   T
(PID.TID 0000.0001)     ;
(PID.TID 0000.0001) exf_monFreq = /* EXF monitor frequency [ s ] */
(PID.TID 0000.0001)                 0.000000000000000E+00
(PID.TID 0000.0001)     ;
(PID.TID 0000.0001) repeatPeriod = /* period for cycling forcing dataset [ s ] */
(PID.TID 0000.0001)                 3.110400000000000E+07
(PID.TID 0000.0001)     ;
(PID.TID 0000.0001) climTempFreeze= /* Minimum climatological temperature [deg.C] */
(PID.TID 0000.0001)                -1.900000000000000E+00
(PID.TID 0000.0001)     ;
(PID.TID 0000.0001) windStressMax = /* Maximum absolute windstress [ Pa ] */
(PID.TID 0000.0001)                 2.000000000000000E+00
(PID.TID 0000.0001)     ;
(PID.TID 0000.0001) stressIsOnCgrid = /* set u,v_stress on Arakawa C-grid */
(PID.TID 0000.0001)                   T
(PID.TID 0000.0001)     ;
(PID.TID 0000.0001) cen2kel = /* conversion of deg. Centigrade to Kelvin [K] */
(PID.TID 0000.0001)                 2.731500000000000E+02
(PID.TID 0000.0001)     ;
(PID.TID 0000.0001) gravity_mks= /* gravitational acceleration [m/s^2] */
(PID.TID 0000.0001)                 9.810000000000000E+00
(PID.TID 0000.0001)     ;
(PID.TID 0000.0001) atmrho =  /* mean atmospheric density [kg/m^3] */
(PID.TID 0000.0001)                 1.220000000000000E+00
(PID.TID 0000.0001)     ;
(PID.TID 0000.0001) atmcp =  /* mean atmospheric specific heat [J/kg/K] */
(PID.TID 0000.0001)                 1.005000000000000E+03
(PID.TID 0000.0001)     ;
(PID.TID 0000.0001) flamb =  /* latent heat of evaporation [J/kg] */
(PID.TID 0000.0001)                 2.500000000000000E+06
(PID.TID 0000.0001)     ;
(PID.TID 0000.0001) flami =  /* latent heat of pure-ice melting [J/kg] */
(PID.TID 0000.0001)                 3.340000000000000E+05
(PID.TID 0000.0001)     ;
(PID.TID 0000.0001) cvapor_fac = /* const. for Saturation calculation [?] */
(PID.TID 0000.0001)                 6.403800000000000E+05
(PID.TID 0000.0001)     ;
(PID.TID 0000.0001) cvapor_exp = /* const. for Saturation calculation [?] */
(PID.TID 0000.0001)                 5.107400000000000E+03
(PID.TID 0000.0001)     ;
(PID.TID 0000.0001) cvapor_fac_ice= /* const. for Saturation calculation [?] */
(PID.TID 0000.0001)                 1.163780000000000E+07
(PID.TID 0000.0001)     ;
(PID.TID 0000.0001) cvapor_exp_ice= /* const. for Saturation calculation [?] */
(PID.TID 0000.0001)                 5.897800000000000E+03
(PID.TID 0000.0001)     ;
(PID.TID 0000.0001) humid_fac = /* humidity coef. in virtual temp. [(kg/kg)^-1] */
(PID.TID 0000.0001)                 6.080000000000000E-01
(PID.TID 0000.0001)     ;
(PID.TID 0000.0001) gamma_blk = /* adiabatic lapse rate [?] */
(PID.TID 0000.0001)                 1.000000000000000E-02
(PID.TID 0000.0001)     ;
(PID.TID 0000.0001) saltsat = /* reduction of Qsat over salty water [-] */
(PID.TID 0000.0001)                 9.800000000000000E-01
(PID.TID 0000.0001)     ;
(PID.TID 0000.0001) noNegativeEvap = /* prevent negative Evaporation */
(PID.TID 0000.0001)                   F
(PID.TID 0000.0001)     ;
(PID.TID 0000.0001) sstExtrapol = /* extrapolation coeff from lev. 1 & 2 to surf [-] */
(PID.TID 0000.0001)                 0.000000000000000E+00
(PID.TID 0000.0001)     ;
(PID.TID 0000.0001) cDrag_1 = /* coef used in drag calculation [?] */
(PID.TID 0000.0001)                 2.700000000000000E-03
(PID.TID 0000.0001)     ;
(PID.TID 0000.0001) cDrag_2 = /* coef used in drag calculation [?] */
(PID.TID 0000.0001)                 1.420000000000000E-04
(PID.TID 0000.0001)     ;
(PID.TID 0000.0001) cDrag_3 = /* coef used in drag calculation [?] */
(PID.TID 0000.0001)                 7.640000000000000E-05
(PID.TID 0000.0001)     ;
(PID.TID 0000.0001) cStanton_1 = /* coef used in Stanton number calculation [?] */
(PID.TID 0000.0001)                 3.270000000000000E-02
(PID.TID 0000.0001)     ;
(PID.TID 0000.0001) cStanton_2 = /* coef used in Stanton number calculation [?] */
(PID.TID 0000.0001)                 1.800000000000000E-02
(PID.TID 0000.0001)     ;
(PID.TID 0000.0001) cDalton = /* coef used in Dalton number calculation [?] */
(PID.TID 0000.0001)                 3.460000000000000E-02
(PID.TID 0000.0001)     ;
(PID.TID 0000.0001) exf_scal_BulkCdn= /* Drag coefficient scaling factor [-] */
(PID.TID 0000.0001)                 1.000000000000000E+00
(PID.TID 0000.0001)     ;
(PID.TID 0000.0001) zolmin = /* minimum stability parameter [?] */
(PID.TID 0000.0001)                -1.000000000000000E+02
(PID.TID 0000.0001)     ;
(PID.TID 0000.0001) psim_fac = /* coef used in turbulent fluxes calculation [-] */
(PID.TID 0000.0001)                 5.000000000000000E+00
(PID.TID 0000.0001)     ;
(PID.TID 0000.0001) zref =  /* reference height [ m ] */
(PID.TID 0000.0001)                 1.000000000000000E+01
(PID.TID 0000.0001)     ;
(PID.TID 0000.0001) hu =  /* height of mean wind [ m ] */
(PID.TID 0000.0001)                 1.000000000000000E+01
(PID.TID 0000.0001)     ;
(PID.TID 0000.0001) ht =  /* height of mean temperature [ m ] */
(PID.TID 0000.0001)                 1.000000000000000E+01
(PID.TID 0000.0001)     ;
(PID.TID 0000.0001) hq =  /* height of mean spec.humidity [ m ] */
(PID.TID 0000.0001)                 1.000000000000000E+01
(PID.TID 0000.0001)     ;
(PID.TID 0000.0001) uMin = /* minimum wind speed [m/s] */
(PID.TID 0000.0001)                 5.000000000000000E-01
(PID.TID 0000.0001)     ;
(PID.TID 0000.0001) useStabilityFct_overIce= /* transfert Coeffs over sea-ice depend on stability */
(PID.TID 0000.0001)                   F
(PID.TID 0000.0001)     ;
(PID.TID 0000.0001) exf_iceCd = /* drag coefficient over sea-ice (fixed) [-] */
(PID.TID 0000.0001)                 1.630000000000000E-03
(PID.TID 0000.0001)     ;
(PID.TID 0000.0001) exf_iceCe = /* transfert coeff. over sea-ice, for Evap (fixed) [-] */
(PID.TID 0000.0001)                 1.630000000000000E-03
(PID.TID 0000.0001)     ;
(PID.TID 0000.0001) exf_iceCh = /* transfert coeff. over sea-ice, Sens.Heat.(fixed)[-] */
(PID.TID 0000.0001)                 1.630000000000000E-03
(PID.TID 0000.0001)     ;
(PID.TID 0000.0001) exf_albedo =  /* Sea-water albedo [-] */
(PID.TID 0000.0001)                 6.600000000000000E-02
(PID.TID 0000.0001)     ;
(PID.TID 0000.0001) useExfZenAlbedo = /* Sea-water albedo varies with zenith angle */
(PID.TID 0000.0001)                   F
(PID.TID 0000.0001)     ;
(PID.TID 0000.0001) select_ZenAlbedo = /* Sea-water albedo computation method */
(PID.TID 0000.0001)                       0
(PID.TID 0000.0001)     ;
(PID.TID 0000.0001) useExfZenIncoming = /* compute incoming solar radiation */
(PID.TID 0000.0001)                   F
(PID.TID 0000.0001)     ;
(PID.TID 0000.0001) ocean_emissivity = /* longwave ocean-surface emissivity [-] */
(PID.TID 0000.0001)                 1.000000000000000E+00
(PID.TID 0000.0001)     ;
(PID.TID 0000.0001) ice_emissivity = /* longwave seaice emissivity [-] */
(PID.TID 0000.0001)                 9.500000000000000E-01
(PID.TID 0000.0001)     ;
(PID.TID 0000.0001) snow_emissivity = /* longwave snow  emissivity [-] */
(PID.TID 0000.0001)                 9.500000000000000E-01
(PID.TID 0000.0001)     ;
(PID.TID 0000.0001) 
(PID.TID 0000.0001)  EXF main CPP flags:
(PID.TID 0000.0001) 
(PID.TID 0000.0001) // USE_EXF_INTERPOLATION:          NOT defined
(PID.TID 0000.0001) // ALLOW_ATM_TEMP:                     defined
(PID.TID 0000.0001) // ALLOW_ATM_WIND:                 NOT defined
(PID.TID 0000.0001) // ALLOW_DOWNWARD_RADIATION:           defined
(PID.TID 0000.0001) // ALLOW_BULKFORMULAE:                 defined
(PID.TID 0000.0001) 
(PID.TID 0000.0001)    Zonal wind stress forcing starts at             1209600.
(PID.TID 0000.0001)    Zonal wind stress forcing period is             2592000.
(PID.TID 0000.0001)    Zonal wind stress forcing is read from file:
(PID.TID 0000.0001)    >>  trenberth_taux.bin  <<
(PID.TID 0000.0001) 
(PID.TID 0000.0001)    Meridional wind stress forcing starts at        1209600.
(PID.TID 0000.0001)    Meridional wind stress forcing period is        2592000.
(PID.TID 0000.0001)    Meridional wind stress forcing is read from file:
(PID.TID 0000.0001)    >>  trenberth_tauy.bin  <<
(PID.TID 0000.0001) 
(PID.TID 0000.0001)    Net shortwave flux forcing starts at                0.
(PID.TID 0000.0001)    Net shortwave flux forcing period is                0.
(PID.TID 0000.0001)    Net shortwave flux forcing is read from file:
(PID.TID 0000.0001)    >>    <<
(PID.TID 0000.0001) 
(PID.TID 0000.0001)    Atmospheric temperature starts at               1209600.
(PID.TID 0000.0001)    Atmospheric temperature period is               2592000.
(PID.TID 0000.0001)    Atmospheric temperature is read from file:
(PID.TID 0000.0001)    >>  core_t_Air_cs32.bin  <<
(PID.TID 0000.0001) 
(PID.TID 0000.0001)    Atmospheric specific humidity starts at         1209600.
(PID.TID 0000.0001)    Atmospheric specific humidity period is         2592000.
(PID.TID 0000.0001)    Atmospheric specific humidity is read from file:
(PID.TID 0000.0001)    >>  core_q_air_cs32.bin  <<
(PID.TID 0000.0001) 
(PID.TID 0000.0001)    Net longwave flux forcing starts at                 0.
(PID.TID 0000.0001)    Net longwave flux forcing period is                 0.
(PID.TID 0000.0001)    Net longwave flux forcing is read from file:
(PID.TID 0000.0001)    >>    <<
(PID.TID 0000.0001) 
(PID.TID 0000.0001)    Precipitation data set starts at                1209600.
(PID.TID 0000.0001)    Precipitation data period is                    2592000.
(PID.TID 0000.0001)    Precipitation data is read from file:
(PID.TID 0000.0001)    >>  core_prec_1_cs32.bin  <<
(PID.TID 0000.0001) 
(PID.TID 0000.0001) // EXF_READ_EVAP:                  NOT defined
(PID.TID 0000.0001) 
(PID.TID 0000.0001) // ALLOW_RUNOFF:                       defined
(PID.TID 0000.0001)    Runoff starts at         1209600.
(PID.TID 0000.0001)    Runoff period is         2592000.
(PID.TID 0000.0001)    Runoff is read from file:
(PID.TID 0000.0001)    >>  core_rnof_1_cs32.bin  <<
(PID.TID 0000.0001) 
(PID.TID 0000.0001)    Downward shortwave flux forcing starts at          1209600.
(PID.TID 0000.0001)    Downward shortwave flux forcing period is          2592000.
(PID.TID 0000.0001)    Downward shortwave flux forcing is read from file:
(PID.TID 0000.0001)    >>  core_dwnSw_cs32.bin  <<
(PID.TID 0000.0001) 
(PID.TID 0000.0001)    Downward longwave flux forcing starts at           1209600.
(PID.TID 0000.0001)    Downward longwave flux forcing period is           2592000.
(PID.TID 0000.0001)    Downward longwave flux forcing is read from file:
(PID.TID 0000.0001)    >>  core_dwnLw_cs32.bin  <<
(PID.TID 0000.0001) 
(PID.TID 0000.0001)    Atmospheric pressure forcing starts at                0.
(PID.TID 0000.0001)    Atmospheric pressure forcing period is                0.
(PID.TID 0000.0001)    Atmospheric pressureforcing is read from file:
(PID.TID 0000.0001)    >>    <<
(PID.TID 0000.0001) 
(PID.TID 0000.0001) // =======================================================
(PID.TID 0000.0001) // External forcing (EXF) climatology configuration :
(PID.TID 0000.0001) // =======================================================
(PID.TID 0000.0001) 
(PID.TID 0000.0001) // ALLOW_CLIMSST_RELAXATION:           defined
(PID.TID 0000.0001) // ALLOW_CLIMSSS_RELAXATION:           defined
(PID.TID 0000.0001) 
(PID.TID 0000.0001)    Climatological SST starts at             1209600.
(PID.TID 0000.0001)    Climatological SST period is             2592000.
(PID.TID 0000.0001)    Climatological SST is read from file:
(PID.TID 0000.0001)    >>  lev_surfT_cs_12m.bin  <<
(PID.TID 0000.0001) 
(PID.TID 0000.0001)    Climatological SSS starts at             1209600.
(PID.TID 0000.0001)    Climatological SSS period is             2592000.
(PID.TID 0000.0001)    Climatological SSS is read from file:
(PID.TID 0000.0001)    >>  lev_surfS_cs_12m.bin  <<
(PID.TID 0000.0001) 
(PID.TID 0000.0001) // =======================================================
(PID.TID 0000.0001) // External forcing (EXF) configuration  >>> END <<<
(PID.TID 0000.0001) // =======================================================
(PID.TID 0000.0001) 
(PID.TID 0000.0001) ctrl-wet 1:    nvarlength =       239366
(PID.TID 0000.0001) ctrl-wet 2: surface wet C =          389
(PID.TID 0000.0001) ctrl-wet 3: surface wet W =          367
(PID.TID 0000.0001) ctrl-wet 4: surface wet S =          384
(PID.TID 0000.0001) ctrl-wet 4a:surface wet V =            0
(PID.TID 0000.0001) ctrl-wet 5: 3D wet points =         5204
(PID.TID 0000.0001) ctrl-wet 6: no recs for i =     1           1
(PID.TID 0000.0001) ctrl-wet 6: no recs for i =     2           1
(PID.TID 0000.0001) ctrl-wet 6: no recs for i =     3           1
(PID.TID 0000.0001) ctrl-wet 6: no recs for i =     4           1
(PID.TID 0000.0001) ctrl-wet 6: no recs for i =     5           1
(PID.TID 0000.0001) ctrl-wet 6: no recs for i =     6           1
(PID.TID 0000.0001) ctrl-wet 6: no recs for i =     7           0
(PID.TID 0000.0001) ctrl-wet 6: no recs for i =     8           0
(PID.TID 0000.0001) ctrl-wet 6: no recs for i =     9           0
(PID.TID 0000.0001) ctrl-wet 6: no recs for i =    10           0
(PID.TID 0000.0001) ctrl-wet 6: no recs for i =    11           0
(PID.TID 0000.0001) ctrl-wet 6: no recs for i =    12           0
(PID.TID 0000.0001) ctrl-wet 6: no recs for i =    13           0
(PID.TID 0000.0001) ctrl-wet 6: no recs for i =    14           0
(PID.TID 0000.0001) ctrl-wet 6: no recs for i =    15           1
(PID.TID 0000.0001) ctrl-wet 6: no recs for i =    16           0
(PID.TID 0000.0001) ctrl-wet 6: no recs for i =    17           1
(PID.TID 0000.0001) ctrl-wet 6: no recs for i =    18           0
(PID.TID 0000.0001) ctrl-wet 6: no recs for i =    19           0
(PID.TID 0000.0001) ctrl-wet 6: no recs for i =    20           0
(PID.TID 0000.0001) ctrl-wet 6: no recs for i =    21           0
(PID.TID 0000.0001) ctrl-wet 6: no recs for i =    22           0
(PID.TID 0000.0001) ctrl-wet 6: no recs for i =    23           0
(PID.TID 0000.0001) ctrl-wet 6: no recs for i =    24           0
(PID.TID 0000.0001) ctrl-wet 6: no recs for i =    25           0
(PID.TID 0000.0001) ctrl-wet 6: no recs for i =    26           0
(PID.TID 0000.0001) ctrl-wet 6: no recs for i =    27           0
(PID.TID 0000.0001) ctrl-wet 6: no recs for i =    28           0
(PID.TID 0000.0001) ctrl-wet 6: no recs for i =    29           0
(PID.TID 0000.0001) ctrl-wet 6: no recs for i =    30           0
(PID.TID 0000.0001) ctrl-wet 6: no recs for i =    31           0
(PID.TID 0000.0001) ctrl-wet 6: no recs for i =    32           0
(PID.TID 0000.0001) ctrl-wet 6: no recs for i =    33           0
(PID.TID 0000.0001) ctrl-wet 6: no recs for i =    34           0
(PID.TID 0000.0001) ctrl-wet 6: no recs for i =    35           0
(PID.TID 0000.0001) ctrl-wet 6: no recs for i =    36           0
(PID.TID 0000.0001) ctrl-wet 6: no recs for i =    37           0
(PID.TID 0000.0001) ctrl-wet 6: no recs for i =    38           0
(PID.TID 0000.0001) ctrl-wet 6: no recs for i =    39           0
(PID.TID 0000.0001) ctrl-wet 6: no recs for i =    40           0
(PID.TID 0000.0001) ctrl-wet 6: no recs for i =    41           0
(PID.TID 0000.0001) ctrl-wet 6: no recs for i =    42           0
(PID.TID 0000.0001) ctrl-wet 6: no recs for i =    43           0
(PID.TID 0000.0001) ctrl-wet 6: no recs for i =    44           0
(PID.TID 0000.0001) ctrl-wet 6: no recs for i =    45           0
(PID.TID 0000.0001) ctrl-wet 6: no recs for i =    46           0
(PID.TID 0000.0001) ctrl-wet 6: no recs for i =    47           0
(PID.TID 0000.0001) ctrl-wet 6: no recs for i =    48           0
(PID.TID 0000.0001) ctrl-wet 6: no recs for i =    49           0
(PID.TID 0000.0001) ctrl-wet 6: no recs for i =    50           0
(PID.TID 0000.0001) ctrl-wet 6: no recs for i =    51           0
(PID.TID 0000.0001) ctrl-wet 6: no recs for i =    52           0
(PID.TID 0000.0001) ctrl-wet 6: no recs for i =    53           0
(PID.TID 0000.0001) ctrl-wet 6: no recs for i =    54           0
(PID.TID 0000.0001) ctrl-wet 6: no recs for i =    55           0
(PID.TID 0000.0001) ctrl-wet 6: no recs for i =    56           0
(PID.TID 0000.0001) ctrl-wet 6: no recs for i =    57           0
(PID.TID 0000.0001) ctrl-wet 6: no recs for i =    58           0
(PID.TID 0000.0001) ctrl-wet 6: no recs for i =    59           0
(PID.TID 0000.0001) ctrl-wet 6: no recs for i =    60           0
(PID.TID 0000.0001) ctrl-wet 7: flux         11937
(PID.TID 0000.0001) ctrl-wet 8: atmos        10408
(PID.TID 0000.0001) ctrl-wet -------------------------------------------------
(PID.TID 0000.0001) ctrl-wet 13: global nvarlength for Nr =   15      239366
(PID.TID 0000.0001) ctrl-wet -------------------------------------------------
(PID.TID 0000.0001) ctrl-wet 14: global nWet C/S/W/V k=    1        4420        4232        4206           0
(PID.TID 0000.0001) ctrl-wet 14: global nWet C/S/W/V k=    2        4299        4112        4096           0
(PID.TID 0000.0001) ctrl-wet 14: global nWet C/S/W/V k=    3        4222        4038        4023           0
(PID.TID 0000.0001) ctrl-wet 14: global nWet C/S/W/V k=    4        4140        3960        3939           0
(PID.TID 0000.0001) ctrl-wet 14: global nWet C/S/W/V k=    5        4099        3919        3893           0
(PID.TID 0000.0001) ctrl-wet 14: global nWet C/S/W/V k=    6        4038        3856        3839           0
(PID.TID 0000.0001) ctrl-wet 14: global nWet C/S/W/V k=    7        3995        3814        3795           0
(PID.TID 0000.0001) ctrl-wet 14: global nWet C/S/W/V k=    8        3944        3756        3737           0
(PID.TID 0000.0001) ctrl-wet 14: global nWet C/S/W/V k=    9        3887        3699        3673           0
(PID.TID 0000.0001) ctrl-wet 14: global nWet C/S/W/V k=   10        3799        3605        3585           0
(PID.TID 0000.0001) ctrl-wet 14: global nWet C/S/W/V k=   11        3703        3502        3461           0
(PID.TID 0000.0001) ctrl-wet 14: global nWet C/S/W/V k=   12        3554        3338        3303           0
(PID.TID 0000.0001) ctrl-wet 14: global nWet C/S/W/V k=   13        3202        2910        2911           0
(PID.TID 0000.0001) ctrl-wet 14: global nWet C/S/W/V k=   14        2599        2296        2276           0
(PID.TID 0000.0001) ctrl-wet 14: global nWet C/S/W/V k=   15        1621        1368        1334           0
(PID.TID 0000.0001) ctrl-wet -------------------------------------------------
(PID.TID 0000.0001) ctrl-wet -------------------------------------------------
(PID.TID 0000.0001) ctrl-wet -------------------------------------------------
(PID.TID 0000.0001) ctrl_init: no. of control variables:            8
(PID.TID 0000.0001) ctrl_init: control vector length:          239366
(PID.TID 0000.0001) INI_GLOBAL_DOMAIN: Found  19 CS-corner Pts in the domain
(PID.TID 0000.0001) %MON fCori_max                    =   1.4574827780704E-04
(PID.TID 0000.0001) %MON fCori_min                    =  -1.4574827780704E-04
(PID.TID 0000.0001) %MON fCori_mean                   =   3.3881317890172E-21
(PID.TID 0000.0001) %MON fCori_sd                     =   8.4202189509968E-05
(PID.TID 0000.0001) %MON fCoriG_max                   =   1.4584247033981E-04
(PID.TID 0000.0001) %MON fCoriG_min                   =  -1.4584247033981E-04
(PID.TID 0000.0001) %MON fCoriG_mean                  =  -1.6940658945086E-20
(PID.TID 0000.0001) %MON fCoriG_sd                    =   8.4202189509968E-05
(PID.TID 0000.0001) %MON fCoriCos_max                 =   1.4580166994612E-04
(PID.TID 0000.0001) %MON fCoriCos_min                 =   5.2407700865903E-06
(PID.TID 0000.0001) %MON fCoriCos_mean                =   1.1514045869113E-04
(PID.TID 0000.0001) %MON fCoriCos_sd                  =   3.0375849106513E-05
(PID.TID 0000.0001) INI_CG2D: CG2D normalisation factor =  1.9156564154949553E-04
(PID.TID 0000.0001) INI_CG2D: cg2dTolerance = 5.809016360175296E-07 (Area=3.6388673751E+14)
(PID.TID 0000.0001) 
(PID.TID 0000.0001) // =======================================================
(PID.TID 0000.0001) // Model configuration
(PID.TID 0000.0001) // =======================================================
(PID.TID 0000.0001) //
(PID.TID 0000.0001) // "Physical" paramters ( PARM01 in namelist )
(PID.TID 0000.0001) //
(PID.TID 0000.0001) buoyancyRelation = /* Type of relation to get Buoyancy */
(PID.TID 0000.0001)               'OCEANIC'
(PID.TID 0000.0001)     ;
(PID.TID 0000.0001) fluidIsAir   =  /* fluid major constituent is Air */
(PID.TID 0000.0001)                   F
(PID.TID 0000.0001)     ;
(PID.TID 0000.0001) fluidIsWater =  /* fluid major constituent is Water */
(PID.TID 0000.0001)                   T
(PID.TID 0000.0001)     ;
(PID.TID 0000.0001) usingPCoords =  /* use p (or p*) vertical coordinate */
(PID.TID 0000.0001)                   F
(PID.TID 0000.0001)     ;
(PID.TID 0000.0001) usingZCoords =  /* use z (or z*) vertical coordinate */
(PID.TID 0000.0001)                   T
(PID.TID 0000.0001)     ;
(PID.TID 0000.0001) tRef =   /* Reference temperature profile ( oC or K ) */
(PID.TID 0000.0001)    15 @  2.000000000000000E+01              /* K =  1: 15 */
(PID.TID 0000.0001)     ;
(PID.TID 0000.0001) sRef =   /* Reference salinity profile ( psu ) */
(PID.TID 0000.0001)    15 @  3.500000000000000E+01              /* K =  1: 15 */
(PID.TID 0000.0001)     ;
(PID.TID 0000.0001) viscAh  =   /* Lateral eddy viscosity ( m^2/s ) */
(PID.TID 0000.0001)                 3.000000000000000E+05
(PID.TID 0000.0001)     ;
(PID.TID 0000.0001) viscAhMax = /* Maximum lateral eddy viscosity ( m^2/s ) */
(PID.TID 0000.0001)                 1.000000000000000E+21
(PID.TID 0000.0001)     ;
(PID.TID 0000.0001) viscAhGrid = /* Grid dependent lateral eddy viscosity ( non-dim. ) */
(PID.TID 0000.0001)                 0.000000000000000E+00
(PID.TID 0000.0001)     ;
(PID.TID 0000.0001) useFullLeith = /* Use Full Form of Leith Viscosity on/off flag*/
(PID.TID 0000.0001)                   F
(PID.TID 0000.0001)     ;
(PID.TID 0000.0001) useStrainTensionVisc= /* Use StrainTension Form of Viscous Operator flag*/
(PID.TID 0000.0001)                   F
(PID.TID 0000.0001)     ;
(PID.TID 0000.0001) useAreaViscLength = /* Use area for visc length instead of geom. mean*/
(PID.TID 0000.0001)                   F
(PID.TID 0000.0001)     ;
(PID.TID 0000.0001) viscC2leith = /* Leith harmonic visc. factor (on grad(vort),non-dim.) */
(PID.TID 0000.0001)                 0.000000000000000E+00
(PID.TID 0000.0001)     ;
(PID.TID 0000.0001) viscC2leithD = /* Leith harmonic viscosity factor (on grad(div),non-dim.)*/
(PID.TID 0000.0001)                 0.000000000000000E+00
(PID.TID 0000.0001)     ;
(PID.TID 0000.0001) viscC2smag = /* Smagorinsky harmonic viscosity factor (non-dim.) */
(PID.TID 0000.0001)                 0.000000000000000E+00
(PID.TID 0000.0001)     ;
(PID.TID 0000.0001) viscA4  =   /* Lateral biharmonic viscosity ( m^4/s ) */
(PID.TID 0000.0001)                 0.000000000000000E+00
(PID.TID 0000.0001)     ;
(PID.TID 0000.0001) viscA4Max = /* Maximum biharmonic viscosity ( m^2/s ) */
(PID.TID 0000.0001)                 1.000000000000000E+21
(PID.TID 0000.0001)     ;
(PID.TID 0000.0001) viscA4Grid = /* Grid dependent biharmonic viscosity ( non-dim. ) */
(PID.TID 0000.0001)                 0.000000000000000E+00
(PID.TID 0000.0001)     ;
(PID.TID 0000.0001) viscC4leith = /* Leith biharm viscosity factor (on grad(vort), non-dim.)*/
(PID.TID 0000.0001)                 0.000000000000000E+00
(PID.TID 0000.0001)     ;
(PID.TID 0000.0001) viscC4leithD = /* Leith biharm viscosity factor (on grad(div), non-dim.) */
(PID.TID 0000.0001)                 0.000000000000000E+00
(PID.TID 0000.0001)     ;
(PID.TID 0000.0001) viscC4Smag = /* Smagorinsky biharm viscosity factor (non-dim) */
(PID.TID 0000.0001)                 0.000000000000000E+00
(PID.TID 0000.0001)     ;
(PID.TID 0000.0001) no_slip_sides =  /* Viscous BCs: No-slip sides */
(PID.TID 0000.0001)                   T
(PID.TID 0000.0001)     ;
(PID.TID 0000.0001) sideDragFactor = /* side-drag scaling factor (non-dim) */
(PID.TID 0000.0001)                 2.000000000000000E+00
(PID.TID 0000.0001)     ;
(PID.TID 0000.0001) viscArNr = /* vertical profile of vertical viscosity ( m^2/s )*/
(PID.TID 0000.0001)    15 @  1.000000000000000E-03              /* K =  1: 15 */
(PID.TID 0000.0001)     ;
(PID.TID 0000.0001) no_slip_bottom =  /* Viscous BCs: No-slip bottom */
(PID.TID 0000.0001)                   T
(PID.TID 0000.0001)     ;
(PID.TID 0000.0001) bottomDragLinear = /* linear bottom-drag coefficient ( m/s ) */
(PID.TID 0000.0001)                 0.000000000000000E+00
(PID.TID 0000.0001)     ;
(PID.TID 0000.0001) bottomDragQuadratic = /* quadratic bottom-drag coefficient (-) */
(PID.TID 0000.0001)                 0.000000000000000E+00
(PID.TID 0000.0001)     ;
(PID.TID 0000.0001) diffKhT =   /* Laplacian diffusion of heat laterally ( m^2/s ) */
(PID.TID 0000.0001)                 0.000000000000000E+00
(PID.TID 0000.0001)     ;
(PID.TID 0000.0001) diffK4T =   /* Biharmonic diffusion of heat laterally ( m^4/s ) */
(PID.TID 0000.0001)                 0.000000000000000E+00
(PID.TID 0000.0001)     ;
(PID.TID 0000.0001) diffKhS =   /* Laplacian diffusion of salt laterally ( m^2/s ) */
(PID.TID 0000.0001)                 0.000000000000000E+00
(PID.TID 0000.0001)     ;
(PID.TID 0000.0001) diffK4S =   /* Biharmonic diffusion of salt laterally ( m^4/s ) */
(PID.TID 0000.0001)                 0.000000000000000E+00
(PID.TID 0000.0001)     ;
(PID.TID 0000.0001) diffKrNrT = /* vertical profile of vertical diffusion of Temp ( m^2/s )*/
(PID.TID 0000.0001)    15 @  3.000000000000000E-05              /* K =  1: 15 */
(PID.TID 0000.0001)     ;
(PID.TID 0000.0001) diffKrNrS = /* vertical profile of vertical diffusion of Salt ( m^2/s )*/
(PID.TID 0000.0001)    15 @  3.000000000000000E-05              /* K =  1: 15 */
(PID.TID 0000.0001)     ;
(PID.TID 0000.0001) diffKrBL79surf = /* Surface diffusion for Bryan and Lewis 79 ( m^2/s ) */
(PID.TID 0000.0001)                 0.000000000000000E+00
(PID.TID 0000.0001)     ;
(PID.TID 0000.0001) diffKrBL79deep = /* Deep diffusion for Bryan and Lewis 1979 ( m^2/s ) */
(PID.TID 0000.0001)                 0.000000000000000E+00
(PID.TID 0000.0001)     ;
(PID.TID 0000.0001) diffKrBL79scl = /* Depth scale for Bryan and Lewis 1979 ( m ) */
(PID.TID 0000.0001)                 2.000000000000000E+02
(PID.TID 0000.0001)     ;
(PID.TID 0000.0001) diffKrBL79Ho = /* Turning depth for Bryan and Lewis 1979 ( m ) */
(PID.TID 0000.0001)                -2.000000000000000E+03
(PID.TID 0000.0001)     ;
(PID.TID 0000.0001) ivdc_kappa = /* Implicit Vertical Diffusivity for Convection ( m^2/s) */
(PID.TID 0000.0001)                 1.000000000000000E+01
(PID.TID 0000.0001)     ;
(PID.TID 0000.0001) hMixCriteria=  /* Criteria for mixed-layer diagnostic */
(PID.TID 0000.0001)                -8.000000000000000E-01
(PID.TID 0000.0001)     ;
(PID.TID 0000.0001) dRhoSmall =  /* Parameter for mixed-layer diagnostic */
(PID.TID 0000.0001)                 1.000000000000000E-06
(PID.TID 0000.0001)     ;
(PID.TID 0000.0001) hMixSmooth=  /* Smoothing parameter for mixed-layer diagnostic */
(PID.TID 0000.0001)                 0.000000000000000E+00
(PID.TID 0000.0001)     ;
(PID.TID 0000.0001) eosType =  /* Type of Equation of State */
(PID.TID 0000.0001)               'JMD95Z'
(PID.TID 0000.0001)     ;
(PID.TID 0000.0001) celsius2K = /* 0 degree Celsius converted to Kelvin ( K ) */
(PID.TID 0000.0001)                 2.731500000000000E+02
(PID.TID 0000.0001)     ;
(PID.TID 0000.0001) rhoConst  = /* Reference density (Boussinesq)  ( kg/m^3 ) */
(PID.TID 0000.0001)                 1.035000000000000E+03
(PID.TID 0000.0001)     ;
(PID.TID 0000.0001) rhoFacC = /* normalized Reference density @ cell-Center (-) */
(PID.TID 0000.0001)    15 @  1.000000000000000E+00              /* K =  1: 15 */
(PID.TID 0000.0001)     ;
(PID.TID 0000.0001) rhoFacF = /* normalized Reference density @ W-Interface (-) */
(PID.TID 0000.0001)    16 @  1.000000000000000E+00              /* K =  1: 16 */
(PID.TID 0000.0001)     ;
(PID.TID 0000.0001) rhoConstFresh = /* Fresh-water reference density ( kg/m^3 ) */
(PID.TID 0000.0001)                 1.000000000000000E+03
(PID.TID 0000.0001)     ;
(PID.TID 0000.0001) gravity =   /* Gravitational acceleration ( m/s^2 ) */
(PID.TID 0000.0001)                 9.810000000000000E+00
(PID.TID 0000.0001)     ;
(PID.TID 0000.0001) gBaro =   /* Barotropic gravity ( m/s^2 ) */
(PID.TID 0000.0001)                 9.810000000000000E+00
(PID.TID 0000.0001)     ;
(PID.TID 0000.0001) rotationPeriod =   /* Rotation Period ( s ) */
(PID.TID 0000.0001)                 8.616400000000000E+04
(PID.TID 0000.0001)     ;
(PID.TID 0000.0001) omega =   /* Angular velocity ( rad/s ) */
(PID.TID 0000.0001)                 7.292123516990375E-05
(PID.TID 0000.0001)     ;
(PID.TID 0000.0001) f0 =   /* Reference coriolis parameter ( 1/s ) */
(PID.TID 0000.0001)                 1.000000000000000E-04
(PID.TID 0000.0001)     ;
(PID.TID 0000.0001) beta =   /* Beta ( 1/(m.s) ) */
(PID.TID 0000.0001)                 9.999999999999999E-12
(PID.TID 0000.0001)     ;
(PID.TID 0000.0001) fPrime =   /* Second coriolis parameter ( 1/s ) */
(PID.TID 0000.0001)                 0.000000000000000E+00
(PID.TID 0000.0001)     ;
(PID.TID 0000.0001) rigidLid =   /* Rigid lid on/off flag */
(PID.TID 0000.0001)                   F
(PID.TID 0000.0001)     ;
(PID.TID 0000.0001) implicitFreeSurface =   /* Implicit free surface on/off flag */
(PID.TID 0000.0001)                   T
(PID.TID 0000.0001)     ;
(PID.TID 0000.0001) freeSurfFac =   /* Implicit free surface factor */
(PID.TID 0000.0001)                 1.000000000000000E+00
(PID.TID 0000.0001)     ;
(PID.TID 0000.0001) implicSurfPress =  /* Surface Pressure implicit factor (0-1)*/
(PID.TID 0000.0001)                 1.000000000000000E+00
(PID.TID 0000.0001)     ;
(PID.TID 0000.0001) implicDiv2Dflow =  /* Barot. Flow Div. implicit factor (0-1)*/
(PID.TID 0000.0001)                 1.000000000000000E+00
(PID.TID 0000.0001)     ;
(PID.TID 0000.0001) uniformLin_PhiSurf = /* use uniform Bo_surf on/off flag*/
(PID.TID 0000.0001)                   T
(PID.TID 0000.0001)     ;
(PID.TID 0000.0001) uniformFreeSurfLev = /* free-surface level-index is uniform */
(PID.TID 0000.0001)                   T
(PID.TID 0000.0001)     ;
(PID.TID 0000.0001) hFacMin =   /* minimum partial cell factor (hFac) */
(PID.TID 0000.0001)                 1.000000000000000E-01
(PID.TID 0000.0001)     ;
(PID.TID 0000.0001) hFacMinDr = /* minimum partial cell thickness ( m) */
(PID.TID 0000.0001)                 1.000000000000000E-01
(PID.TID 0000.0001)     ;
(PID.TID 0000.0001) exactConserv =  /* Exact Volume Conservation on/off flag*/
(PID.TID 0000.0001)                   T
(PID.TID 0000.0001)     ;
(PID.TID 0000.0001) linFSConserveTr = /* Tracer correction for Lin Free Surface on/off flag*/
(PID.TID 0000.0001)                   F
(PID.TID 0000.0001)     ;
(PID.TID 0000.0001) nonlinFreeSurf = /* Non-linear Free Surf. options (-1,0,1,2,3)*/
(PID.TID 0000.0001)                       2
(PID.TID 0000.0001)      -1,0= Off ; 1,2,3= On, 2=+rescale gU,gV, 3=+update cg2d solv.
(PID.TID 0000.0001)     ;
(PID.TID 0000.0001) hFacInf =   /* lower threshold for hFac (nonlinFreeSurf only)*/
(PID.TID 0000.0001)                 2.000000000000000E-01
(PID.TID 0000.0001)     ;
(PID.TID 0000.0001) hFacSup =   /* upper threshold for hFac (nonlinFreeSurf only)*/
(PID.TID 0000.0001)                 2.000000000000000E+00
(PID.TID 0000.0001)     ;
(PID.TID 0000.0001) select_rStar = /* r* Vertical coord. options (=0 r coord.; >0 uses r*)*/
(PID.TID 0000.0001)                       2
(PID.TID 0000.0001)     ;
(PID.TID 0000.0001) useRealFreshWaterFlux = /* Real Fresh Water Flux on/off flag*/
(PID.TID 0000.0001)                   T
(PID.TID 0000.0001)     ;
(PID.TID 0000.0001) temp_EvPrRn = /* Temp. of Evap/Prec/R (UNSET=use local T)(oC)*/
(PID.TID 0000.0001)                 1.234567000000000E+05
(PID.TID 0000.0001)     ;
(PID.TID 0000.0001) salt_EvPrRn = /* Salin. of Evap/Prec/R (UNSET=use local S)(psu)*/
(PID.TID 0000.0001)                 0.000000000000000E+00
(PID.TID 0000.0001)     ;
(PID.TID 0000.0001) selectAddFluid = /* option for mass source/sink of fluid (=0: off) */
(PID.TID 0000.0001)                       0
(PID.TID 0000.0001)     ;
(PID.TID 0000.0001) temp_addMass = /* Temp. of addMass array (UNSET=use local T)(oC)*/
(PID.TID 0000.0001)                 1.234567000000000E+05
(PID.TID 0000.0001)     ;
(PID.TID 0000.0001) salt_addMass = /* Salin. of addMass array (UNSET=use local S)(psu)*/
(PID.TID 0000.0001)                 0.000000000000000E+00
(PID.TID 0000.0001)     ;
(PID.TID 0000.0001) use3Dsolver = /* use 3-D pressure solver on/off flag */
(PID.TID 0000.0001)                   F
(PID.TID 0000.0001)     ;
(PID.TID 0000.0001) nonHydrostatic =  /* Non-Hydrostatic on/off flag */
(PID.TID 0000.0001)                   F
(PID.TID 0000.0001)     ;
(PID.TID 0000.0001) nh_Am2 = /* Non-Hydrostatic terms scaling factor */
(PID.TID 0000.0001)                 1.000000000000000E+00
(PID.TID 0000.0001)     ;
(PID.TID 0000.0001) implicitNHPress = /* Non-Hyd Pressure implicit factor (0-1)*/
(PID.TID 0000.0001)                 1.000000000000000E+00
(PID.TID 0000.0001)     ;
(PID.TID 0000.0001) selectNHfreeSurf = /* Non-Hyd (free-)Surface option */
(PID.TID 0000.0001)                       0
(PID.TID 0000.0001)     ;
(PID.TID 0000.0001) quasiHydrostatic = /* Quasi-Hydrostatic on/off flag */
(PID.TID 0000.0001)                   F
(PID.TID 0000.0001)     ;
(PID.TID 0000.0001) calc_wVelocity = /* vertical velocity calculation on/off flag */
(PID.TID 0000.0001)                   T
(PID.TID 0000.0001)     ;
(PID.TID 0000.0001) momStepping =  /* Momentum equation on/off flag */
(PID.TID 0000.0001)                   T
(PID.TID 0000.0001)     ;
(PID.TID 0000.0001) vectorInvariantMomentum= /* Vector-Invariant Momentum on/off */
(PID.TID 0000.0001)                   T
(PID.TID 0000.0001)     ;
(PID.TID 0000.0001) momAdvection =  /* Momentum advection on/off flag */
(PID.TID 0000.0001)                   T
(PID.TID 0000.0001)     ;
(PID.TID 0000.0001) momViscosity =  /* Momentum viscosity on/off flag */
(PID.TID 0000.0001)                   T
(PID.TID 0000.0001)     ;
(PID.TID 0000.0001) momImplVertAdv= /* Momentum implicit vert. advection on/off*/
(PID.TID 0000.0001)                   F
(PID.TID 0000.0001)     ;
(PID.TID 0000.0001) implicitViscosity = /* Implicit viscosity on/off flag */
(PID.TID 0000.0001)                   F
(PID.TID 0000.0001)     ;
(PID.TID 0000.0001) metricTerms =  /* metric-Terms on/off flag */
(PID.TID 0000.0001)                   F
(PID.TID 0000.0001)     ;
(PID.TID 0000.0001) useNHMTerms = /* Non-Hydrostatic Metric-Terms on/off */
(PID.TID 0000.0001)                   F
(PID.TID 0000.0001)     ;
(PID.TID 0000.0001) selectCoriMap = /* Coriolis Map options (0,1,2,3)*/
(PID.TID 0000.0001)                       2
(PID.TID 0000.0001)     0= f-Plane ; 1= Beta-Plane ; 2= Spherical ; 3= read from file
(PID.TID 0000.0001)     ;
(PID.TID 0000.0001) use3dCoriolis = /* 3-D Coriolis on/off flag */
(PID.TID 0000.0001)                   F
(PID.TID 0000.0001)     ;
(PID.TID 0000.0001) useCoriolis =  /* Coriolis on/off flag */
(PID.TID 0000.0001)                   T
(PID.TID 0000.0001)     ;
(PID.TID 0000.0001) useCDscheme =  /* CD scheme on/off flag */
(PID.TID 0000.0001)                   F
(PID.TID 0000.0001)     ;
(PID.TID 0000.0001) useEnergyConservingCoriolis= /* Flx-Form Coriolis scheme flag */
(PID.TID 0000.0001)                   F
(PID.TID 0000.0001)     ;
(PID.TID 0000.0001) useJamartWetPoints= /* Coriolis WetPoints method flag */
(PID.TID 0000.0001)                   F
(PID.TID 0000.0001)     ;
(PID.TID 0000.0001) useJamartMomAdv= /* V.I Non-linear terms Jamart flag */
(PID.TID 0000.0001)                   F
(PID.TID 0000.0001)     ;
(PID.TID 0000.0001) useAbsVorticity= /* V.I Works with f+zeta in Coriolis */
(PID.TID 0000.0001)                   F
(PID.TID 0000.0001)     ;
(PID.TID 0000.0001) selectVortScheme= /* V.I Scheme selector for Vorticity-Term */
(PID.TID 0000.0001)                       1
(PID.TID 0000.0001)    = 0 : enstrophy (Shallow-Water Eq.) conserving scheme by Sadourny, JAS 75
(PID.TID 0000.0001)    = 1 : same as 0 with modified hFac
(PID.TID 0000.0001)    = 2 : energy conserving scheme (used by Sadourny in JAS 75 paper)
(PID.TID 0000.0001)    = 3 : energy (general) and enstrophy (2D, nonDiv.) conserving scheme
(PID.TID 0000.0001)          from Sadourny (Burridge & Haseler, ECMWF Rep.4, 1977)
(PID.TID 0000.0001)     ;
(PID.TID 0000.0001) upwindVorticity= /* V.I Upwind bias vorticity flag */
(PID.TID 0000.0001)                   F
(PID.TID 0000.0001)     ;
(PID.TID 0000.0001) highOrderVorticity= /* V.I High order vort. advect. flag */
(PID.TID 0000.0001)                   F
(PID.TID 0000.0001)     ;
(PID.TID 0000.0001) upwindShear= /* V.I Upwind vertical Shear advection flag */
(PID.TID 0000.0001)                   F
(PID.TID 0000.0001)     ;
(PID.TID 0000.0001) selectKEscheme= /* V.I Kinetic Energy scheme selector */
(PID.TID 0000.0001)                       0
(PID.TID 0000.0001)     ;
(PID.TID 0000.0001) momForcing =  /* Momentum forcing on/off flag */
(PID.TID 0000.0001)                   T
(PID.TID 0000.0001)     ;
(PID.TID 0000.0001) momPressureForcing =  /* Momentum pressure term on/off flag */
(PID.TID 0000.0001)                   T
(PID.TID 0000.0001)     ;
(PID.TID 0000.0001) implicitIntGravWave= /* Implicit Internal Gravity Wave flag */
(PID.TID 0000.0001)                   F
(PID.TID 0000.0001)     ;
(PID.TID 0000.0001) staggerTimeStep =    /* Stagger time stepping on/off flag */
(PID.TID 0000.0001)                   T
(PID.TID 0000.0001)     ;
(PID.TID 0000.0001) doResetHFactors = /* reset thickness factors @ each time-step */
(PID.TID 0000.0001)                   T
(PID.TID 0000.0001)     ;
(PID.TID 0000.0001) multiDimAdvection =  /* enable/disable Multi-Dim Advection */
(PID.TID 0000.0001)                   T
(PID.TID 0000.0001)     ;
(PID.TID 0000.0001) useMultiDimAdvec =   /* Multi-Dim Advection is/is-not used */
(PID.TID 0000.0001)                   T
(PID.TID 0000.0001)     ;
(PID.TID 0000.0001) implicitDiffusion = /* Implicit Diffusion on/off flag */
(PID.TID 0000.0001)                   T
(PID.TID 0000.0001)     ;
(PID.TID 0000.0001) tempStepping =  /* Temperature equation on/off flag */
(PID.TID 0000.0001)                   T
(PID.TID 0000.0001)     ;
(PID.TID 0000.0001) tempAdvection=  /* Temperature advection on/off flag */
(PID.TID 0000.0001)                   T
(PID.TID 0000.0001)     ;
(PID.TID 0000.0001) tempImplVertAdv = /* Temp. implicit vert. advection on/off */
(PID.TID 0000.0001)                   F
(PID.TID 0000.0001)     ;
(PID.TID 0000.0001) tempForcing  =  /* Temperature forcing on/off flag */
(PID.TID 0000.0001)                   T
(PID.TID 0000.0001)     ;
(PID.TID 0000.0001) tempIsActiveTr = /* Temp. is a dynamically Active Tracer */
(PID.TID 0000.0001)                   T
(PID.TID 0000.0001)     ;
(PID.TID 0000.0001) saltStepping =  /* Salinity equation on/off flag */
(PID.TID 0000.0001)                   T
(PID.TID 0000.0001)     ;
(PID.TID 0000.0001) saltAdvection=  /* Salinity advection on/off flag */
(PID.TID 0000.0001)                   T
(PID.TID 0000.0001)     ;
(PID.TID 0000.0001) saltImplVertAdv = /* Sali. implicit vert. advection on/off */
(PID.TID 0000.0001)                   F
(PID.TID 0000.0001)     ;
(PID.TID 0000.0001) saltForcing  =  /* Salinity forcing on/off flag */
(PID.TID 0000.0001)                   T
(PID.TID 0000.0001)     ;
(PID.TID 0000.0001) saltIsActiveTr = /* Salt  is a dynamically Active Tracer */
(PID.TID 0000.0001)                   T
(PID.TID 0000.0001)     ;
(PID.TID 0000.0001)  readBinaryPrec = /* Precision used for reading binary files */
(PID.TID 0000.0001)                      64
(PID.TID 0000.0001)     ;
(PID.TID 0000.0001) writeBinaryPrec = /* Precision used for writing binary files */
(PID.TID 0000.0001)                      32
(PID.TID 0000.0001)     ;
(PID.TID 0000.0001)  globalFiles = /* write "global" (=not per tile) files */
(PID.TID 0000.0001)                   F
(PID.TID 0000.0001)     ;
(PID.TID 0000.0001)  useSingleCpuIO = /* only master MPI process does I/O */
(PID.TID 0000.0001)                   F
(PID.TID 0000.0001)     ;
(PID.TID 0000.0001) /* debLev[*]  : level of debug & auxiliary message printing */
(PID.TID 0000.0001) debLevZero =  0 ; /* level of disabled aux. msg printing */
(PID.TID 0000.0001)    debLevA =  1 ; /* level of minimum  aux. msg printing */
(PID.TID 0000.0001)    debLevB =  2 ; /* level of low aux. print (report read-file opening)*/
(PID.TID 0000.0001)    debLevC =  3 ; /* level of moderate debug prt (most pkgs debug msg) */
(PID.TID 0000.0001)    debLevD =  4 ; /* level of enhanced debug prt (add DEBUG_STATS prt) */
(PID.TID 0000.0001)    debLevE =  5 ; /* level of extensive debug printing */
(PID.TID 0000.0001) debugLevel =  /* select debug printing level */
(PID.TID 0000.0001)                       1
(PID.TID 0000.0001)     ;
(PID.TID 0000.0001) //
(PID.TID 0000.0001) // Elliptic solver(s) paramters ( PARM02 in namelist )
(PID.TID 0000.0001) //
(PID.TID 0000.0001) cg2dMaxIters =   /* Upper limit on 2d con. grad iterations  */
(PID.TID 0000.0001)                     200
(PID.TID 0000.0001)     ;
(PID.TID 0000.0001) cg2dChkResFreq =   /* 2d con. grad convergence test frequency */
(PID.TID 0000.0001)                       1
(PID.TID 0000.0001)     ;
(PID.TID 0000.0001) cg2dTargetResidual =   /* 2d con. grad target residual  */
(PID.TID 0000.0001)                 1.000000000000000E-07
(PID.TID 0000.0001)     ;
(PID.TID 0000.0001) cg2dTargetResWunit =   /* CG2d target residual [W units] */
(PID.TID 0000.0001)                 1.000000000000000E-14
(PID.TID 0000.0001)     ;
(PID.TID 0000.0001) cg2dPreCondFreq =   /* Freq. for updating cg2d preconditioner */
(PID.TID 0000.0001)                       1
(PID.TID 0000.0001)     ;
(PID.TID 0000.0001) useSRCGSolver =  /* use single reduction CG solver(s) */
(PID.TID 0000.0001)                   F
(PID.TID 0000.0001)     ;
(PID.TID 0000.0001) printResidualFreq = /* Freq. for printing CG residual */
(PID.TID 0000.0001)                       0
(PID.TID 0000.0001)     ;
(PID.TID 0000.0001) //
(PID.TID 0000.0001) // Time stepping paramters ( PARM03 in namelist )
(PID.TID 0000.0001) //
(PID.TID 0000.0001) deltaTmom =   /* Momentum equation timestep ( s ) */
(PID.TID 0000.0001)                 1.200000000000000E+03
(PID.TID 0000.0001)     ;
(PID.TID 0000.0001) deltaTfreesurf = /* FreeSurface equation timestep ( s ) */
(PID.TID 0000.0001)                 8.640000000000000E+04
(PID.TID 0000.0001)     ;
(PID.TID 0000.0001) dTtracerLev =  /* Tracer equation timestep ( s ) */
(PID.TID 0000.0001)    15 @  8.640000000000000E+04              /* K =  1: 15 */
(PID.TID 0000.0001)     ;
(PID.TID 0000.0001) deltaTClock  =   /* Model clock timestep ( s ) */
(PID.TID 0000.0001)                 8.640000000000000E+04
(PID.TID 0000.0001)     ;
(PID.TID 0000.0001) cAdjFreq =   /* Convective adjustment interval ( s ) */
(PID.TID 0000.0001)                 0.000000000000000E+00
(PID.TID 0000.0001)     ;
(PID.TID 0000.0001) momForcingOutAB = /* =1: take Momentum Forcing out of Adams-Bash. stepping */
(PID.TID 0000.0001)                       0
(PID.TID 0000.0001)     ;
(PID.TID 0000.0001) tracForcingOutAB = /* =1: take T,S,pTr Forcing out of Adams-Bash. stepping */
(PID.TID 0000.0001)                       1
(PID.TID 0000.0001)     ;
(PID.TID 0000.0001) momDissip_In_AB = /* put Dissipation Tendency in Adams-Bash. stepping */
(PID.TID 0000.0001)                   T
(PID.TID 0000.0001)     ;
(PID.TID 0000.0001) doAB_onGtGs = /* apply AB on Tendencies (rather than on T,S)*/
(PID.TID 0000.0001)                   T
(PID.TID 0000.0001)     ;
(PID.TID 0000.0001) abEps =   /* Adams-Bashforth-2 stabilizing weight */
(PID.TID 0000.0001)                 1.000000000000000E-01
(PID.TID 0000.0001)     ;
(PID.TID 0000.0001) alph_AB =   /* Adams-Bashforth-3 primary factor */
(PID.TID 0000.0001)                 6.000000000000000E-01
(PID.TID 0000.0001)     ;
(PID.TID 0000.0001) beta_AB =   /* Adams-Bashforth-3 secondary factor */
(PID.TID 0000.0001)                 0.000000000000000E+00
(PID.TID 0000.0001)     ;
(PID.TID 0000.0001) startFromPickupAB2= /* start from AB-2 pickup */
(PID.TID 0000.0001)                   F
(PID.TID 0000.0001)     ;
(PID.TID 0000.0001) pickupStrictlyMatch= /* stop if pickup do not strictly match */
(PID.TID 0000.0001)                   F
(PID.TID 0000.0001)     ;
(PID.TID 0000.0001) nIter0   =   /* Run starting timestep number */
(PID.TID 0000.0001)                   72000
(PID.TID 0000.0001)     ;
(PID.TID 0000.0001) nTimeSteps = /* Number of timesteps */
(PID.TID 0000.0001)                      10
(PID.TID 0000.0001)     ;
(PID.TID 0000.0001) nEndIter =   /* Run ending timestep number */
(PID.TID 0000.0001)                   72010
(PID.TID 0000.0001)     ;
(PID.TID 0000.0001) baseTime =   /* Model base time ( s ) */
(PID.TID 0000.0001)                 0.000000000000000E+00
(PID.TID 0000.0001)     ;
(PID.TID 0000.0001) startTime =  /* Run start time ( s ) */
(PID.TID 0000.0001)                 6.220800000000000E+09
(PID.TID 0000.0001)     ;
(PID.TID 0000.0001) endTime  =   /* Integration ending time ( s ) */
(PID.TID 0000.0001)                 6.221664000000000E+09
(PID.TID 0000.0001)     ;
(PID.TID 0000.0001) pChkPtFreq = /* Permanent restart/pickup file interval ( s ) */
(PID.TID 0000.0001)                 3.110400000000000E+08
(PID.TID 0000.0001)     ;
(PID.TID 0000.0001) chkPtFreq  = /* Rolling restart/pickup file interval ( s ) */
(PID.TID 0000.0001)                 3.110400000000000E+07
(PID.TID 0000.0001)     ;
(PID.TID 0000.0001) pickup_write_mdsio =   /* Model IO flag. */
(PID.TID 0000.0001)                   T
(PID.TID 0000.0001)     ;
(PID.TID 0000.0001) pickup_read_mdsio =   /* Model IO flag. */
(PID.TID 0000.0001)                   T
(PID.TID 0000.0001)     ;
(PID.TID 0000.0001) pickup_write_immed =   /* Model IO flag. */
(PID.TID 0000.0001)                   F
(PID.TID 0000.0001)     ;
(PID.TID 0000.0001) writePickupAtEnd =   /* Model IO flag. */
(PID.TID 0000.0001)                   T
(PID.TID 0000.0001)     ;
(PID.TID 0000.0001) dumpFreq =   /* Model state write out interval ( s ). */
(PID.TID 0000.0001)                 4.320000000000000E+05
(PID.TID 0000.0001)     ;
(PID.TID 0000.0001) dumpInitAndLast= /* write out Initial & Last iter. model state */
(PID.TID 0000.0001)                   T
(PID.TID 0000.0001)     ;
(PID.TID 0000.0001) snapshot_mdsio =   /* Model IO flag. */
(PID.TID 0000.0001)                   T
(PID.TID 0000.0001)     ;
(PID.TID 0000.0001) monitorFreq =   /* Monitor output interval ( s ). */
(PID.TID 0000.0001)                 1.000000000000000E+00
(PID.TID 0000.0001)     ;
(PID.TID 0000.0001) monitorSelect = /* select group of variables to monitor */
(PID.TID 0000.0001)                       3
(PID.TID 0000.0001)     ;
(PID.TID 0000.0001) monitor_stdio =   /* Model IO flag. */
(PID.TID 0000.0001)                   T
(PID.TID 0000.0001)     ;
(PID.TID 0000.0001) externForcingPeriod =   /* forcing period (s) */
(PID.TID 0000.0001)                 0.000000000000000E+00
(PID.TID 0000.0001)     ;
(PID.TID 0000.0001) externForcingCycle =   /* period of the cyle (s). */
(PID.TID 0000.0001)                 0.000000000000000E+00
(PID.TID 0000.0001)     ;
(PID.TID 0000.0001) tauThetaClimRelax =   /* relaxation time scale (s) */
(PID.TID 0000.0001)                 0.000000000000000E+00
(PID.TID 0000.0001)     ;
(PID.TID 0000.0001) tauSaltClimRelax =   /* relaxation time scale (s) */
(PID.TID 0000.0001)                 0.000000000000000E+00
(PID.TID 0000.0001)     ;
(PID.TID 0000.0001) latBandClimRelax =   /* max. Lat. where relaxation */
(PID.TID 0000.0001)                 1.800000000000000E+02
(PID.TID 0000.0001)     ;
(PID.TID 0000.0001) //
(PID.TID 0000.0001) // Gridding paramters ( PARM04 in namelist )
(PID.TID 0000.0001) //
(PID.TID 0000.0001) usingCartesianGrid = /* Cartesian coordinates flag ( True/False ) */
(PID.TID 0000.0001)                   F
(PID.TID 0000.0001)     ;
(PID.TID 0000.0001) usingCylindricalGrid = /* Cylindrical coordinates flag ( True/False ) */
(PID.TID 0000.0001)                   F
(PID.TID 0000.0001)     ;
(PID.TID 0000.0001) usingSphericalPolarGrid = /* Spherical coordinates flag ( True/False ) */
(PID.TID 0000.0001)                   F
(PID.TID 0000.0001)     ;
(PID.TID 0000.0001) usingCurvilinearGrid = /* Curvilinear coordinates flag ( True/False ) */
(PID.TID 0000.0001)                   T
(PID.TID 0000.0001)     ;
(PID.TID 0000.0001) selectSigmaCoord = /* Hybrid-Sigma Vert. Coordinate option */
(PID.TID 0000.0001)                       0
(PID.TID 0000.0001)     ;
(PID.TID 0000.0001) Ro_SeaLevel = /* r(1) ( units of r ==  m ) */
(PID.TID 0000.0001)                 0.000000000000000E+00
(PID.TID 0000.0001)     ;
(PID.TID 0000.0001) rSigmaBnd = /* r/sigma transition ( units of r ==  m ) */
(PID.TID 0000.0001)                 1.234567000000000E+05
(PID.TID 0000.0001)     ;
(PID.TID 0000.0001) rkSign =   /* index orientation relative to vertical coordinate */
(PID.TID 0000.0001)                -1.000000000000000E+00
(PID.TID 0000.0001)     ;
(PID.TID 0000.0001) gravitySign = /* gravity orientation relative to vertical coordinate */
(PID.TID 0000.0001)                -1.000000000000000E+00
(PID.TID 0000.0001)     ;
(PID.TID 0000.0001) mass2rUnit = /* convert mass per unit area [kg/m2] to r-units [m] */
(PID.TID 0000.0001)                 9.661835748792270E-04
(PID.TID 0000.0001)     ;
(PID.TID 0000.0001) rUnit2mass = /* convert r-units [m] to mass per unit area [kg/m2] */
(PID.TID 0000.0001)                 1.035000000000000E+03
(PID.TID 0000.0001)     ;
(PID.TID 0000.0001) drC =   /* C spacing ( units of r ) */
(PID.TID 0000.0001)                 2.500000000000000E+01,      /* K =  1 */
(PID.TID 0000.0001)                 6.000000000000000E+01,      /* K =  2 */
(PID.TID 0000.0001)                 8.500000000000000E+01,      /* K =  3 */
(PID.TID 0000.0001)                 1.200000000000000E+02,      /* K =  4 */
(PID.TID 0000.0001)                 1.650000000000000E+02,      /* K =  5 */
(PID.TID 0000.0001)                 2.150000000000000E+02,      /* K =  6 */
(PID.TID 0000.0001)                 2.650000000000000E+02,      /* K =  7 */
(PID.TID 0000.0001)                 3.150000000000000E+02,      /* K =  8 */
(PID.TID 0000.0001)                 3.650000000000000E+02,      /* K =  9 */
(PID.TID 0000.0001)                 4.150000000000000E+02,      /* K = 10 */
(PID.TID 0000.0001)                 4.650000000000000E+02,      /* K = 11 */
(PID.TID 0000.0001)                 5.150000000000000E+02,      /* K = 12 */
(PID.TID 0000.0001)                 5.650000000000000E+02,      /* K = 13 */
(PID.TID 0000.0001)                 6.150000000000000E+02,      /* K = 14 */
(PID.TID 0000.0001)                 6.650000000000000E+02       /* K = 15 */
(PID.TID 0000.0001)     ;
(PID.TID 0000.0001) drF =   /* W spacing ( units of r ) */
(PID.TID 0000.0001)                 5.000000000000000E+01,      /* K =  1 */
(PID.TID 0000.0001)                 7.000000000000000E+01,      /* K =  2 */
(PID.TID 0000.0001)                 1.000000000000000E+02,      /* K =  3 */
(PID.TID 0000.0001)                 1.400000000000000E+02,      /* K =  4 */
(PID.TID 0000.0001)                 1.900000000000000E+02,      /* K =  5 */
(PID.TID 0000.0001)                 2.400000000000000E+02,      /* K =  6 */
(PID.TID 0000.0001)                 2.900000000000000E+02,      /* K =  7 */
(PID.TID 0000.0001)                 3.400000000000000E+02,      /* K =  8 */
(PID.TID 0000.0001)                 3.900000000000000E+02,      /* K =  9 */
(PID.TID 0000.0001)                 4.400000000000000E+02,      /* K = 10 */
(PID.TID 0000.0001)                 4.900000000000000E+02,      /* K = 11 */
(PID.TID 0000.0001)                 5.400000000000000E+02,      /* K = 12 */
(PID.TID 0000.0001)                 5.900000000000000E+02,      /* K = 13 */
(PID.TID 0000.0001)                 6.400000000000000E+02,      /* K = 14 */
(PID.TID 0000.0001)                 6.900000000000000E+02       /* K = 15 */
(PID.TID 0000.0001)     ;
(PID.TID 0000.0001) radius_fromHorizGrid = /* sphere Radius of input horiz. grid */
(PID.TID 0000.0001)                 6.370000000000000E+06
(PID.TID 0000.0001)     ;
(PID.TID 0000.0001) rSphere =  /* Radius ( ignored - cartesian, m - spherical ) */
(PID.TID 0000.0001)                 6.370000000000000E+06
(PID.TID 0000.0001)     ;
(PID.TID 0000.0001) deepAtmosphere = /* Deep/Shallow Atmosphere flag (True/False) */
(PID.TID 0000.0001)                   F
(PID.TID 0000.0001)     ;
(PID.TID 0000.0001) xC =  /* xC(:,1,:,1) : P-point X coord ( deg. or m if cartesian) */
(PID.TID 0000.0001)                -4.439521994760536E+01,      /* I =  1 */
(PID.TID 0000.0001)                -4.295641272275883E+01,      /* I =  2 */
(PID.TID 0000.0001)                -4.122055553388957E+01,      /* I =  3 */
(PID.TID 0000.0001)      . . .
(PID.TID 0000.0001)                 1.312205555338896E+02,      /* I = 94 */
(PID.TID 0000.0001)                 1.329564127227588E+02,      /* I = 95 */
(PID.TID 0000.0001)                 1.343952199476053E+02,      /* I = 96 */
(PID.TID 0000.0001)                 4.635509675007168E+01,      /* I = 97 */
(PID.TID 0000.0001)                 4.906731228843647E+01,      /* I = 98 */
(PID.TID 0000.0001)                 5.178550688214704E+01,      /* I = 99 */
(PID.TID 0000.0001)      . . .
(PID.TID 0000.0001)                -1.778001716525716E+02,      /* I =190 */
(PID.TID 0000.0001)                -1.779288225675308E+02,      /* I =191 */
(PID.TID 0000.0001)                -1.780367200854751E+02,      /* I =192 */
(PID.TID 0000.0001)                 1.356047800523947E+02,      /* I =193 */
(PID.TID 0000.0001)                 1.358367907661329E+02,      /* I =194 */
(PID.TID 0000.0001)                 1.359720382181193E+02,      /* I =195 */
(PID.TID 0000.0001)      . . .
(PID.TID 0000.0001)                -1.340279617818807E+02,      /* I =286 */
(PID.TID 0000.0001)                -1.341632092338671E+02,      /* I =287 */
(PID.TID 0000.0001)                -1.343952199476053E+02,      /* I =288 */
(PID.TID 0000.0001)                -8.812739148696656E+01,      /* I =289 */
(PID.TID 0000.0001)                -8.820362659721324E+01,      /* I =290 */
(PID.TID 0000.0001)                -8.826768106944316E+01,      /* I =291 */
(PID.TID 0000.0001)      . . .
(PID.TID 0000.0001)                 8.780017165257156E+01,      /* I =382 */
(PID.TID 0000.0001)                 8.792882256753080E+01,      /* I =383 */
(PID.TID 0000.0001)                 8.803672008547504E+01       /* I =384 */
(PID.TID 0000.0001)     ;
(PID.TID 0000.0001) yC =  /* yC(1,:,1,:) : P-point Y coord ( deg. or m if cartesian) */
(PID.TID 0000.0001)                -3.497677942598243E+01,      /* J =  1 */
(PID.TID 0000.0001)                -3.374005967394886E+01,      /* J =  2 */
(PID.TID 0000.0001)                -3.220655175667454E+01,      /* J =  3 */
(PID.TID 0000.0001)                -3.045756348838641E+01,      /* J =  4 */
(PID.TID 0000.0001)                -2.853728129852918E+01,      /* J =  5 */
(PID.TID 0000.0001)                -2.647426640173173E+01,      /* J =  6 */
(PID.TID 0000.0001)                -2.428936657094636E+01,      /* J =  7 */
(PID.TID 0000.0001)                -2.199915808312262E+01,      /* J =  8 */
(PID.TID 0000.0001)                -1.961768597440146E+01,      /* J =  9 */
(PID.TID 0000.0001)                -1.715743888281371E+01,      /* J = 10 */
(PID.TID 0000.0001)                -1.462993396899330E+01,      /* J = 11 */
(PID.TID 0000.0001)                -1.204608340464756E+01,      /* J = 12 */
(PID.TID 0000.0001)                -9.416429130284818E+00,      /* J = 13 */
(PID.TID 0000.0001)                -6.751293662992216E+00,      /* J = 14 */
(PID.TID 0000.0001)                -4.060875511835959E+00,      /* J = 15 */
(PID.TID 0000.0001)                -1.355307764409121E+00       /* J = 16 */
(PID.TID 0000.0001)     ;
(PID.TID 0000.0001) rcoord = /* P-point R coordinate (  units of r ) */
(PID.TID 0000.0001)                -2.500000000000000E+01,      /* K =  1 */
(PID.TID 0000.0001)                -8.500000000000000E+01,      /* K =  2 */
(PID.TID 0000.0001)                -1.700000000000000E+02,      /* K =  3 */
(PID.TID 0000.0001)                -2.900000000000000E+02,      /* K =  4 */
(PID.TID 0000.0001)                -4.550000000000000E+02,      /* K =  5 */
(PID.TID 0000.0001)                -6.700000000000000E+02,      /* K =  6 */
(PID.TID 0000.0001)                -9.350000000000000E+02,      /* K =  7 */
(PID.TID 0000.0001)                -1.250000000000000E+03,      /* K =  8 */
(PID.TID 0000.0001)                -1.615000000000000E+03,      /* K =  9 */
(PID.TID 0000.0001)                -2.030000000000000E+03,      /* K = 10 */
(PID.TID 0000.0001)                -2.495000000000000E+03,      /* K = 11 */
(PID.TID 0000.0001)                -3.010000000000000E+03,      /* K = 12 */
(PID.TID 0000.0001)                -3.575000000000000E+03,      /* K = 13 */
(PID.TID 0000.0001)                -4.190000000000000E+03,      /* K = 14 */
(PID.TID 0000.0001)                -4.855000000000000E+03       /* K = 15 */
(PID.TID 0000.0001)     ;
(PID.TID 0000.0001) rF =   /* W-Interf. R coordinate (  units of r ) */
(PID.TID 0000.0001)                 0.000000000000000E+00,      /* K =  1 */
(PID.TID 0000.0001)                -5.000000000000000E+01,      /* K =  2 */
(PID.TID 0000.0001)                -1.200000000000000E+02,      /* K =  3 */
(PID.TID 0000.0001)                -2.200000000000000E+02,      /* K =  4 */
(PID.TID 0000.0001)                -3.600000000000000E+02,      /* K =  5 */
(PID.TID 0000.0001)                -5.500000000000000E+02,      /* K =  6 */
(PID.TID 0000.0001)                -7.900000000000000E+02,      /* K =  7 */
(PID.TID 0000.0001)                -1.080000000000000E+03,      /* K =  8 */
(PID.TID 0000.0001)                -1.420000000000000E+03,      /* K =  9 */
(PID.TID 0000.0001)                -1.810000000000000E+03,      /* K = 10 */
(PID.TID 0000.0001)                -2.250000000000000E+03,      /* K = 11 */
(PID.TID 0000.0001)                -2.740000000000000E+03,      /* K = 12 */
(PID.TID 0000.0001)                -3.280000000000000E+03,      /* K = 13 */
(PID.TID 0000.0001)                -3.870000000000000E+03,      /* K = 14 */
(PID.TID 0000.0001)                -4.510000000000000E+03,      /* K = 15 */
(PID.TID 0000.0001)                -5.200000000000000E+03       /* K = 16 */
(PID.TID 0000.0001)     ;
(PID.TID 0000.0001) deepFacC = /* deep-model grid factor @ cell-Center (-) */
(PID.TID 0000.0001)    15 @  1.000000000000000E+00              /* K =  1: 15 */
(PID.TID 0000.0001)     ;
(PID.TID 0000.0001) deepFacF = /* deep-model grid factor @ W-Interface (-) */
(PID.TID 0000.0001)    16 @  1.000000000000000E+00              /* K =  1: 16 */
(PID.TID 0000.0001)     ;
(PID.TID 0000.0001) rVel2wUnit = /* convert units: rVel -> wSpeed (=1 if z-coord)*/
(PID.TID 0000.0001)    16 @  1.000000000000000E+00              /* K =  1: 16 */
(PID.TID 0000.0001)     ;
(PID.TID 0000.0001) wUnit2rVel = /* convert units: wSpeed -> rVel (=1 if z-coord)*/
(PID.TID 0000.0001)    16 @  1.000000000000000E+00              /* K =  1: 16 */
(PID.TID 0000.0001)     ;
(PID.TID 0000.0001) dBdrRef = /* Vertical grad. of reference buoyancy [(m/s/r)^2] */
(PID.TID 0000.0001)    15 @  0.000000000000000E+00              /* K =  1: 15 */
(PID.TID 0000.0001)     ;
(PID.TID 0000.0001) rotateGrid = /* use rotated grid ( True/False ) */
(PID.TID 0000.0001)                   F
(PID.TID 0000.0001)     ;
(PID.TID 0000.0001) phiEuler = /* Euler angle, rotation about original z-coordinate [rad] */
(PID.TID 0000.0001)                 0.000000000000000E+00
(PID.TID 0000.0001)     ;
(PID.TID 0000.0001) thetaEuler = /* Euler angle, rotation about new x-coordinate [rad] */
(PID.TID 0000.0001)                 0.000000000000000E+00
(PID.TID 0000.0001)     ;
(PID.TID 0000.0001) psiEuler = /* Euler angle, rotation about new z-coordinate [rad] */
(PID.TID 0000.0001)                 0.000000000000000E+00
(PID.TID 0000.0001)     ;
(PID.TID 0000.0001) dxF =  /* dxF(:,1,:,1) ( units: m ) */
(PID.TID 0000.0001)                 1.202082051331828E+05,      /* I =  1 */
(PID.TID 0000.0001)                 1.563594089971120E+05,      /* I =  2 */
(PID.TID 0000.0001)                 1.835530058121492E+05,      /* I =  3 */
(PID.TID 0000.0001)      . . .
(PID.TID 0000.0001)                 1.835530058121492E+05,      /* I = 94 */
(PID.TID 0000.0001)                 1.563594089971120E+05,      /* I = 95 */
(PID.TID 0000.0001)                 1.202082051331828E+05,      /* I = 96 */
(PID.TID 0000.0001)                 3.012844832048790E+05,      /* I = 97 */
(PID.TID 0000.0001)                 3.017314519159184E+05,      /* I = 98 */
(PID.TID 0000.0001)                 3.026061571839506E+05,      /* I = 99 */
(PID.TID 0000.0001)      . . .
(PID.TID 0000.0001)                 3.026061571839506E+05,      /* I =190 */
(PID.TID 0000.0001)                 3.017314519159184E+05,      /* I =191 */
(PID.TID 0000.0001)                 3.012844832048790E+05,      /* I =192 */
(PID.TID 0000.0001)                 1.202082051331828E+05,      /* I =193 */
(PID.TID 0000.0001)                 1.563594089971120E+05,      /* I =194 */
(PID.TID 0000.0001)                 1.835530058121492E+05,      /* I =195 */
(PID.TID 0000.0001)      . . .
(PID.TID 0000.0001)                 1.835530058121492E+05,      /* I =286 */
(PID.TID 0000.0001)                 1.563594089971120E+05,      /* I =287 */
(PID.TID 0000.0001)                 1.202082051331828E+05,      /* I =288 */
(PID.TID 0000.0001)                 3.012844832048790E+05,      /* I =289 */
(PID.TID 0000.0001)                 3.017314519159184E+05,      /* I =290 */
(PID.TID 0000.0001)                 3.026061571839506E+05,      /* I =291 */
(PID.TID 0000.0001)      . . .
(PID.TID 0000.0001)                 3.026061571839506E+05,      /* I =382 */
(PID.TID 0000.0001)                 3.017314519159184E+05,      /* I =383 */
(PID.TID 0000.0001)                 3.012844832048790E+05       /* I =384 */
(PID.TID 0000.0001)     ;
(PID.TID 0000.0001) dxF =  /* dxF(1,:,1,:) ( units: m ) */
(PID.TID 0000.0001)                 1.202082051331828E+05,      /* J =  1 */
(PID.TID 0000.0001)                 1.572908084538706E+05,      /* J =  2 */
(PID.TID 0000.0001)                 1.840412227747703E+05,      /* J =  3 */
(PID.TID 0000.0001)                 2.048868197919576E+05,      /* J =  4 */
(PID.TID 0000.0001)                 2.220405216043041E+05,      /* J =  5 */
(PID.TID 0000.0001)                 2.365892017348392E+05,      /* J =  6 */
(PID.TID 0000.0001)                 2.491250781852558E+05,      /* J =  7 */
(PID.TID 0000.0001)                 2.599949918261881E+05,      /* J =  8 */
(PID.TID 0000.0001)                 2.694110134598581E+05,      /* J =  9 */
(PID.TID 0000.0001)                 2.775055554645015E+05,      /* J = 10 */
(PID.TID 0000.0001)                 2.843615645344775E+05,      /* J = 11 */
(PID.TID 0000.0001)                 2.900303768613599E+05,      /* J = 12 */
(PID.TID 0000.0001)                 2.945429307892709E+05,      /* J = 13 */
(PID.TID 0000.0001)                 2.979171143158405E+05,      /* J = 14 */
(PID.TID 0000.0001)                 3.001626787528886E+05,      /* J = 15 */
(PID.TID 0000.0001)                 3.012844832048790E+05       /* J = 16 */
(PID.TID 0000.0001)     ;
(PID.TID 0000.0001) dyF =  /* dyF(:,1,:,1) ( units: m ) */
(PID.TID 0000.0001)                 1.202082051331828E+05,      /* I =  1 */
(PID.TID 0000.0001)                 1.572908084538706E+05,      /* I =  2 */
(PID.TID 0000.0001)                 1.840412227747703E+05,      /* I =  3 */
(PID.TID 0000.0001)      . . .
(PID.TID 0000.0001)                 1.840412227747703E+05,      /* I = 94 */
(PID.TID 0000.0001)                 1.572908084538706E+05,      /* I = 95 */
(PID.TID 0000.0001)                 1.202082051331828E+05,      /* I = 96 */
(PID.TID 0000.0001)                 3.012190981969055E+05,      /* I = 97 */
(PID.TID 0000.0001)                 3.016675528553907E+05,      /* I = 98 */
(PID.TID 0000.0001)                 3.025451404065074E+05,      /* I = 99 */
(PID.TID 0000.0001)      . . .
(PID.TID 0000.0001)                 3.025451404065074E+05,      /* I =190 */
(PID.TID 0000.0001)                 3.016675528553907E+05,      /* I =191 */
(PID.TID 0000.0001)                 3.012190981969055E+05,      /* I =192 */
(PID.TID 0000.0001)                 1.202082051331828E+05,      /* I =193 */
(PID.TID 0000.0001)                 1.572908084538706E+05,      /* I =194 */
(PID.TID 0000.0001)                 1.840412227747703E+05,      /* I =195 */
(PID.TID 0000.0001)      . . .
(PID.TID 0000.0001)                 1.840412227747703E+05,      /* I =286 */
(PID.TID 0000.0001)                 1.572908084538706E+05,      /* I =287 */
(PID.TID 0000.0001)                 1.202082051331828E+05,      /* I =288 */
(PID.TID 0000.0001)                 3.012190981969055E+05,      /* I =289 */
(PID.TID 0000.0001)                 3.016675528553907E+05,      /* I =290 */
(PID.TID 0000.0001)                 3.025451404065074E+05,      /* I =291 */
(PID.TID 0000.0001)      . . .
(PID.TID 0000.0001)                 3.025451404065074E+05,      /* I =382 */
(PID.TID 0000.0001)                 3.016675528553907E+05,      /* I =383 */
(PID.TID 0000.0001)                 3.012190981969055E+05       /* I =384 */
(PID.TID 0000.0001)     ;
(PID.TID 0000.0001) dyF =  /* dyF(1,:,1,:) ( units: m ) */
(PID.TID 0000.0001)                 1.202082051331828E+05,      /* J =  1 */
(PID.TID 0000.0001)                 1.563594089971120E+05,      /* J =  2 */
(PID.TID 0000.0001)                 1.835530058121492E+05,      /* J =  3 */
(PID.TID 0000.0001)                 2.045883481718707E+05,      /* J =  4 */
(PID.TID 0000.0001)                 2.218350349844185E+05,      /* J =  5 */
(PID.TID 0000.0001)                 2.364352994647058E+05,      /* J =  6 */
(PID.TID 0000.0001)                 2.490022710862746E+05,      /* J =  7 */
(PID.TID 0000.0001)                 2.598919724358304E+05,      /* J =  8 */
(PID.TID 0000.0001)                 2.693210245495156E+05,      /* J =  9 */
(PID.TID 0000.0001)                 2.774243179696503E+05,      /* J = 10 */
(PID.TID 0000.0001)                 2.842862532064524E+05,      /* J = 11 */
(PID.TID 0000.0001)                 2.899590699694043E+05,      /* J = 12 */
(PID.TID 0000.0001)                 2.944742915095688E+05,      /* J = 13 */
(PID.TID 0000.0001)                 2.978501920522794E+05,      /* J = 14 */
(PID.TID 0000.0001)                 3.000967749619962E+05,      /* J = 15 */
(PID.TID 0000.0001)                 3.012190981969055E+05       /* J = 16 */
(PID.TID 0000.0001)     ;
(PID.TID 0000.0001) dxG =  /* dxG(:,1,:,1) ( units: m ) */
(PID.TID 0000.0001)                 1.009837800879055E+05,      /* I =  1 */
(PID.TID 0000.0001)                 1.534505834330338E+05,      /* I =  2 */
(PID.TID 0000.0001)                 1.823321598773926E+05,      /* I =  3 */
(PID.TID 0000.0001)      . . .
(PID.TID 0000.0001)                 1.823321598773926E+05,      /* I = 94 */
(PID.TID 0000.0001)                 1.534505834330338E+05,      /* I = 95 */
(PID.TID 0000.0001)                 1.009837800879055E+05,      /* I = 96 */
(PID.TID 0000.0001)                 3.014246674484008E+05,      /* I = 97 */
(PID.TID 0000.0001)                 3.018694497480782E+05,      /* I = 98 */
(PID.TID 0000.0001)                 3.027399364062562E+05,      /* I = 99 */
(PID.TID 0000.0001)      . . .
(PID.TID 0000.0001)                 3.027399364062562E+05,      /* I =190 */
(PID.TID 0000.0001)                 3.018694497480782E+05,      /* I =191 */
(PID.TID 0000.0001)                 3.014246674484008E+05,      /* I =192 */
(PID.TID 0000.0001)                 1.009837800879055E+05,      /* I =193 */
(PID.TID 0000.0001)                 1.534505834330338E+05,      /* I =194 */
(PID.TID 0000.0001)                 1.823321598773926E+05,      /* I =195 */
(PID.TID 0000.0001)      . . .
(PID.TID 0000.0001)                 1.823321598773926E+05,      /* I =286 */
(PID.TID 0000.0001)                 1.534505834330338E+05,      /* I =287 */
(PID.TID 0000.0001)                 1.009837800879055E+05,      /* I =288 */
(PID.TID 0000.0001)                 3.014246674484008E+05,      /* I =289 */
(PID.TID 0000.0001)                 3.018694497480782E+05,      /* I =290 */
(PID.TID 0000.0001)                 3.027399364062562E+05,      /* I =291 */
(PID.TID 0000.0001)      . . .
(PID.TID 0000.0001)                 3.027399364062562E+05,      /* I =382 */
(PID.TID 0000.0001)                 3.018694497480782E+05,      /* I =383 */
(PID.TID 0000.0001)                 3.014246674484008E+05       /* I =384 */
(PID.TID 0000.0001)     ;
(PID.TID 0000.0001) dxG =  /* dxG(1,:,1,:) ( units: m ) */
(PID.TID 0000.0001)                 1.009837800879055E+05,      /* J =  1 */
(PID.TID 0000.0001)                 1.403701524205398E+05,      /* J =  2 */
(PID.TID 0000.0001)                 1.716197227386011E+05,      /* J =  3 */
(PID.TID 0000.0001)                 1.950254041626018E+05,      /* J =  4 */
(PID.TID 0000.0001)                 2.138410773065497E+05,      /* J =  5 */
(PID.TID 0000.0001)                 2.295958105911512E+05,      /* J =  6 */
(PID.TID 0000.0001)                 2.430829951739083E+05,      /* J =  7 */
(PID.TID 0000.0001)                 2.547526806712889E+05,      /* J =  8 */
(PID.TID 0000.0001)                 2.648750305193301E+05,      /* J =  9 */
(PID.TID 0000.0001)                 2.736173771018112E+05,      /* J = 10 */
(PID.TID 0000.0001)                 2.810845823202647E+05,      /* J = 11 */
(PID.TID 0000.0001)                 2.873420591008078E+05,      /* J = 12 */
(PID.TID 0000.0001)                 2.924298293668651E+05,      /* J = 13 */
(PID.TID 0000.0001)                 2.963715635865306E+05,      /* J = 14 */
(PID.TID 0000.0001)                 2.991805843171258E+05,      /* J = 15 */
(PID.TID 0000.0001)                 3.008638765647886E+05       /* J = 16 */
(PID.TID 0000.0001)     ;
(PID.TID 0000.0001) dyG =  /* dyG(:,1,:,1) ( units: m ) */
(PID.TID 0000.0001)                 1.009837800879055E+05,      /* I =  1 */
(PID.TID 0000.0001)                 1.403701524205398E+05,      /* I =  2 */
(PID.TID 0000.0001)                 1.716197227386011E+05,      /* I =  3 */
(PID.TID 0000.0001)      . . .
(PID.TID 0000.0001)                 1.950254041626018E+05,      /* I = 94 */
(PID.TID 0000.0001)                 1.716197227386011E+05,      /* I = 95 */
(PID.TID 0000.0001)                 1.403701524205398E+05,      /* I = 96 */
(PID.TID 0000.0001)                 3.011625828699101E+05,      /* I = 97 */
(PID.TID 0000.0001)                 3.013880313304323E+05,      /* I = 98 */
(PID.TID 0000.0001)                 3.020546438966793E+05,      /* I = 99 */
(PID.TID 0000.0001)      . . .
(PID.TID 0000.0001)                 3.031337933484788E+05,      /* I =190 */
(PID.TID 0000.0001)                 3.020546438966793E+05,      /* I =191 */
(PID.TID 0000.0001)                 3.013880313304323E+05,      /* I =192 */
(PID.TID 0000.0001)                 1.009837800879055E+05,      /* I =193 */
(PID.TID 0000.0001)                 1.403701524205398E+05,      /* I =194 */
(PID.TID 0000.0001)                 1.716197227386011E+05,      /* I =195 */
(PID.TID 0000.0001)      . . .
(PID.TID 0000.0001)                 1.950254041626018E+05,      /* I =286 */
(PID.TID 0000.0001)                 1.716197227386011E+05,      /* I =287 */
(PID.TID 0000.0001)                 1.403701524205398E+05,      /* I =288 */
(PID.TID 0000.0001)                 3.011625828699101E+05,      /* I =289 */
(PID.TID 0000.0001)                 3.013880313304323E+05,      /* I =290 */
(PID.TID 0000.0001)                 3.020546438966793E+05,      /* I =291 */
(PID.TID 0000.0001)      . . .
(PID.TID 0000.0001)                 3.031337933484788E+05,      /* I =382 */
(PID.TID 0000.0001)                 3.020546438966793E+05,      /* I =383 */
(PID.TID 0000.0001)                 3.013880313304323E+05       /* I =384 */
(PID.TID 0000.0001)     ;
(PID.TID 0000.0001) dyG =  /* dyG(1,:,1,:) ( units: m ) */
(PID.TID 0000.0001)                 1.009837800879055E+05,      /* J =  1 */
(PID.TID 0000.0001)                 1.534505834330338E+05,      /* J =  2 */
(PID.TID 0000.0001)                 1.823321598773926E+05,      /* J =  3 */
(PID.TID 0000.0001)                 2.038999045536999E+05,      /* J =  4 */
(PID.TID 0000.0001)                 2.213884732245467E+05,      /* J =  5 */
(PID.TID 0000.0001)                 2.361211699596122E+05,      /* J =  6 */
(PID.TID 0000.0001)                 2.487693460283865E+05,      /* J =  7 */
(PID.TID 0000.0001)                 2.597126963772147E+05,      /* J =  8 */
(PID.TID 0000.0001)                 2.691790288994575E+05,      /* J =  9 */
(PID.TID 0000.0001)                 2.773091043277394E+05,      /* J = 10 */
(PID.TID 0000.0001)                 2.841906470085516E+05,      /* J = 11 */
(PID.TID 0000.0001)                 2.898778860929753E+05,      /* J = 12 */
(PID.TID 0000.0001)                 2.944035815526416E+05,      /* J = 13 */
(PID.TID 0000.0001)                 2.977867909042096E+05,      /* J = 14 */
(PID.TID 0000.0001)                 3.000380090330854E+05,      /* J = 15 */
(PID.TID 0000.0001)                 3.011625828699101E+05       /* J = 16 */
(PID.TID 0000.0001)     ;
(PID.TID 0000.0001) dxC =  /* dxC(:,1,:,1) ( units: m ) */
(PID.TID 0000.0001)                 1.114203141013064E+05,      /* I =  1 */
(PID.TID 0000.0001)                 1.391343389937106E+05,      /* I =  2 */
(PID.TID 0000.0001)                 1.709574999026266E+05,      /* I =  3 */
(PID.TID 0000.0001)      . . .
(PID.TID 0000.0001)                 1.946503699269892E+05,      /* I = 94 */
(PID.TID 0000.0001)                 1.709574999026266E+05,      /* I = 95 */
(PID.TID 0000.0001)                 1.391343389937106E+05,      /* I = 96 */
(PID.TID 0000.0001)                 3.012281885409289E+05,      /* I = 97 */
(PID.TID 0000.0001)                 3.014528555318499E+05,      /* I = 98 */
(PID.TID 0000.0001)                 3.021172674809921E+05,      /* I = 99 */
(PID.TID 0000.0001)      . . .
(PID.TID 0000.0001)                 3.031928954490276E+05,      /* I =190 */
(PID.TID 0000.0001)                 3.021172674809921E+05,      /* I =191 */
(PID.TID 0000.0001)                 3.014528555318499E+05,      /* I =192 */
(PID.TID 0000.0001)                 1.114203141013064E+05,      /* I =193 */
(PID.TID 0000.0001)                 1.391343389937106E+05,      /* I =194 */
(PID.TID 0000.0001)                 1.709574999026266E+05,      /* I =195 */
(PID.TID 0000.0001)      . . .
(PID.TID 0000.0001)                 1.946503699269892E+05,      /* I =286 */
(PID.TID 0000.0001)                 1.709574999026266E+05,      /* I =287 */
(PID.TID 0000.0001)                 1.391343389937106E+05,      /* I =288 */
(PID.TID 0000.0001)                 3.012281885409289E+05,      /* I =289 */
(PID.TID 0000.0001)                 3.014528555318499E+05,      /* I =290 */
(PID.TID 0000.0001)                 3.021172674809921E+05,      /* I =291 */
(PID.TID 0000.0001)      . . .
(PID.TID 0000.0001)                 3.031928954490276E+05,      /* I =382 */
(PID.TID 0000.0001)                 3.021172674809921E+05,      /* I =383 */
(PID.TID 0000.0001)                 3.014528555318499E+05       /* I =384 */
(PID.TID 0000.0001)     ;
(PID.TID 0000.0001) dxC =  /* dxC(1,:,1,:) ( units: m ) */
(PID.TID 0000.0001)                 1.114203141013064E+05,      /* J =  1 */
(PID.TID 0000.0001)                 1.549545757850771E+05,      /* J =  2 */
(PID.TID 0000.0001)                 1.829777599966776E+05,      /* J =  3 */
(PID.TID 0000.0001)                 2.042717761866506E+05,      /* J =  4 */
(PID.TID 0000.0001)                 2.216367828252819E+05,      /* J =  5 */
(PID.TID 0000.0001)                 2.363029564123586E+05,      /* J =  6 */
(PID.TID 0000.0001)                 2.489113743322025E+05,      /* J =  7 */
(PID.TID 0000.0001)                 2.598293319150326E+05,      /* J =  8 */
(PID.TID 0000.0001)                 2.692787333338535E+05,      /* J =  9 */
(PID.TID 0000.0001)                 2.773972106720365E+05,      /* J = 10 */
(PID.TID 0000.0001)                 2.842706922224557E+05,      /* J = 11 */
(PID.TID 0000.0001)                 2.899523122489403E+05,      /* J = 12 */
(PID.TID 0000.0001)                 2.944741346384699E+05,      /* J = 13 */
(PID.TID 0000.0001)                 2.978547649292580E+05,      /* J = 14 */
(PID.TID 0000.0001)                 3.001044073506459E+05,      /* J = 15 */
(PID.TID 0000.0001)                 3.012281885409289E+05       /* J = 16 */
(PID.TID 0000.0001)     ;
(PID.TID 0000.0001) dyC =  /* dyC(:,1,:,1) ( units: m ) */
(PID.TID 0000.0001)                 1.114203141013064E+05,      /* I =  1 */
(PID.TID 0000.0001)                 1.549545757850771E+05,      /* I =  2 */
(PID.TID 0000.0001)                 1.829777599966776E+05,      /* I =  3 */
(PID.TID 0000.0001)      . . .
(PID.TID 0000.0001)                 1.829777599966776E+05,      /* I = 94 */
(PID.TID 0000.0001)                 1.549545757850771E+05,      /* I = 95 */
(PID.TID 0000.0001)                 1.114203141013064E+05,      /* I = 96 */
(PID.TID 0000.0001)                 3.013593857228136E+05,      /* I = 97 */
(PID.TID 0000.0001)                 3.018056440786431E+05,      /* I = 98 */
(PID.TID 0000.0001)                 3.026789946729719E+05,      /* I = 99 */
(PID.TID 0000.0001)      . . .
(PID.TID 0000.0001)                 3.026789946729719E+05,      /* I =190 */
(PID.TID 0000.0001)                 3.018056440786431E+05,      /* I =191 */
(PID.TID 0000.0001)                 3.013593857228136E+05,      /* I =192 */
(PID.TID 0000.0001)                 1.114203141013064E+05,      /* I =193 */
(PID.TID 0000.0001)                 1.549545757850771E+05,      /* I =194 */
(PID.TID 0000.0001)                 1.829777599966776E+05,      /* I =195 */
(PID.TID 0000.0001)      . . .
(PID.TID 0000.0001)                 1.829777599966776E+05,      /* I =286 */
(PID.TID 0000.0001)                 1.549545757850771E+05,      /* I =287 */
(PID.TID 0000.0001)                 1.114203141013064E+05,      /* I =288 */
(PID.TID 0000.0001)                 3.013593857228136E+05,      /* I =289 */
(PID.TID 0000.0001)                 3.018056440786431E+05,      /* I =290 */
(PID.TID 0000.0001)                 3.026789946729719E+05,      /* I =291 */
(PID.TID 0000.0001)      . . .
(PID.TID 0000.0001)                 3.026789946729719E+05,      /* I =382 */
(PID.TID 0000.0001)                 3.018056440786431E+05,      /* I =383 */
(PID.TID 0000.0001)                 3.013593857228136E+05       /* I =384 */
(PID.TID 0000.0001)     ;
(PID.TID 0000.0001) dyC =  /* dyC(1,:,1,:) ( units: m ) */
(PID.TID 0000.0001)                 1.114203141013064E+05,      /* J =  1 */
(PID.TID 0000.0001)                 1.391343389937106E+05,      /* J =  2 */
(PID.TID 0000.0001)                 1.709574999026266E+05,      /* J =  3 */
(PID.TID 0000.0001)                 1.946503699269892E+05,      /* J =  4 */
(PID.TID 0000.0001)                 2.135964483342134E+05,      /* J =  5 */
(PID.TID 0000.0001)                 2.294195678257306E+05,      /* J =  6 */
(PID.TID 0000.0001)                 2.429464709770498E+05,      /* J =  7 */
(PID.TID 0000.0001)                 2.546408290696998E+05,      /* J =  8 */
(PID.TID 0000.0001)                 2.647791839299727E+05,      /* J =  9 */
(PID.TID 0000.0001)                 2.735321911346108E+05,      /* J = 10 */
(PID.TID 0000.0001)                 2.810065951609633E+05,      /* J = 11 */
(PID.TID 0000.0001)                 2.872689479506990E+05,      /* J = 12 */
(PID.TID 0000.0001)                 2.923599955312932E+05,      /* J = 13 */
(PID.TID 0000.0001)                 2.963038832565530E+05,      /* J = 14 */
(PID.TID 0000.0001)                 2.991142470004740E+05,      /* J = 15 */
(PID.TID 0000.0001)                 3.007982711627968E+05       /* J = 16 */
(PID.TID 0000.0001)     ;
(PID.TID 0000.0001) dxV =  /* dxV(:,1,:,1) ( units: m ) */
(PID.TID 0000.0001)                 8.015229982413632E+04,      /* I =  1 */
(PID.TID 0000.0001)                 1.333130744933864E+05,      /* I =  2 */
(PID.TID 0000.0001)                 1.691744868129062E+05,      /* I =  3 */
(PID.TID 0000.0001)      . . .
(PID.TID 0000.0001)                 1.937548202849060E+05,      /* I = 94 */
(PID.TID 0000.0001)                 1.691744868129062E+05,      /* I = 95 */
(PID.TID 0000.0001)                 1.333130744933864E+05,      /* I = 96 */
(PID.TID 0000.0001)                 3.013686170436881E+05,      /* I = 97 */
(PID.TID 0000.0001)                 3.015922136961168E+05,      /* I = 98 */
(PID.TID 0000.0001)                 3.022533948177109E+05,      /* I = 99 */
(PID.TID 0000.0001)      . . .
(PID.TID 0000.0001)                 3.033238888442880E+05,      /* I =190 */
(PID.TID 0000.0001)                 3.022533948177109E+05,      /* I =191 */
(PID.TID 0000.0001)                 3.015922136961168E+05,      /* I =192 */
(PID.TID 0000.0001)                 8.015229982413632E+04,      /* I =193 */
(PID.TID 0000.0001)                 1.333130744933864E+05,      /* I =194 */
(PID.TID 0000.0001)                 1.691744868129062E+05,      /* I =195 */
(PID.TID 0000.0001)      . . .
(PID.TID 0000.0001)                 1.937548202849060E+05,      /* I =286 */
(PID.TID 0000.0001)                 1.691744868129062E+05,      /* I =287 */
(PID.TID 0000.0001)                 1.333130744933864E+05,      /* I =288 */
(PID.TID 0000.0001)                 3.013686170436881E+05,      /* I =289 */
(PID.TID 0000.0001)                 3.015922136961168E+05,      /* I =290 */
(PID.TID 0000.0001)                 3.022533948177109E+05,      /* I =291 */
(PID.TID 0000.0001)      . . .
(PID.TID 0000.0001)                 3.033238888442880E+05,      /* I =382 */
(PID.TID 0000.0001)                 3.022533948177109E+05,      /* I =383 */
(PID.TID 0000.0001)                 3.015922136961168E+05       /* I =384 */
(PID.TID 0000.0001)     ;
(PID.TID 0000.0001) dxV =  /* dxV(1,:,1,:) ( units: m ) */
(PID.TID 0000.0001)                 8.015229982413632E+04,      /* J =  1 */
(PID.TID 0000.0001)                 1.362652340208229E+05,      /* J =  2 */
(PID.TID 0000.0001)                 1.701080315742101E+05,      /* J =  3 */
(PID.TID 0000.0001)                 1.942331448101592E+05,      /* J =  4 */
(PID.TID 0000.0001)                 2.133486626971531E+05,      /* J =  5 */
(PID.TID 0000.0001)                 2.292584591272880E+05,      /* J =  6 */
(PID.TID 0000.0001)                 2.428369969078989E+05,      /* J =  7 */
(PID.TID 0000.0001)                 2.545652950875683E+05,      /* J =  8 */
(PID.TID 0000.0001)                 2.647274964828301E+05,      /* J =  9 */
(PID.TID 0000.0001)                 2.734980225206389E+05,      /* J = 10 */
(PID.TID 0000.0001)                 2.809856491525217E+05,      /* J = 11 */
(PID.TID 0000.0001)                 2.872580915202295E+05,      /* J = 12 */
(PID.TID 0000.0001)                 2.923567890694162E+05,      /* J = 13 */
(PID.TID 0000.0001)                 2.963063101754721E+05,      /* J = 14 */
(PID.TID 0000.0001)                 2.991205495886625E+05,      /* J = 15 */
(PID.TID 0000.0001)                 3.008068453676764E+05       /* J = 16 */
(PID.TID 0000.0001)     ;
(PID.TID 0000.0001) dyU =  /* dyU(:,1,:,1) ( units: m ) */
(PID.TID 0000.0001)                 8.015229982413632E+04,      /* I =  1 */
(PID.TID 0000.0001)                 1.362652340208229E+05,      /* I =  2 */
(PID.TID 0000.0001)                 1.701080315742101E+05,      /* I =  3 */
(PID.TID 0000.0001)      . . .
(PID.TID 0000.0001)                 1.942331448101592E+05,      /* I = 94 */
(PID.TID 0000.0001)                 1.701080315742101E+05,      /* I = 95 */
(PID.TID 0000.0001)                 1.362652340208229E+05,      /* I = 96 */
(PID.TID 0000.0001)                 3.013031486919771E+05,      /* I = 97 */
(PID.TID 0000.0001)                 3.015274890091515E+05,      /* I = 98 */
(PID.TID 0000.0001)                 3.021908563699420E+05,      /* I = 99 */
(PID.TID 0000.0001)      . . .
(PID.TID 0000.0001)                 3.032648502024415E+05,      /* I =190 */
(PID.TID 0000.0001)                 3.021908563699420E+05,      /* I =191 */
(PID.TID 0000.0001)                 3.015274890091515E+05,      /* I =192 */
(PID.TID 0000.0001)                 8.015229982413632E+04,      /* I =193 */
(PID.TID 0000.0001)                 1.362652340208229E+05,      /* I =194 */
(PID.TID 0000.0001)                 1.701080315742101E+05,      /* I =195 */
(PID.TID 0000.0001)      . . .
(PID.TID 0000.0001)                 1.942331448101592E+05,      /* I =286 */
(PID.TID 0000.0001)                 1.701080315742101E+05,      /* I =287 */
(PID.TID 0000.0001)                 1.362652340208229E+05,      /* I =288 */
(PID.TID 0000.0001)                 3.013031486919771E+05,      /* I =289 */
(PID.TID 0000.0001)                 3.015274890091515E+05,      /* I =290 */
(PID.TID 0000.0001)                 3.021908563699420E+05,      /* I =291 */
(PID.TID 0000.0001)      . . .
(PID.TID 0000.0001)                 3.032648502024415E+05,      /* I =382 */
(PID.TID 0000.0001)                 3.021908563699420E+05,      /* I =383 */
(PID.TID 0000.0001)                 3.015274890091515E+05       /* I =384 */
(PID.TID 0000.0001)     ;
(PID.TID 0000.0001) dyU =  /* dyU(1,:,1,:) ( units: m ) */
(PID.TID 0000.0001)                 8.015229982413632E+04,      /* J =  1 */
(PID.TID 0000.0001)                 1.333130744933864E+05,      /* J =  2 */
(PID.TID 0000.0001)                 1.691744868129062E+05,      /* J =  3 */
(PID.TID 0000.0001)                 1.937548202849060E+05,      /* J =  4 */
(PID.TID 0000.0001)                 2.130490056267208E+05,      /* J =  5 */
(PID.TID 0000.0001)                 2.290479919481738E+05,      /* J =  6 */
(PID.TID 0000.0001)                 2.426774358027003E+05,      /* J =  7 */
(PID.TID 0000.0001)                 2.544372984215561E+05,      /* J =  8 */
(PID.TID 0000.0001)                 2.646201463834826E+05,      /* J =  9 */
(PID.TID 0000.0001)                 2.734046499619031E+05,      /* J = 10 */
(PID.TID 0000.0001)                 2.809019351693761E+05,      /* J = 11 */
(PID.TID 0000.0001)                 2.871811105274442E+05,      /* J = 12 */
(PID.TID 0000.0001)                 2.922844849381675E+05,      /* J = 13 */
(PID.TID 0000.0001)                 2.962371870847826E+05,      /* J = 14 */
(PID.TID 0000.0001)                 2.990534755671296E+05,      /* J = 15 */
(PID.TID 0000.0001)                 3.007409169495504E+05       /* J = 16 */
(PID.TID 0000.0001)     ;
(PID.TID 0000.0001) rA  =  /* rA (:,1,:,1) ( units: m^2 ) */
(PID.TID 0000.0001)                 1.401900702255611E+10,      /* I =  1 */
(PID.TID 0000.0001)                 2.459906945574446E+10,      /* I =  2 */
(PID.TID 0000.0001)                 3.378518544307869E+10,      /* I =  3 */
(PID.TID 0000.0001)      . . .
(PID.TID 0000.0001)                 3.378518544304265E+10,      /* I = 94 */
(PID.TID 0000.0001)                 2.459906945574446E+10,      /* I = 95 */
(PID.TID 0000.0001)                 1.401900702259215E+10,      /* I = 96 */
(PID.TID 0000.0001)                 9.076111290422060E+10,      /* I = 97 */
(PID.TID 0000.0001)                 9.103111035233499E+10,      /* I = 98 */
(PID.TID 0000.0001)                 9.156064070993231E+10,      /* I = 99 */
(PID.TID 0000.0001)      . . .
(PID.TID 0000.0001)                 9.156064070993231E+10,      /* I =190 */
(PID.TID 0000.0001)                 9.103111035233499E+10,      /* I =191 */
(PID.TID 0000.0001)                 9.076111290418457E+10,      /* I =192 */
(PID.TID 0000.0001)                 1.401900702255611E+10,      /* I =193 */
(PID.TID 0000.0001)                 2.459906945574446E+10,      /* I =194 */
(PID.TID 0000.0001)                 3.378518544307869E+10,      /* I =195 */
(PID.TID 0000.0001)      . . .
(PID.TID 0000.0001)                 3.378518544304265E+10,      /* I =286 */
(PID.TID 0000.0001)                 2.459906945574446E+10,      /* I =287 */
(PID.TID 0000.0001)                 1.401900702259215E+10,      /* I =288 */
(PID.TID 0000.0001)                 9.076111290422060E+10,      /* I =289 */
(PID.TID 0000.0001)                 9.103111035233499E+10,      /* I =290 */
(PID.TID 0000.0001)                 9.156064070993231E+10,      /* I =291 */
(PID.TID 0000.0001)      . . .
(PID.TID 0000.0001)                 9.156064070993231E+10,      /* I =382 */
(PID.TID 0000.0001)                 9.103111035233499E+10,      /* I =383 */
(PID.TID 0000.0001)                 9.076111290418457E+10       /* I =384 */
(PID.TID 0000.0001)     ;
(PID.TID 0000.0001) rA  =  /* rA (1,:,1,:) ( units: m^2 ) */
(PID.TID 0000.0001)                 1.401900702255611E+10,      /* J =  1 */
(PID.TID 0000.0001)                 2.459906945574446E+10,      /* J =  2 */
(PID.TID 0000.0001)                 3.378518544307869E+10,      /* J =  3 */
(PID.TID 0000.0001)                 4.192037169898667E+10,      /* J =  4 */
(PID.TID 0000.0001)                 4.925938996118163E+10,      /* J =  5 */
(PID.TID 0000.0001)                 5.594154126607553E+10,      /* J =  6 */
(PID.TID 0000.0001)                 6.203683527776127E+10,      /* J =  7 */
(PID.TID 0000.0001)                 6.757541173817516E+10,      /* J =  8 */
(PID.TID 0000.0001)                 7.256353271748119E+10,      /* J =  9 */
(PID.TID 0000.0001)                 7.699293007098555E+10,      /* J = 10 */
(PID.TID 0000.0001)                 8.084683449728902E+10,      /* J = 11 */
(PID.TID 0000.0001)                 8.410423102799828E+10,      /* J = 12 */
(PID.TID 0000.0001)                 8.674306976737517E+10,      /* J = 13 */
(PID.TID 0000.0001)                 8.874277443041928E+10,      /* J = 14 */
(PID.TID 0000.0001)                 9.008620045350865E+10,      /* J = 15 */
(PID.TID 0000.0001)                 9.076111290418457E+10       /* J = 16 */
(PID.TID 0000.0001)     ;
(PID.TID 0000.0001) rAw =  /* rAw(:,1,:,1) ( units: m^2 ) */
(PID.TID 0000.0001)                 1.216690346714270E+10,      /* I =  1 */
(PID.TID 0000.0001)                 1.974052138506315E+10,      /* I =  2 */
(PID.TID 0000.0001)                 2.943712825252015E+10,      /* I =  3 */
(PID.TID 0000.0001)      . . .
(PID.TID 0000.0001)                 3.801790263325260E+10,      /* I = 94 */
(PID.TID 0000.0001)                 2.943712825251114E+10,      /* I = 95 */
(PID.TID 0000.0001)                 1.974052138509018E+10,      /* I = 96 */
(PID.TID 0000.0001)                 9.071447638299399E+10,      /* I = 97 */
(PID.TID 0000.0001)                 9.085012105610597E+10,      /* I = 98 */
(PID.TID 0000.0001)                 9.125179254955583E+10,      /* I = 99 */
(PID.TID 0000.0001)      . . .
(PID.TID 0000.0001)                 9.190392048045309E+10,      /* I =190 */
(PID.TID 0000.0001)                 9.125179254954683E+10,      /* I =191 */
(PID.TID 0000.0001)                 9.085012105606993E+10,      /* I =192 */
(PID.TID 0000.0001)                 1.216690346714270E+10,      /* I =193 */
(PID.TID 0000.0001)                 1.974052138506315E+10,      /* I =194 */
(PID.TID 0000.0001)                 2.943712825252015E+10,      /* I =195 */
(PID.TID 0000.0001)      . . .
(PID.TID 0000.0001)                 3.801790263325260E+10,      /* I =286 */
(PID.TID 0000.0001)                 2.943712825251114E+10,      /* I =287 */
(PID.TID 0000.0001)                 1.974052138509018E+10,      /* I =288 */
(PID.TID 0000.0001)                 9.071447638299399E+10,      /* I =289 */
(PID.TID 0000.0001)                 9.085012105610597E+10,      /* I =290 */
(PID.TID 0000.0001)                 9.125179254955583E+10,      /* I =291 */
(PID.TID 0000.0001)      . . .
(PID.TID 0000.0001)                 9.190392048045309E+10,      /* I =382 */
(PID.TID 0000.0001)                 9.125179254954683E+10,      /* I =383 */
(PID.TID 0000.0001)                 9.085012105606993E+10       /* I =384 */
(PID.TID 0000.0001)     ;
(PID.TID 0000.0001) rAw =  /* rAw(1,:,1,:) ( units: m^2 ) */
(PID.TID 0000.0001)                 1.216690346714270E+10,      /* J =  1 */
(PID.TID 0000.0001)                 2.390126200743558E+10,      /* J =  2 */
(PID.TID 0000.0001)                 3.341968103208270E+10,      /* J =  3 */
(PID.TID 0000.0001)                 4.168532893152940E+10,      /* J =  4 */
(PID.TID 0000.0001)                 4.909074590409593E+10,      /* J =  5 */
(PID.TID 0000.0001)                 5.581203765722643E+10,      /* J =  6 */
(PID.TID 0000.0001)                 6.193257577506788E+10,      /* J =  7 */
(PID.TID 0000.0001)                 6.748840226738273E+10,      /* J =  8 */
(PID.TID 0000.0001)                 7.248875782324815E+10,      /* J =  9 */
(PID.TID 0000.0001)                 7.692702995909871E+10,      /* J = 10 */
(PID.TID 0000.0001)                 8.078743937057304E+10,      /* J = 11 */
(PID.TID 0000.0001)                 8.404959656062837E+10,      /* J = 12 */
(PID.TID 0000.0001)                 8.669186205742538E+10,      /* J = 13 */
(PID.TID 0000.0001)                 8.869393350723613E+10,      /* J = 14 */
(PID.TID 0000.0001)                 9.003884657168852E+10,      /* J = 15 */
(PID.TID 0000.0001)                 9.071447638299399E+10       /* J = 16 */
(PID.TID 0000.0001)     ;
(PID.TID 0000.0001) rAs =  /* rAs(:,1,:,1) ( units: m^2 ) */
(PID.TID 0000.0001)                 1.216690346714270E+10,      /* I =  1 */
(PID.TID 0000.0001)                 2.390126200743558E+10,      /* I =  2 */
(PID.TID 0000.0001)                 3.341968103208270E+10,      /* I =  3 */
(PID.TID 0000.0001)      . . .
(PID.TID 0000.0001)                 3.341968103208270E+10,      /* I = 94 */
(PID.TID 0000.0001)                 2.390126200743558E+10,      /* I = 95 */
(PID.TID 0000.0001)                 1.216690346714270E+10,      /* I = 96 */
(PID.TID 0000.0001)                 9.083293515008307E+10,      /* I = 97 */
(PID.TID 0000.0001)                 9.110170898494536E+10,      /* I = 98 */
(PID.TID 0000.0001)                 9.162886297688426E+10,      /* I = 99 */
(PID.TID 0000.0001)      . . .
(PID.TID 0000.0001)                 9.162886297688426E+10,      /* I =190 */
(PID.TID 0000.0001)                 9.110170898494536E+10,      /* I =191 */
(PID.TID 0000.0001)                 9.083293515008307E+10,      /* I =192 */
(PID.TID 0000.0001)                 1.216690346714270E+10,      /* I =193 */
(PID.TID 0000.0001)                 2.390126200743558E+10,      /* I =194 */
(PID.TID 0000.0001)                 3.341968103208270E+10,      /* I =195 */
(PID.TID 0000.0001)      . . .
(PID.TID 0000.0001)                 3.341968103208270E+10,      /* I =286 */
(PID.TID 0000.0001)                 2.390126200743558E+10,      /* I =287 */
(PID.TID 0000.0001)                 1.216690346714270E+10,      /* I =288 */
(PID.TID 0000.0001)                 9.083293515008307E+10,      /* I =289 */
(PID.TID 0000.0001)                 9.110170898494536E+10,      /* I =290 */
(PID.TID 0000.0001)                 9.162886297688426E+10,      /* I =291 */
(PID.TID 0000.0001)      . . .
(PID.TID 0000.0001)                 9.162886297688426E+10,      /* I =382 */
(PID.TID 0000.0001)                 9.110170898494536E+10,      /* I =383 */
(PID.TID 0000.0001)                 9.083293515008307E+10       /* I =384 */
(PID.TID 0000.0001)     ;
(PID.TID 0000.0001) rAs =  /* rAs(1,:,1,:) ( units: m^2 ) */
(PID.TID 0000.0001)                 1.216690346714270E+10,      /* J =  1 */
(PID.TID 0000.0001)                 1.974052138506315E+10,      /* J =  2 */
(PID.TID 0000.0001)                 2.943712825252015E+10,      /* J =  3 */
(PID.TID 0000.0001)                 3.801790263324359E+10,      /* J =  4 */
(PID.TID 0000.0001)                 4.571243814189866E+10,      /* J =  5 */
(PID.TID 0000.0001)                 5.269930713599979E+10,      /* J =  6 */
(PID.TID 0000.0001)                 5.907428494299063E+10,      /* J =  7 */
(PID.TID 0000.0001)                 6.488320895111514E+10,      /* J =  8 */
(PID.TID 0000.0001)                 7.014205907741882E+10,      /* J =  9 */
(PID.TID 0000.0001)                 7.484854821847499E+10,      /* J = 10 */
(PID.TID 0000.0001)                 7.898934631431560E+10,      /* J = 11 */
(PID.TID 0000.0001)                 8.254500894894537E+10,      /* J = 12 */
(PID.TID 0000.0001)                 8.549360686473492E+10,      /* J = 13 */
(PID.TID 0000.0001)                 8.781353403175085E+10,      /* J = 14 */
(PID.TID 0000.0001)                 8.948571540392021E+10,      /* J = 15 */
(PID.TID 0000.0001)                 9.049530583086168E+10       /* J = 16 */
(PID.TID 0000.0001)     ;
(PID.TID 0000.0001) globalArea = /* Integrated horizontal Area (m^2) */
(PID.TID 0000.0001)                 3.638867375081599E+14
(PID.TID 0000.0001)     ;
(PID.TID 0000.0001) hasWetCSCorners = /* Domain contains CS corners (True/False) */
(PID.TID 0000.0001)                   T
(PID.TID 0000.0001)     ;
(PID.TID 0000.0001) // =======================================================
(PID.TID 0000.0001) // End of Model config. summary
(PID.TID 0000.0001) // =======================================================
(PID.TID 0000.0001) 
(PID.TID 0000.0001) == Packages configuration : Check & print summary ==
(PID.TID 0000.0001) 
(PID.TID 0000.0001) GMREDI_CHECK: #define GMREDI
(PID.TID 0000.0001) GM_AdvForm =     /* if FALSE => use SkewFlux Form */
(PID.TID 0000.0001)                   F
(PID.TID 0000.0001)     ;
(PID.TID 0000.0001) GM_InMomAsStress = /* if TRUE => apply as Eddy Stress */
(PID.TID 0000.0001)                   F
(PID.TID 0000.0001)     ;
(PID.TID 0000.0001) GM_AdvSeparate = /* Calc Bolus & Euler Adv. separately */
(PID.TID 0000.0001)                   F
(PID.TID 0000.0001)     ;
(PID.TID 0000.0001) GM_ExtraDiag =   /* Tensor Extra Diag (line 1&2) non 0 */
(PID.TID 0000.0001)                   F
(PID.TID 0000.0001)     ;
(PID.TID 0000.0001) GM_isopycK =    /* Background Isopyc. Diffusivity [m^2/s] */
(PID.TID 0000.0001)                 1.000000000000000E+03
(PID.TID 0000.0001)     ;
(PID.TID 0000.0001) GM_skewflx*K =  /* Background GM_SkewFlx Diffusivity [m^2/s] */
(PID.TID 0000.0001)                 1.000000000000000E+03
(PID.TID 0000.0001)     ;
(PID.TID 0000.0001) GM_advec*K =    /* Backg. GM-Advec(=Bolus) Diffusivity [m^2/s]*/
(PID.TID 0000.0001)                 0.000000000000000E+00
(PID.TID 0000.0001)     ;
(PID.TID 0000.0001) GM_Kmin_horiz = /* Minimum Horizontal Diffusivity [m^2/s] */
(PID.TID 0000.0001)                 5.000000000000000E+01
(PID.TID 0000.0001)     ;
(PID.TID 0000.0001) GM_Visbeck_alpha = /* Visbeck alpha coeff. [-] */
(PID.TID 0000.0001)                 0.000000000000000E+00
(PID.TID 0000.0001)     ;
(PID.TID 0000.0001) GM_Small_Number =  /* epsilon used in slope calc */
(PID.TID 0000.0001)                 9.999999999999999E-21
(PID.TID 0000.0001)     ;
(PID.TID 0000.0001) GM_slopeSqCutoff = /* Slope^2 cut-off value */
(PID.TID 0000.0001)                 1.000000000000000E+08
(PID.TID 0000.0001)     ;
(PID.TID 0000.0001) GM_taper_scheme =  /* Type of Tapering/Clipping scheme */
(PID.TID 0000.0001)               'dm95                                    '
(PID.TID 0000.0001)     ;
(PID.TID 0000.0001) GM_maxSlope =  /* Maximum Slope (Tapering/Clipping) */
(PID.TID 0000.0001)                 1.000000000000000E-02
(PID.TID 0000.0001)     ;
(PID.TID 0000.0001) GM_facTrL2dz = /* Minimum Trans.Layer Thick. (factor of dz) */
(PID.TID 0000.0001)                 1.000000000000000E+00
(PID.TID 0000.0001)     ;
(PID.TID 0000.0001) GM_facTrL2ML = /* Max.Trans.Layer Thick. (factor of MxL Depth)*/
(PID.TID 0000.0001)                 5.000000000000000E+00
(PID.TID 0000.0001)     ;
(PID.TID 0000.0001) GM_maxTransLay = /* Maximum Transition Layer Thickness [m] */
(PID.TID 0000.0001)                 5.000000000000000E+02
(PID.TID 0000.0001)     ;
(PID.TID 0000.0001) GM_UseBVP = /* if TRUE => use bvp a la Ferrari et al. (2010) */
(PID.TID 0000.0001)                   F
(PID.TID 0000.0001)     ;
(PID.TID 0000.0001) GM_BVP_ModeNumber = /* Vertical mode number for BVP wave speed */
(PID.TID 0000.0001)                       1
(PID.TID 0000.0001)     ;
(PID.TID 0000.0001) GM_BVP_cMin = /* Minimum wave speed for BVP [m/s] */
(PID.TID 0000.0001)                 1.000000000000000E-01
(PID.TID 0000.0001)     ;
(PID.TID 0000.0001) GM_useSubMeso = /* if TRUE => use Sub-Meso param. (B.Fox-Kemper) */
(PID.TID 0000.0001)                   F
(PID.TID 0000.0001)     ;
(PID.TID 0000.0001) subMeso_Ceff = /* efficiency coeff. of Mixed-Layer Eddies [-] */
(PID.TID 0000.0001)                 7.000000000000001E-02
(PID.TID 0000.0001)     ;
(PID.TID 0000.0001) subMeso_invTau = /* inverse of Sub-Meso mixing time-scale [/s] */
(PID.TID 0000.0001)                 2.000000000000000E-06
(PID.TID 0000.0001)     ;
(PID.TID 0000.0001) subMeso_LfMin = /* minimum length-scale "Lf" [m] */
(PID.TID 0000.0001)                 1.000000000000000E+03
(PID.TID 0000.0001)     ;
(PID.TID 0000.0001) subMeso_Lmax = /* maximum grid-scale length [m] */
(PID.TID 0000.0001)                 1.100000000000000E+05
(PID.TID 0000.0001)     ;
(PID.TID 0000.0001) THSICE_CHECK: #define THSICE
(PID.TID 0000.0001) CTRL_CHECK: ctrl package
(PID.TID 0000.0001) COST_CHECK: cost package
(PID.TID 0000.0001) GRDCHK_CHECK: grdchk package
(PID.TID 0000.0001) GAD_CHECK: #define ALLOW_GENERIC_ADVDIFF
(PID.TID 0000.0001) // =======================================================
(PID.TID 0000.0001) // Check Model config. (CONFIG_CHECK):
(PID.TID 0000.0001) // CONFIG_CHECK : Normal End
(PID.TID 0000.0001) // =======================================================
(PID.TID 0000.0001) 
(PID.TID 0000.0001)  nRecords = 123 ; filePrec =  64 ; fileIter =     72000
(PID.TID 0000.0001)     nDims =   2 , dims:
(PID.TID 0000.0001)    1: 192   1 192
(PID.TID 0000.0001)    2:  32   1  32
(PID.TID 0000.0001)     nFlds =  11 , nFl3D =   8 , fields:
(PID.TID 0000.0001)  >Uvel    < >GuNm1   < >Vvel    < >GvNm1   < >Theta   < >GtNm1   < >Salt    < >GsNm1   < >EtaN    < >dEtaHdt < >EtaH    <
(PID.TID 0000.0001)   nTimRec =   0 , timeList:
(PID.TID 0000.0001) READ_MFLDS_3D_RL: read field: "Uvel    ", #   1 in fldList, rec=   1
(PID.TID 0000.0001) READ_MFLDS_3D_RL: read field: "Vvel    ", #   3 in fldList, rec=   3
(PID.TID 0000.0001) READ_MFLDS_3D_RL: read field: "Theta   ", #   5 in fldList, rec=   5
(PID.TID 0000.0001) READ_MFLDS_3D_RL: read field: "Salt    ", #   7 in fldList, rec=   7
(PID.TID 0000.0001) READ_MFLDS_3D_RL: read field: "GuNm1   ", #   2 in fldList, rec=   2
(PID.TID 0000.0001) READ_MFLDS_3D_RL: read field: "GvNm1   ", #   4 in fldList, rec=   4
(PID.TID 0000.0001) READ_MFLDS_3D_RL: read field: "EtaN    ", #   9 in fldList, rec= 121
(PID.TID 0000.0001) READ_MFLDS_3D_RL: read field: "dEtaHdt ", #  10 in fldList, rec= 122
(PID.TID 0000.0001) READ_MFLDS_3D_RL: read field: "EtaH    ", #  11 in fldList, rec= 123
(PID.TID 0000.0001) READ_MFLDS_CHECK: - normal end ; reset MFLDS file-name: pickup.0000072000
(PID.TID 0000.0001) // =======================================================
(PID.TID 0000.0001) // Begin MONITOR dynamic field statistics
(PID.TID 0000.0001) // =======================================================
(PID.TID 0000.0001) %MON time_tsnumber                =                 72000
(PID.TID 0000.0001) %MON time_secondsf                =   6.2208000000000E+09
(PID.TID 0000.0001) %MON dynstat_eta_max              =  -2.2041664480788E+00
(PID.TID 0000.0001) %MON dynstat_eta_min              =  -8.3368186317242E+00
(PID.TID 0000.0001) %MON dynstat_eta_mean             =  -3.2999269019401E+00
(PID.TID 0000.0001) %MON dynstat_eta_sd               =   8.8289254437965E-01
(PID.TID 0000.0001) %MON dynstat_eta_del2             =   2.4546251501318E-03
(PID.TID 0000.0001) %MON dynstat_uvel_max             =   2.1289733821794E-01
(PID.TID 0000.0001) %MON dynstat_uvel_min             =  -2.9128750750933E-01
(PID.TID 0000.0001) %MON dynstat_uvel_mean            =  -5.2860218230237E-04
(PID.TID 0000.0001) %MON dynstat_uvel_sd              =   1.4790330813737E-02
(PID.TID 0000.0001) %MON dynstat_uvel_del2            =   6.8248145743958E-05
(PID.TID 0000.0001) %MON dynstat_vvel_max             =   2.2199184704564E-01
(PID.TID 0000.0001) %MON dynstat_vvel_min             =  -2.0062292421344E-01
(PID.TID 0000.0001) %MON dynstat_vvel_mean            =  -4.0113294365963E-04
(PID.TID 0000.0001) %MON dynstat_vvel_sd              =   1.5242443278796E-02
(PID.TID 0000.0001) %MON dynstat_vvel_del2            =   6.3300374611828E-05
(PID.TID 0000.0001) %MON dynstat_wvel_max             =   1.0124036730755E-04
(PID.TID 0000.0001) %MON dynstat_wvel_min             =  -2.1390857550473E-04
(PID.TID 0000.0001) %MON dynstat_wvel_mean            =   1.8421448772884E-22
(PID.TID 0000.0001) %MON dynstat_wvel_sd              =   5.3719523207710E-06
(PID.TID 0000.0001) %MON dynstat_wvel_del2            =   4.9513639049696E-08
(PID.TID 0000.0001) %MON dynstat_theta_max            =   3.1190145162975E+01
(PID.TID 0000.0001) %MON dynstat_theta_min            =  -2.0000000000000E+00
(PID.TID 0000.0001) %MON dynstat_theta_mean           =   3.0531070632180E+00
(PID.TID 0000.0001) %MON dynstat_theta_sd             =   4.9944713468841E+00
(PID.TID 0000.0001) %MON dynstat_theta_del2           =   2.9528142893868E-03
(PID.TID 0000.0001) %MON dynstat_salt_max             =   5.9479941764493E+01
(PID.TID 0000.0001) %MON dynstat_salt_min             =   1.7775579847672E+01
(PID.TID 0000.0001) %MON dynstat_salt_mean            =   3.4752520111249E+01
(PID.TID 0000.0001) %MON dynstat_salt_sd              =   4.8912632150922E-01
(PID.TID 0000.0001) %MON dynstat_salt_del2            =   1.3623675537366E-03
(PID.TID 0000.0001) %MON forcing_qnet_max             =   0.0000000000000E+00
(PID.TID 0000.0001) %MON forcing_qnet_min             =   0.0000000000000E+00
(PID.TID 0000.0001) %MON forcing_qnet_mean            =   0.0000000000000E+00
(PID.TID 0000.0001) %MON forcing_qnet_sd              =   0.0000000000000E+00
(PID.TID 0000.0001) %MON forcing_qnet_del2            =   0.0000000000000E+00
(PID.TID 0000.0001) %MON forcing_qsw_max              =   0.0000000000000E+00
(PID.TID 0000.0001) %MON forcing_qsw_min              =   0.0000000000000E+00
(PID.TID 0000.0001) %MON forcing_qsw_mean             =   0.0000000000000E+00
(PID.TID 0000.0001) %MON forcing_qsw_sd               =   0.0000000000000E+00
(PID.TID 0000.0001) %MON forcing_qsw_del2             =   0.0000000000000E+00
(PID.TID 0000.0001) %MON forcing_empmr_max            =   0.0000000000000E+00
(PID.TID 0000.0001) %MON forcing_empmr_min            =   0.0000000000000E+00
(PID.TID 0000.0001) %MON forcing_empmr_mean           =   0.0000000000000E+00
(PID.TID 0000.0001) %MON forcing_empmr_sd             =   0.0000000000000E+00
(PID.TID 0000.0001) %MON forcing_empmr_del2           =   0.0000000000000E+00
(PID.TID 0000.0001) %MON forcing_fu_max               =   0.0000000000000E+00
(PID.TID 0000.0001) %MON forcing_fu_min               =   0.0000000000000E+00
(PID.TID 0000.0001) %MON forcing_fu_mean              =   0.0000000000000E+00
(PID.TID 0000.0001) %MON forcing_fu_sd                =   0.0000000000000E+00
(PID.TID 0000.0001) %MON forcing_fu_del2              =   0.0000000000000E+00
(PID.TID 0000.0001) %MON forcing_fv_max               =   0.0000000000000E+00
(PID.TID 0000.0001) %MON forcing_fv_min               =   0.0000000000000E+00
(PID.TID 0000.0001) %MON forcing_fv_mean              =   0.0000000000000E+00
(PID.TID 0000.0001) %MON forcing_fv_sd                =   0.0000000000000E+00
(PID.TID 0000.0001) %MON forcing_fv_del2              =   0.0000000000000E+00
(PID.TID 0000.0001) %MON advcfl_uvel_max              =   8.3923803824552E-02
(PID.TID 0000.0001) %MON advcfl_vvel_max              =   8.3304632405312E-02
(PID.TID 0000.0001) %MON advcfl_wvel_max              =   6.9742267636260E-02
(PID.TID 0000.0001) %MON advcfl_W_hf_max              =   7.7160047546783E-02
(PID.TID 0000.0001) %MON pe_b_mean                    =   1.5559232407148E-02
(PID.TID 0000.0001) %MON ke_max                       =   4.1915507392132E-02
(PID.TID 0000.0001) %MON ke_mean                      =   2.0848176851410E-04
(PID.TID 0000.0001) %MON ke_vol                       =   1.3386015893205E+18
(PID.TID 0000.0001) %MON vort_r_min                   =  -1.2262915518822E-06
(PID.TID 0000.0001) %MON vort_r_max                   =   1.3011966935743E-06
(PID.TID 0000.0001) %MON vort_a_mean                  =  -2.0549865324846E-05
(PID.TID 0000.0001) %MON vort_a_sd                    =   7.5259723723248E-05
(PID.TID 0000.0001) %MON vort_p_mean                  =  -2.4806340990730E-05
(PID.TID 0000.0001) %MON vort_p_sd                    =   1.2827605093522E-04
(PID.TID 0000.0001) %MON surfExpan_theta_mean         =   2.0635497176584E-08
(PID.TID 0000.0001) %MON surfExpan_salt_mean          =   8.6599604852923E-08
(PID.TID 0000.0001) // =======================================================
(PID.TID 0000.0001) // End MONITOR dynamic field statistics
(PID.TID 0000.0001) // =======================================================
(PID.TID 0000.0001) // =======================================================
(PID.TID 0000.0001) // Begin MONITOR Therm.SeaIce statistics
(PID.TID 0000.0001) // =======================================================
(PID.TID 0000.0001) %MON thSI_time_sec                =   6.2208000000000E+09
(PID.TID 0000.0001) %MON thSI_Ice_Area_G              =   1.7206271940734E+13
(PID.TID 0000.0001) %MON thSI_Ice_Area_S              =   5.1016066833079E+12
(PID.TID 0000.0001) %MON thSI_Ice_Area_N              =   1.2104665257426E+13
(PID.TID 0000.0001) %MON thSI_IceH_ave_G              =   1.7800858094400E+00
(PID.TID 0000.0001) %MON thSI_IceH_ave_S              =   1.1728590647515E+00
(PID.TID 0000.0001) %MON thSI_IceH_ave_N              =   2.0360063122466E+00
(PID.TID 0000.0001) %MON thSI_IceH_max_S              =   2.1255881149091E+00
(PID.TID 0000.0001) %MON thSI_IceH_max_N              =   5.2011996894964E+00
(PID.TID 0000.0001) %MON thSI_SnwH_ave_G              =   2.1269949323472E-01
(PID.TID 0000.0001) %MON thSI_SnwH_ave_S              =   1.9888283136179E-01
(PID.TID 0000.0001) %MON thSI_SnwH_ave_N              =   2.1852263439996E-01
(PID.TID 0000.0001) %MON thSI_SnwH_max_S              =   5.9283040406778E-01
(PID.TID 0000.0001) %MON thSI_SnwH_max_N              =   4.1790381367362E-01
(PID.TID 0000.0001) %MON thSI_Tsrf_ave_G              =  -1.8445854447864E+01
(PID.TID 0000.0001) %MON thSI_Tsrf_ave_S              =  -3.8760911421441E-02
(PID.TID 0000.0001) %MON thSI_Tsrf_ave_N              =  -2.6203669258000E+01
(PID.TID 0000.0001) %MON thSI_Tsrf_min_S              =  -5.2845038213976E+00
(PID.TID 0000.0001) %MON thSI_Tsrf_min_N              =  -3.2727398211857E+01
(PID.TID 0000.0001) %MON thSI_Tsrf_max_S              =   0.0000000000000E+00
(PID.TID 0000.0001) %MON thSI_Tsrf_max_N              =  -4.8044712786252E+00
(PID.TID 0000.0001) %MON thSI_Tic1_ave_G              =  -1.0584109855350E+01
(PID.TID 0000.0001) %MON thSI_Tic1_ave_S              =  -1.4295367171650E+00
(PID.TID 0000.0001) %MON thSI_Tic1_ave_N              =  -1.2806698014557E+01
(PID.TID 0000.0001) %MON thSI_Tic1_min_S              =  -2.5949045859691E+00
(PID.TID 0000.0001) %MON thSI_Tic1_min_N              =  -1.8478200386422E+01
(PID.TID 0000.0001) %MON thSI_Tic1_max_S              =  -1.4464428426653E-01
(PID.TID 0000.0001) %MON thSI_Tic1_max_N              =  -3.0301966761158E+00
(PID.TID 0000.0001) %MON thSI_Tic2_ave_G              =  -4.5788968374079E+00
(PID.TID 0000.0001) %MON thSI_Tic2_ave_S              =  -1.6694991036604E+00
(PID.TID 0000.0001) %MON thSI_Tic2_ave_N              =  -5.2852534152454E+00
(PID.TID 0000.0001) %MON thSI_Tic2_min_S              =  -2.1090282405800E+00
(PID.TID 0000.0001) %MON thSI_Tic2_min_N              =  -7.7121049316683E+00
(PID.TID 0000.0001) %MON thSI_Tic2_max_S              =  -9.8260428530282E-01
(PID.TID 0000.0001) %MON thSI_Tic2_max_N              =  -2.2118503675029E+00
(PID.TID 0000.0001) %MON thSI_TotEnerg_G              =  -9.9886623916783E+21
(PID.TID 0000.0001) // =======================================================
(PID.TID 0000.0001) // End MONITOR Therm.SeaIce statistics
(PID.TID 0000.0001) // =======================================================
(PID.TID 0000.0001) whio : write lev 3 rec   1
 BB: not converge: i,j,it,hi=  26   9   5   1       72000    0.398435537
 BB: not converge: Tsf, dTsf=  -13.480309430606207      -0.52556488604372531     
 BB: not converge: flxNet,dFlxT=  -73.550946810577869       -27.648387772720866     
 BB: not converge: i,j,it,hi=  15   6  12   1       72000    0.976808171
 BB: not converge: Tsf, dTsf=  -4.0625086296354231        1.2219951917621812     
 BB: not converge: flxNet,dFlxT=   26.749207585963717       -22.820714164491189     
(PID.TID 0000.0001) SOLVE_FOR_PRESSURE: putPmEinXvector =    F
 cg2d: Sum(rhs),rhsMax =   2.21834535105376E+03  2.10925029947484E+01
(PID.TID 0000.0001)      cg2d_init_res =   2.03397303118949E+00
(PID.TID 0000.0001)      cg2d_iters(min,last) =      -1      71
(PID.TID 0000.0001)      cg2d_last_res =   5.02092382467659E-07
(PID.TID 0000.0001) // =======================================================
(PID.TID 0000.0001) // Begin MONITOR dynamic field statistics
(PID.TID 0000.0001) // =======================================================
(PID.TID 0000.0001) %MON time_tsnumber                =                 72001
(PID.TID 0000.0001) %MON time_secondsf                =   6.2208864000000E+09
(PID.TID 0000.0001) %MON dynstat_eta_max              =  -2.2028494433447E+00
(PID.TID 0000.0001) %MON dynstat_eta_min              =  -8.4520845492529E+00
(PID.TID 0000.0001) %MON dynstat_eta_mean             =  -3.2994404981373E+00
(PID.TID 0000.0001) %MON dynstat_eta_sd               =   8.8378984101885E-01
(PID.TID 0000.0001) %MON dynstat_eta_del2             =   2.9118303110855E-03
(PID.TID 0000.0001) %MON dynstat_uvel_max             =   2.1428713877032E-01
(PID.TID 0000.0001) %MON dynstat_uvel_min             =  -2.9178288979908E-01
(PID.TID 0000.0001) %MON dynstat_uvel_mean            =  -5.2869238773566E-04
(PID.TID 0000.0001) %MON dynstat_uvel_sd              =   1.4805812037455E-02
(PID.TID 0000.0001) %MON dynstat_uvel_del2            =   6.8215774042795E-05
(PID.TID 0000.0001) %MON dynstat_vvel_max             =   2.2204961163376E-01
(PID.TID 0000.0001) %MON dynstat_vvel_min             =  -2.0137998461654E-01
(PID.TID 0000.0001) %MON dynstat_vvel_mean            =  -4.0379975099245E-04
(PID.TID 0000.0001) %MON dynstat_vvel_sd              =   1.5268742887465E-02
(PID.TID 0000.0001) %MON dynstat_vvel_del2            =   6.3249370326865E-05
(PID.TID 0000.0001) %MON dynstat_wvel_max             =   1.0150960727198E-04
(PID.TID 0000.0001) %MON dynstat_wvel_min             =  -2.1385840516303E-04
(PID.TID 0000.0001) %MON dynstat_wvel_mean            =   1.2692258209043E-09
(PID.TID 0000.0001) %MON dynstat_wvel_sd              =   5.3690557153251E-06
(PID.TID 0000.0001) %MON dynstat_wvel_del2            =   4.9492456074398E-08
(PID.TID 0000.0001) %MON dynstat_theta_max            =   3.1195970809163E+01
(PID.TID 0000.0001) %MON dynstat_theta_min            =  -2.1042980661094E+00
(PID.TID 0000.0001) %MON dynstat_theta_mean           =   3.0532696357605E+00
(PID.TID 0000.0001) %MON dynstat_theta_sd             =   4.9947918811846E+00
(PID.TID 0000.0001) %MON dynstat_theta_del2           =   2.9286150259696E-03
(PID.TID 0000.0001) %MON dynstat_salt_max             =   5.9386878799824E+01
(PID.TID 0000.0001) %MON dynstat_salt_min             =   1.7775683469269E+01
(PID.TID 0000.0001) %MON dynstat_salt_mean            =   3.4752515803901E+01
(PID.TID 0000.0001) %MON dynstat_salt_sd              =   4.8904850720620E-01
(PID.TID 0000.0001) %MON dynstat_salt_del2            =   1.3496677305456E-03
(PID.TID 0000.0001) %MON forcing_qnet_max             =   6.0550757976590E+02
(PID.TID 0000.0001) %MON forcing_qnet_min             =  -2.5148286212500E+02
(PID.TID 0000.0001) %MON forcing_qnet_mean            =  -2.8923415033256E+01
(PID.TID 0000.0001) %MON forcing_qnet_sd              =   1.1849230859629E+02
(PID.TID 0000.0001) %MON forcing_qnet_del2            =   9.6049156795124E-01
(PID.TID 0000.0001) %MON forcing_qsw_max              =  -0.0000000000000E+00
(PID.TID 0000.0001) %MON forcing_qsw_min              =  -3.0190327619373E+02
(PID.TID 0000.0001) %MON forcing_qsw_mean             =  -1.8251468295404E+02
(PID.TID 0000.0001) %MON forcing_qsw_sd               =   7.9813795439041E+01
(PID.TID 0000.0001) %MON forcing_qsw_del2             =   3.2745089119568E-01
(PID.TID 0000.0001) %MON forcing_empmr_max            =   6.6423397082720E-04
(PID.TID 0000.0001) %MON forcing_empmr_min            =  -4.3143598003454E-04
(PID.TID 0000.0001) %MON forcing_empmr_mean           =  -5.8267122207404E-06
(PID.TID 0000.0001) %MON forcing_empmr_sd             =   6.0275711132544E-05
(PID.TID 0000.0001) %MON forcing_empmr_del2           =   1.0271182258026E-06
(PID.TID 0000.0001) %MON forcing_fu_max               =   2.4755808644372E-01
(PID.TID 0000.0001) %MON forcing_fu_min               =  -2.0607770640355E-01
(PID.TID 0000.0001) %MON forcing_fu_mean              =  -4.5044017291293E-03
(PID.TID 0000.0001) %MON forcing_fu_sd                =   6.3947166868600E-02
(PID.TID 0000.0001) %MON forcing_fu_del2              =   2.0524826999043E-04
(PID.TID 0000.0001) %MON forcing_fv_max               =   2.5549422200851E-01
(PID.TID 0000.0001) %MON forcing_fv_min               =  -3.2770782795392E-01
(PID.TID 0000.0001) %MON forcing_fv_mean              =  -1.3688427064785E-02
(PID.TID 0000.0001) %MON forcing_fv_sd                =   7.5192943168452E-02
(PID.TID 0000.0001) %MON forcing_fv_del2              =   2.3392164091250E-04
(PID.TID 0000.0001) %MON advcfl_uvel_max              =   8.4355470272345E-02
(PID.TID 0000.0001) %MON advcfl_vvel_max              =   8.3343526482431E-02
(PID.TID 0000.0001) %MON advcfl_wvel_max              =   6.9725910211644E-02
(PID.TID 0000.0001) %MON advcfl_W_hf_max              =   7.7141949838924E-02
(PID.TID 0000.0001) %MON pe_b_mean                    =   1.4344177397965E-02
(PID.TID 0000.0001) %MON ke_max                       =   4.2037013324505E-02
(PID.TID 0000.0001) %MON ke_mean                      =   2.0906556725055E-04
(PID.TID 0000.0001) %MON ke_vol                       =   1.3386016457284E+18
(PID.TID 0000.0001) %MON vort_r_min                   =  -1.2298418800136E-06
(PID.TID 0000.0001) %MON vort_r_max                   =   1.2998246954075E-06
(PID.TID 0000.0001) %MON vort_a_mean                  =  -2.0549865324846E-05
(PID.TID 0000.0001) %MON vort_a_sd                    =   7.5259723664384E-05
(PID.TID 0000.0001) %MON vort_p_mean                  =  -2.4806339598239E-05
(PID.TID 0000.0001) %MON vort_p_sd                    =   1.2827603598875E-04
(PID.TID 0000.0001) %MON surfExpan_theta_mean         =   5.5421560168526E-08
(PID.TID 0000.0001) %MON surfExpan_salt_mean          =   6.1293779313109E-09
(PID.TID 0000.0001) // =======================================================
(PID.TID 0000.0001) // End MONITOR dynamic field statistics
(PID.TID 0000.0001) // =======================================================
(PID.TID 0000.0001) // =======================================================
(PID.TID 0000.0001) // Begin MONITOR Therm.SeaIce statistics
(PID.TID 0000.0001) // =======================================================
(PID.TID 0000.0001) %MON thSI_time_sec                =   6.2208864000000E+09
(PID.TID 0000.0001) %MON thSI_Ice_Area_G              =   1.7096887226170E+13
(PID.TID 0000.0001) %MON thSI_Ice_Area_S              =   4.9190743420143E+12
(PID.TID 0000.0001) %MON thSI_Ice_Area_N              =   1.2177812884156E+13
(PID.TID 0000.0001) %MON thSI_IceH_ave_G              =   1.7892774949075E+00
(PID.TID 0000.0001) %MON thSI_IceH_ave_S              =   1.1806945905735E+00
(PID.TID 0000.0001) %MON thSI_IceH_ave_N              =   2.0351069043569E+00
(PID.TID 0000.0001) %MON thSI_IceH_max_S              =   2.1241174132215E+00
(PID.TID 0000.0001) %MON thSI_IceH_max_N              =   5.2020133884627E+00
(PID.TID 0000.0001) %MON thSI_SnwH_ave_G              =   2.1310533889507E-01
(PID.TID 0000.0001) %MON thSI_SnwH_ave_S              =   1.9648378215709E-01
(PID.TID 0000.0001) %MON thSI_SnwH_ave_N              =   2.1981940767342E-01
(PID.TID 0000.0001) %MON thSI_SnwH_max_S              =   5.8910972562898E-01
(PID.TID 0000.0001) %MON thSI_SnwH_max_N              =   4.2023760353638E-01
(PID.TID 0000.0001) %MON thSI_Tsrf_ave_G              =  -1.8693741150145E+01
(PID.TID 0000.0001) %MON thSI_Tsrf_ave_S              =  -6.1441232969350E-02
(PID.TID 0000.0001) %MON thSI_Tsrf_ave_N              =  -2.6220024344605E+01
(PID.TID 0000.0001) %MON thSI_Tsrf_min_S              =  -4.0625086296354E+00
(PID.TID 0000.0001) %MON thSI_Tsrf_min_N              =  -3.2724548004922E+01
(PID.TID 0000.0001) %MON thSI_Tsrf_max_S              =   0.0000000000000E+00
(PID.TID 0000.0001) %MON thSI_Tsrf_max_N              =  -4.8405839241196E+00
(PID.TID 0000.0001) %MON thSI_Tic1_ave_G              =  -1.0650629812874E+01
(PID.TID 0000.0001) %MON thSI_Tic1_ave_S              =  -1.4082329720367E+00
(PID.TID 0000.0001) %MON thSI_Tic1_ave_N              =  -1.2816582905935E+01
(PID.TID 0000.0001) %MON thSI_Tic1_min_S              =  -2.5553806877411E+00
(PID.TID 0000.0001) %MON thSI_Tic1_min_N              =  -1.8461734414931E+01
(PID.TID 0000.0001) %MON thSI_Tic1_max_S              =  -1.8229328202615E-01
(PID.TID 0000.0001) %MON thSI_Tic1_max_N              =  -2.8387584150119E+00
(PID.TID 0000.0001) %MON thSI_Tic2_ave_G              =  -4.6023690634129E+00
(PID.TID 0000.0001) %MON thSI_Tic2_ave_S              =  -1.6560718902254E+00
(PID.TID 0000.0001) %MON thSI_Tic2_ave_N              =  -5.2928329750194E+00
(PID.TID 0000.0001) %MON thSI_Tic2_min_S              =  -2.0938379652885E+00
(PID.TID 0000.0001) %MON thSI_Tic2_min_N              =  -7.7422040915797E+00
(PID.TID 0000.0001) %MON thSI_Tic2_max_S              =  -9.3347356903221E-01
(PID.TID 0000.0001) %MON thSI_Tic2_max_N              =  -2.1363015445693E+00
(PID.TID 0000.0001) %MON thSI_TotEnerg_G              =  -9.9789501678586E+21
(PID.TID 0000.0001) // =======================================================
(PID.TID 0000.0001) // End MONITOR Therm.SeaIce statistics
(PID.TID 0000.0001) // =======================================================
 cg2d: Sum(rhs),rhsMax =   2.21800836064890E+03  2.12029948324505E+01
(PID.TID 0000.0001)      cg2d_init_res =   1.87001132685465E+01
(PID.TID 0000.0001)      cg2d_iters(min,last) =      -1      74
(PID.TID 0000.0001)      cg2d_last_res =   5.03705418760955E-07
(PID.TID 0000.0001) // =======================================================
(PID.TID 0000.0001) // Begin MONITOR dynamic field statistics
(PID.TID 0000.0001) // =======================================================
(PID.TID 0000.0001) %MON time_tsnumber                =                 72002
(PID.TID 0000.0001) %MON time_secondsf                =   6.2209728000000E+09
(PID.TID 0000.0001) %MON dynstat_eta_max              =  -2.2034264513513E+00
(PID.TID 0000.0001) %MON dynstat_eta_min              =  -8.5121006878377E+00
(PID.TID 0000.0001) %MON dynstat_eta_mean             =  -3.2989392778071E+00
(PID.TID 0000.0001) %MON dynstat_eta_sd               =   8.8351749644711E-01
(PID.TID 0000.0001) %MON dynstat_eta_del2             =   2.9397591095683E-03
(PID.TID 0000.0001) %MON dynstat_uvel_max             =   2.1480297614556E-01
(PID.TID 0000.0001) %MON dynstat_uvel_min             =  -2.9141751982053E-01
(PID.TID 0000.0001) %MON dynstat_uvel_mean            =  -5.2854958124473E-04
(PID.TID 0000.0001) %MON dynstat_uvel_sd              =   1.4804693475323E-02
(PID.TID 0000.0001) %MON dynstat_uvel_del2            =   6.8155207829176E-05
(PID.TID 0000.0001) %MON dynstat_vvel_max             =   2.2155939118867E-01
(PID.TID 0000.0001) %MON dynstat_vvel_min             =  -2.0144456364740E-01
(PID.TID 0000.0001) %MON dynstat_vvel_mean            =  -4.0240266896333E-04
(PID.TID 0000.0001) %MON dynstat_vvel_sd              =   1.5272330119216E-02
(PID.TID 0000.0001) %MON dynstat_vvel_del2            =   6.3166306708776E-05
(PID.TID 0000.0001) %MON dynstat_wvel_max             =   1.0197667945164E-04
(PID.TID 0000.0001) %MON dynstat_wvel_min             =  -2.1428785035673E-04
(PID.TID 0000.0001) %MON dynstat_wvel_mean            =  -5.2031219598349E-10
(PID.TID 0000.0001) %MON dynstat_wvel_sd              =   5.3705424636504E-06
(PID.TID 0000.0001) %MON dynstat_wvel_del2            =   4.9506122180129E-08
(PID.TID 0000.0001) %MON dynstat_theta_max            =   3.1201193386254E+01
(PID.TID 0000.0001) %MON dynstat_theta_min            =  -2.2047064075297E+00
(PID.TID 0000.0001) %MON dynstat_theta_mean           =   3.0534354020350E+00
(PID.TID 0000.0001) %MON dynstat_theta_sd             =   4.9951249040800E+00
(PID.TID 0000.0001) %MON dynstat_theta_del2           =   2.9088387463852E-03
(PID.TID 0000.0001) %MON dynstat_salt_max             =   5.9289756331148E+01
(PID.TID 0000.0001) %MON dynstat_salt_min             =   1.7775781044329E+01
(PID.TID 0000.0001) %MON dynstat_salt_mean            =   3.4752511194490E+01
(PID.TID 0000.0001) %MON dynstat_salt_sd              =   4.8897646908377E-01
(PID.TID 0000.0001) %MON dynstat_salt_del2            =   1.3385950125313E-03
(PID.TID 0000.0001) %MON forcing_qnet_max             =   6.0184220873714E+02
(PID.TID 0000.0001) %MON forcing_qnet_min             =  -2.5112182085942E+02
(PID.TID 0000.0001) %MON forcing_qnet_mean            =  -2.8876433199923E+01
(PID.TID 0000.0001) %MON forcing_qnet_sd              =   1.1829817379195E+02
(PID.TID 0000.0001) %MON forcing_qnet_del2            =   9.3050932594045E-01
(PID.TID 0000.0001) %MON forcing_qsw_max              =  -0.0000000000000E+00
(PID.TID 0000.0001) %MON forcing_qsw_min              =  -3.0189127925792E+02
(PID.TID 0000.0001) %MON forcing_qsw_mean             =  -1.8265786163406E+02
(PID.TID 0000.0001) %MON forcing_qsw_sd               =   7.9748948722840E+01
(PID.TID 0000.0001) %MON forcing_qsw_del2             =   3.2281410864140E-01
(PID.TID 0000.0001) %MON forcing_empmr_max            =   6.3529980675855E-04
(PID.TID 0000.0001) %MON forcing_empmr_min            =  -4.3358235359370E-04
(PID.TID 0000.0001) %MON forcing_empmr_mean           =  -6.0042018717925E-06
(PID.TID 0000.0001) %MON forcing_empmr_sd             =   5.7486870870371E-05
(PID.TID 0000.0001) %MON forcing_empmr_del2           =   9.4294409393853E-07
(PID.TID 0000.0001) %MON forcing_fu_max               =   2.4751003717351E-01
(PID.TID 0000.0001) %MON forcing_fu_min               =  -2.0922350306190E-01
(PID.TID 0000.0001) %MON forcing_fu_mean              =  -4.4609227933959E-03
(PID.TID 0000.0001) %MON forcing_fu_sd                =   6.3970406478471E-02
(PID.TID 0000.0001) %MON forcing_fu_del2              =   2.0564087338622E-04
(PID.TID 0000.0001) %MON forcing_fv_max               =   2.5817746358114E-01
(PID.TID 0000.0001) %MON forcing_fv_min               =  -3.2849573188785E-01
(PID.TID 0000.0001) %MON forcing_fv_mean              =  -1.3692352610712E-02
(PID.TID 0000.0001) %MON forcing_fv_sd                =   7.5242720295677E-02
(PID.TID 0000.0001) %MON forcing_fv_del2              =   2.3430754301775E-04
(PID.TID 0000.0001) %MON advcfl_uvel_max              =   8.4567173644554E-02
(PID.TID 0000.0001) %MON advcfl_vvel_max              =   8.3376940924465E-02
(PID.TID 0000.0001) %MON advcfl_wvel_max              =   6.9865925550271E-02
(PID.TID 0000.0001) %MON advcfl_W_hf_max              =   7.7296825641257E-02
(PID.TID 0000.0001) %MON pe_b_mean                    =   1.4340968740644E-02
(PID.TID 0000.0001) %MON ke_max                       =   4.1911007312157E-02
(PID.TID 0000.0001) %MON ke_mean                      =   2.0910056798872E-04
(PID.TID 0000.0001) %MON ke_vol                       =   1.3386018227243E+18
(PID.TID 0000.0001) %MON vort_r_min                   =  -1.2350051696851E-06
(PID.TID 0000.0001) %MON vort_r_max                   =   1.2981799489875E-06
(PID.TID 0000.0001) %MON vort_a_mean                  =  -2.0549865324846E-05
(PID.TID 0000.0001) %MON vort_a_sd                    =   7.5259723304240E-05
(PID.TID 0000.0001) %MON vort_p_mean                  =  -2.4806337053182E-05
(PID.TID 0000.0001) %MON vort_p_sd                    =   1.2827601176323E-04
(PID.TID 0000.0001) %MON surfExpan_theta_mean         =   2.1410482276366E-08
(PID.TID 0000.0001) %MON surfExpan_salt_mean          =   6.8921402243421E-09
(PID.TID 0000.0001) // =======================================================
(PID.TID 0000.0001) // End MONITOR dynamic field statistics
(PID.TID 0000.0001) // =======================================================
(PID.TID 0000.0001) // =======================================================
(PID.TID 0000.0001) // Begin MONITOR Therm.SeaIce statistics
(PID.TID 0000.0001) // =======================================================
(PID.TID 0000.0001) %MON thSI_time_sec                =   6.2209728000000E+09
(PID.TID 0000.0001) %MON thSI_Ice_Area_G              =   1.7006179765660E+13
(PID.TID 0000.0001) %MON thSI_Ice_Area_S              =   4.7716445356236E+12
(PID.TID 0000.0001) %MON thSI_Ice_Area_N              =   1.2234535230036E+13
(PID.TID 0000.0001) %MON thSI_IceH_ave_G              =   1.7961647608717E+00
(PID.TID 0000.0001) %MON thSI_IceH_ave_S              =   1.1824304551221E+00
(PID.TID 0000.0001) %MON thSI_IceH_ave_N              =   2.0355299587556E+00
(PID.TID 0000.0001) %MON thSI_IceH_max_S              =   2.1226120049748E+00
(PID.TID 0000.0001) %MON thSI_IceH_max_N              =   5.2028421511037E+00
(PID.TID 0000.0001) %MON thSI_SnwH_ave_G              =   2.1342608685903E-01
(PID.TID 0000.0001) %MON thSI_SnwH_ave_S              =   1.9293788037641E-01
(PID.TID 0000.0001) %MON thSI_SnwH_ave_N              =   2.2141678177872E-01
(PID.TID 0000.0001) %MON thSI_SnwH_max_S              =   5.8539510880824E-01
(PID.TID 0000.0001) %MON thSI_SnwH_max_N              =   4.2576895248356E-01
(PID.TID 0000.0001) %MON thSI_Tsrf_ave_G              =  -1.8906518923117E+01
(PID.TID 0000.0001) %MON thSI_Tsrf_ave_S              =  -6.3859692875851E-02
(PID.TID 0000.0001) %MON thSI_Tsrf_ave_N              =  -2.6255426769806E+01
(PID.TID 0000.0001) %MON thSI_Tsrf_min_S              =  -3.9769246964305E+00
(PID.TID 0000.0001) %MON thSI_Tsrf_min_N              =  -3.2721725211981E+01
(PID.TID 0000.0001) %MON thSI_Tsrf_max_S              =   0.0000000000000E+00
(PID.TID 0000.0001) %MON thSI_Tsrf_max_N              =  -4.9103655927047E+00
(PID.TID 0000.0001) %MON thSI_Tic1_ave_G              =  -1.0725043507640E+01
(PID.TID 0000.0001) %MON thSI_Tic1_ave_S              =  -1.3883671191210E+00
(PID.TID 0000.0001) %MON thSI_Tic1_ave_N              =  -1.2840338894153E+01
(PID.TID 0000.0001) %MON thSI_Tic1_min_S              =  -2.5162390682847E+00
(PID.TID 0000.0001) %MON thSI_Tic1_min_N              =  -1.8634048862236E+01
(PID.TID 0000.0001) %MON thSI_Tic1_max_S              =  -1.9787574590142E-01
(PID.TID 0000.0001) %MON thSI_Tic1_max_N              =  -2.7199735335060E+00
(PID.TID 0000.0001) %MON thSI_Tic2_ave_G              =  -4.6350438879119E+00
(PID.TID 0000.0001) %MON thSI_Tic2_ave_S              =  -1.6460190409787E+00
(PID.TID 0000.0001) %MON thSI_Tic2_ave_N              =  -5.3122303090526E+00
(PID.TID 0000.0001) %MON thSI_Tic2_min_S              =  -2.0789743608445E+00
(PID.TID 0000.0001) %MON thSI_Tic2_min_N              =  -7.9554840637012E+00
(PID.TID 0000.0001) %MON thSI_Tic2_max_S              =  -9.5664648199458E-01
(PID.TID 0000.0001) %MON thSI_Tic2_max_N              =  -2.0978705958752E+00
(PID.TID 0000.0001) %MON thSI_TotEnerg_G              =  -9.9666426992966E+21
(PID.TID 0000.0001) // =======================================================
(PID.TID 0000.0001) // End MONITOR Therm.SeaIce statistics
(PID.TID 0000.0001) // =======================================================
 cg2d: Sum(rhs),rhsMax =   2.21766844426785E+03  2.12393113038030E+01
(PID.TID 0000.0001)      cg2d_init_res =   1.91365531969752E+01
(PID.TID 0000.0001)      cg2d_iters(min,last) =      -1      74
(PID.TID 0000.0001)      cg2d_last_res =   4.93809306843626E-07
(PID.TID 0000.0001) // =======================================================
(PID.TID 0000.0001) // Begin MONITOR dynamic field statistics
(PID.TID 0000.0001) // =======================================================
(PID.TID 0000.0001) %MON time_tsnumber                =                 72003
(PID.TID 0000.0001) %MON time_secondsf                =   6.2210592000000E+09
(PID.TID 0000.0001) %MON dynstat_eta_max              =  -2.2041734823417E+00
(PID.TID 0000.0001) %MON dynstat_eta_min              =  -8.5102464772491E+00
(PID.TID 0000.0001) %MON dynstat_eta_mean             =  -3.2984337055467E+00
(PID.TID 0000.0001) %MON dynstat_eta_sd               =   8.8276306445568E-01
(PID.TID 0000.0001) %MON dynstat_eta_del2             =   2.9235155005378E-03
(PID.TID 0000.0001) %MON dynstat_uvel_max             =   2.1512302006467E-01
(PID.TID 0000.0001) %MON dynstat_uvel_min             =  -2.9102756165278E-01
(PID.TID 0000.0001) %MON dynstat_uvel_mean            =  -5.2860281431317E-04
(PID.TID 0000.0001) %MON dynstat_uvel_sd              =   1.4802004279745E-02
(PID.TID 0000.0001) %MON dynstat_uvel_del2            =   6.8095000967243E-05
(PID.TID 0000.0001) %MON dynstat_vvel_max             =   2.2091197072772E-01
(PID.TID 0000.0001) %MON dynstat_vvel_min             =  -2.0150493050134E-01
(PID.TID 0000.0001) %MON dynstat_vvel_mean            =  -4.0102416563376E-04
(PID.TID 0000.0001) %MON dynstat_vvel_sd              =   1.5274785257939E-02
(PID.TID 0000.0001) %MON dynstat_vvel_del2            =   6.3089901937025E-05
(PID.TID 0000.0001) %MON dynstat_wvel_max             =   1.0255767152578E-04
(PID.TID 0000.0001) %MON dynstat_wvel_min             =  -2.1455094278037E-04
(PID.TID 0000.0001) %MON dynstat_wvel_mean            =  -1.9617074506210E-09
(PID.TID 0000.0001) %MON dynstat_wvel_sd              =   5.3738199405927E-06
(PID.TID 0000.0001) %MON dynstat_wvel_del2            =   4.9547278201481E-08
(PID.TID 0000.0001) %MON dynstat_theta_max            =   3.1205861233447E+01
(PID.TID 0000.0001) %MON dynstat_theta_min            =  -2.3013565179434E+00
(PID.TID 0000.0001) %MON dynstat_theta_mean           =   3.0536005213141E+00
(PID.TID 0000.0001) %MON dynstat_theta_sd             =   4.9954596509763E+00
(PID.TID 0000.0001) %MON dynstat_theta_del2           =   2.8948416976988E-03
(PID.TID 0000.0001) %MON dynstat_salt_max             =   5.9184095346391E+01
(PID.TID 0000.0001) %MON dynstat_salt_min             =   1.7775872865115E+01
(PID.TID 0000.0001) %MON dynstat_salt_mean            =   3.4752506390915E+01
(PID.TID 0000.0001) %MON dynstat_salt_sd              =   4.8890299426979E-01
(PID.TID 0000.0001) %MON dynstat_salt_del2            =   1.3285753232024E-03
(PID.TID 0000.0001) %MON forcing_qnet_max             =   6.0345444421843E+02
(PID.TID 0000.0001) %MON forcing_qnet_min             =  -2.5075452715298E+02
(PID.TID 0000.0001) %MON forcing_qnet_mean            =  -2.8769261905279E+01
(PID.TID 0000.0001) %MON forcing_qnet_sd              =   1.1813554295220E+02
(PID.TID 0000.0001) %MON forcing_qnet_del2            =   9.2613640534097E-01
(PID.TID 0000.0001) %MON forcing_qsw_max              =  -0.0000000000000E+00
(PID.TID 0000.0001) %MON forcing_qsw_min              =  -3.0187928232211E+02
(PID.TID 0000.0001) %MON forcing_qsw_mean             =  -1.8277801004644E+02
(PID.TID 0000.0001) %MON forcing_qsw_sd               =   7.9674439612207E+01
(PID.TID 0000.0001) %MON forcing_qsw_del2             =   3.1772736289775E-01
(PID.TID 0000.0001) %MON forcing_empmr_max            =   7.9450005749118E-04
(PID.TID 0000.0001) %MON forcing_empmr_min            =  -4.3573164188320E-04
(PID.TID 0000.0001) %MON forcing_empmr_mean           =  -6.0563343700291E-06
(PID.TID 0000.0001) %MON forcing_empmr_sd             =   5.7820934481218E-05
(PID.TID 0000.0001) %MON forcing_empmr_del2           =   9.4782469304839E-07
(PID.TID 0000.0001) %MON forcing_fu_max               =   2.4746198790331E-01
(PID.TID 0000.0001) %MON forcing_fu_min               =  -2.1236929972025E-01
(PID.TID 0000.0001) %MON forcing_fu_mean              =  -4.4174438576624E-03
(PID.TID 0000.0001) %MON forcing_fu_sd                =   6.4007100989353E-02
(PID.TID 0000.0001) %MON forcing_fu_del2              =   2.0627372714610E-04
(PID.TID 0000.0001) %MON forcing_fv_max               =   2.6086070515377E-01
(PID.TID 0000.0001) %MON forcing_fv_min               =  -3.2928363582178E-01
(PID.TID 0000.0001) %MON forcing_fv_mean              =  -1.3696278156640E-02
(PID.TID 0000.0001) %MON forcing_fv_sd                =   7.5302823094907E-02
(PID.TID 0000.0001) %MON forcing_fv_del2              =   2.3489534074143E-04
(PID.TID 0000.0001) %MON advcfl_uvel_max              =   8.4736307588166E-02
(PID.TID 0000.0001) %MON advcfl_vvel_max              =   8.3404342878828E-02
(PID.TID 0000.0001) %MON advcfl_wvel_max              =   6.9951703608392E-02
(PID.TID 0000.0001) %MON advcfl_W_hf_max              =   7.7391738188360E-02
(PID.TID 0000.0001) %MON pe_b_mean                    =   1.4337182060268E-02
(PID.TID 0000.0001) %MON ke_max                       =   4.1782181910801E-02
(PID.TID 0000.0001) %MON ke_mean                      =   2.0909828483611E-04
(PID.TID 0000.0001) %MON ke_vol                       =   1.3386020051117E+18
(PID.TID 0000.0001) %MON vort_r_min                   =  -1.2404938522754E-06
(PID.TID 0000.0001) %MON vort_r_max                   =   1.2962826921300E-06
(PID.TID 0000.0001) %MON vort_a_mean                  =  -2.0549865324846E-05
(PID.TID 0000.0001) %MON vort_a_sd                    =   7.5259722970666E-05
(PID.TID 0000.0001) %MON vort_p_mean                  =  -2.4806334261676E-05
(PID.TID 0000.0001) %MON vort_p_sd                    =   1.2827598449195E-04
(PID.TID 0000.0001) %MON surfExpan_theta_mean         =  -1.2445979516853E-08
(PID.TID 0000.0001) %MON surfExpan_salt_mean          =   1.1742990470976E-08
(PID.TID 0000.0001) // =======================================================
(PID.TID 0000.0001) // End MONITOR dynamic field statistics
(PID.TID 0000.0001) // =======================================================
(PID.TID 0000.0001) // =======================================================
(PID.TID 0000.0001) // Begin MONITOR Therm.SeaIce statistics
(PID.TID 0000.0001) // =======================================================
(PID.TID 0000.0001) %MON thSI_time_sec                =   6.2210592000000E+09
(PID.TID 0000.0001) %MON thSI_Ice_Area_G              =   1.6908541663572E+13
(PID.TID 0000.0001) %MON thSI_Ice_Area_S              =   4.6154388289485E+12
(PID.TID 0000.0001) %MON thSI_Ice_Area_N              =   1.2293102834623E+13
(PID.TID 0000.0001) %MON thSI_IceH_ave_G              =   1.8036166592847E+00
(PID.TID 0000.0001) %MON thSI_IceH_ave_S              =   1.1860876863500E+00
(PID.TID 0000.0001) %MON thSI_IceH_ave_N              =   2.0354675791074E+00
(PID.TID 0000.0001) %MON thSI_IceH_max_S              =   2.1210726925620E+00
(PID.TID 0000.0001) %MON thSI_IceH_max_N              =   5.2036858702892E+00
(PID.TID 0000.0001) %MON thSI_SnwH_ave_G              =   2.1401302561005E-01
(PID.TID 0000.0001) %MON thSI_SnwH_ave_S              =   1.9012917458037E-01
(PID.TID 0000.0001) %MON thSI_SnwH_ave_N              =   2.2298020459734E-01
(PID.TID 0000.0001) %MON thSI_SnwH_max_S              =   5.8168268083222E-01
(PID.TID 0000.0001) %MON thSI_SnwH_max_N              =   4.3143883006961E-01
(PID.TID 0000.0001) %MON thSI_Tsrf_ave_G              =  -1.9128214177428E+01
(PID.TID 0000.0001) %MON thSI_Tsrf_ave_S              =  -6.5334570720808E-02
(PID.TID 0000.0001) %MON thSI_Tsrf_ave_N              =  -2.6285362044162E+01
(PID.TID 0000.0001) %MON thSI_Tsrf_min_S              =  -4.0131339682563E+00
(PID.TID 0000.0001) %MON thSI_Tsrf_min_N              =  -3.2718932728290E+01
(PID.TID 0000.0001) %MON thSI_Tsrf_max_S              =   0.0000000000000E+00
(PID.TID 0000.0001) %MON thSI_Tsrf_max_N              =  -4.9828486650508E+00
(PID.TID 0000.0001) %MON thSI_Tic1_ave_G              =  -1.0797350125797E+01
(PID.TID 0000.0001) %MON thSI_Tic1_ave_S              =  -1.3696435446492E+00
(PID.TID 0000.0001) %MON thSI_Tic1_ave_N              =  -1.2859927028730E+01
(PID.TID 0000.0001) %MON thSI_Tic1_min_S              =  -2.4803781075271E+00
(PID.TID 0000.0001) %MON thSI_Tic1_min_N              =  -1.8756728355614E+01
(PID.TID 0000.0001) %MON thSI_Tic1_max_S              =  -1.9444658070160E-01
(PID.TID 0000.0001) %MON thSI_Tic1_max_N              =  -2.6390204085421E+00
(PID.TID 0000.0001) %MON thSI_Tic2_ave_G              =  -4.6654203196337E+00
(PID.TID 0000.0001) %MON thSI_Tic2_ave_S              =  -1.6367449679968E+00
(PID.TID 0000.0001) %MON thSI_Tic2_ave_N              =  -5.3280285343674E+00
(PID.TID 0000.0001) %MON thSI_Tic2_min_S              =  -2.0645975255738E+00
(PID.TID 0000.0001) %MON thSI_Tic2_min_N              =  -8.1016161185560E+00
(PID.TID 0000.0001) %MON thSI_Tic2_max_S              =  -9.6801071383969E-01
(PID.TID 0000.0001) %MON thSI_Tic2_max_N              =  -2.0694482035312E+00
(PID.TID 0000.0001) %MON thSI_TotEnerg_G              =  -9.9532198283901E+21
(PID.TID 0000.0001) // =======================================================
(PID.TID 0000.0001) // End MONITOR Therm.SeaIce statistics
(PID.TID 0000.0001) // =======================================================
 cg2d: Sum(rhs),rhsMax =   2.21734622765936E+03  2.12960813098568E+01
(PID.TID 0000.0001)      cg2d_init_res =   1.90996188664347E+01
(PID.TID 0000.0001)      cg2d_iters(min,last) =      -1      74
(PID.TID 0000.0001)      cg2d_last_res =   4.58044518193907E-07
(PID.TID 0000.0001) // =======================================================
(PID.TID 0000.0001) // Begin MONITOR dynamic field statistics
(PID.TID 0000.0001) // =======================================================
(PID.TID 0000.0001) %MON time_tsnumber                =                 72004
(PID.TID 0000.0001) %MON time_secondsf                =   6.2211456000000E+09
(PID.TID 0000.0001) %MON dynstat_eta_max              =  -2.2047486283364E+00
(PID.TID 0000.0001) %MON dynstat_eta_min              =  -8.4902889245776E+00
(PID.TID 0000.0001) %MON dynstat_eta_mean             =  -3.2979544589196E+00
(PID.TID 0000.0001) %MON dynstat_eta_sd               =   8.8191775512968E-01
(PID.TID 0000.0001) %MON dynstat_eta_del2             =   2.9014882048827E-03
(PID.TID 0000.0001) %MON dynstat_uvel_max             =   2.1535891965683E-01
(PID.TID 0000.0001) %MON dynstat_uvel_min             =  -2.9061234002111E-01
(PID.TID 0000.0001) %MON dynstat_uvel_mean            =  -5.2854111652724E-04
(PID.TID 0000.0001) %MON dynstat_uvel_sd              =   1.4799135030985E-02
(PID.TID 0000.0001) %MON dynstat_uvel_del2            =   6.8034916304742E-05
(PID.TID 0000.0001) %MON dynstat_vvel_max             =   2.2016543836103E-01
(PID.TID 0000.0001) %MON dynstat_vvel_min             =  -2.0156041843907E-01
(PID.TID 0000.0001) %MON dynstat_vvel_mean            =  -3.9969018334138E-04
(PID.TID 0000.0001) %MON dynstat_vvel_sd              =   1.5277063638035E-02
(PID.TID 0000.0001) %MON dynstat_vvel_del2            =   6.3017403703103E-05
(PID.TID 0000.0001) %MON dynstat_wvel_max             =   1.0323466377036E-04
(PID.TID 0000.0001) %MON dynstat_wvel_min             =  -2.1473721038567E-04
(PID.TID 0000.0001) %MON dynstat_wvel_mean            =  -2.5499046627058E-09
(PID.TID 0000.0001) %MON dynstat_wvel_sd              =   5.3780437935870E-06
(PID.TID 0000.0001) %MON dynstat_wvel_del2            =   4.9597615781606E-08
(PID.TID 0000.0001) %MON dynstat_theta_max            =   3.1209995823762E+01
(PID.TID 0000.0001) %MON dynstat_theta_min            =  -2.3943930242019E+00
(PID.TID 0000.0001) %MON dynstat_theta_mean           =   3.0537652845043E+00
(PID.TID 0000.0001) %MON dynstat_theta_sd             =   4.9957981518973E+00
(PID.TID 0000.0001) %MON dynstat_theta_del2           =   2.8780532592595E-03
(PID.TID 0000.0001) %MON dynstat_salt_max             =   5.9074800425423E+01
(PID.TID 0000.0001) %MON dynstat_salt_min             =   1.7775958682385E+01
(PID.TID 0000.0001) %MON dynstat_salt_mean            =   3.4752501899889E+01
(PID.TID 0000.0001) %MON dynstat_salt_sd              =   4.8883240375065E-01
(PID.TID 0000.0001) %MON dynstat_salt_del2            =   1.3187726133978E-03
(PID.TID 0000.0001) %MON forcing_qnet_max             =   6.0313150741193E+02
(PID.TID 0000.0001) %MON forcing_qnet_min             =  -2.5038161324439E+02
(PID.TID 0000.0001) %MON forcing_qnet_mean            =  -2.8773357704786E+01
(PID.TID 0000.0001) %MON forcing_qnet_sd              =   1.1821326799820E+02
(PID.TID 0000.0001) %MON forcing_qnet_del2            =   9.2570532074228E-01
(PID.TID 0000.0001) %MON forcing_qsw_max              =  -0.0000000000000E+00
(PID.TID 0000.0001) %MON forcing_qsw_min              =  -3.0186728538630E+02
(PID.TID 0000.0001) %MON forcing_qsw_mean             =  -1.8290281516353E+02
(PID.TID 0000.0001) %MON forcing_qsw_sd               =   7.9614686221321E+01
(PID.TID 0000.0001) %MON forcing_qsw_del2             =   3.1506928066335E-01
(PID.TID 0000.0001) %MON forcing_empmr_max            =   8.0165373251019E-04
(PID.TID 0000.0001) %MON forcing_empmr_min            =  -4.3788325585400E-04
(PID.TID 0000.0001) %MON forcing_empmr_mean           =  -5.7409752203990E-06
(PID.TID 0000.0001) %MON forcing_empmr_sd             =   5.5918126055176E-05
(PID.TID 0000.0001) %MON forcing_empmr_del2           =   8.8951040101894E-07
(PID.TID 0000.0001) %MON forcing_fu_max               =   2.4741393863310E-01
(PID.TID 0000.0001) %MON forcing_fu_min               =  -2.1551509637860E-01
(PID.TID 0000.0001) %MON forcing_fu_mean              =  -4.3739649219290E-03
(PID.TID 0000.0001) %MON forcing_fu_sd                =   6.4057227278753E-02
(PID.TID 0000.0001) %MON forcing_fu_del2              =   2.0714462929353E-04
(PID.TID 0000.0001) %MON forcing_fv_max               =   2.6354394672640E-01
(PID.TID 0000.0001) %MON forcing_fv_min               =  -3.3007153975572E-01
(PID.TID 0000.0001) %MON forcing_fv_mean              =  -1.3700203702567E-02
(PID.TID 0000.0001) %MON forcing_fv_sd                =   7.5373226864996E-02
(PID.TID 0000.0001) %MON forcing_fv_del2              =   2.3568352349763E-04
(PID.TID 0000.0001) %MON advcfl_uvel_max              =   8.4901178150613E-02
(PID.TID 0000.0001) %MON advcfl_vvel_max              =   8.3421946418107E-02
(PID.TID 0000.0001) %MON advcfl_wvel_max              =   7.0012433876687E-02
(PID.TID 0000.0001) %MON advcfl_W_hf_max              =   7.7459013177733E-02
(PID.TID 0000.0001) %MON pe_b_mean                    =   1.4333176715802E-02
(PID.TID 0000.0001) %MON ke_max                       =   4.1649513701015E-02
(PID.TID 0000.0001) %MON ke_mean                      =   2.0909102972545E-04
(PID.TID 0000.0001) %MON ke_vol                       =   1.3386021890828E+18
(PID.TID 0000.0001) %MON vort_r_min                   =  -1.2461985968160E-06
(PID.TID 0000.0001) %MON vort_r_max                   =   1.2941787145360E-06
(PID.TID 0000.0001) %MON vort_a_mean                  =  -2.0549865324846E-05
(PID.TID 0000.0001) %MON vort_a_sd                    =   7.5259722690853E-05
(PID.TID 0000.0001) %MON vort_p_mean                  =  -2.4806331041044E-05
(PID.TID 0000.0001) %MON vort_p_sd                    =   1.2827595213836E-04
(PID.TID 0000.0001) %MON surfExpan_theta_mean         =  -3.0869867150631E-08
(PID.TID 0000.0001) %MON surfExpan_salt_mean          =   1.4987627555311E-08
(PID.TID 0000.0001) // =======================================================
(PID.TID 0000.0001) // End MONITOR dynamic field statistics
(PID.TID 0000.0001) // =======================================================
(PID.TID 0000.0001) // =======================================================
(PID.TID 0000.0001) // Begin MONITOR Therm.SeaIce statistics
(PID.TID 0000.0001) // =======================================================
(PID.TID 0000.0001) %MON thSI_time_sec                =   6.2211456000000E+09
(PID.TID 0000.0001) %MON thSI_Ice_Area_G              =   1.6835833456983E+13
(PID.TID 0000.0001) %MON thSI_Ice_Area_S              =   4.4889575974085E+12
(PID.TID 0000.0001) %MON thSI_Ice_Area_N              =   1.2346875859575E+13
(PID.TID 0000.0001) %MON thSI_IceH_ave_G              =   1.8089527141328E+00
(PID.TID 0000.0001) %MON thSI_IceH_ave_S              =   1.1849823909232E+00
(PID.TID 0000.0001) %MON thSI_IceH_ave_N              =   2.0358098037145E+00
(PID.TID 0000.0001) %MON thSI_IceH_max_S              =   2.1195002960443E+00
(PID.TID 0000.0001) %MON thSI_IceH_max_N              =   5.2045443637199E+00
(PID.TID 0000.0001) %MON thSI_SnwH_ave_G              =   2.1454947621081E-01
(PID.TID 0000.0001) %MON thSI_SnwH_ave_S              =   1.8682114925554E-01
(PID.TID 0000.0001) %MON thSI_SnwH_ave_N              =   2.2463067289286E-01
(PID.TID 0000.0001) %MON thSI_SnwH_max_S              =   5.7797220559947E-01
(PID.TID 0000.0001) %MON thSI_SnwH_max_N              =   4.3720774327712E-01
(PID.TID 0000.0001) %MON thSI_Tsrf_ave_G              =  -1.9317975976102E+01
(PID.TID 0000.0001) %MON thSI_Tsrf_ave_S              =  -6.7713628218199E-02
(PID.TID 0000.0001) %MON thSI_Tsrf_ave_N              =  -2.6316800002637E+01
(PID.TID 0000.0001) %MON thSI_Tsrf_min_S              =  -4.0632979228887E+00
(PID.TID 0000.0001) %MON thSI_Tsrf_min_N              =  -3.2716173610868E+01
(PID.TID 0000.0001) %MON thSI_Tsrf_max_S              =   0.0000000000000E+00
(PID.TID 0000.0001) %MON thSI_Tsrf_max_N              =  -5.0570307265663E+00
(PID.TID 0000.0001) %MON thSI_Tic1_ave_G              =  -1.0863519420773E+01
(PID.TID 0000.0001) %MON thSI_Tic1_ave_S              =  -1.3489253333117E+00
(PID.TID 0000.0001) %MON thSI_Tic1_ave_N              =  -1.2877027524516E+01
(PID.TID 0000.0001) %MON thSI_Tic1_min_S              =  -2.4476129124084E+00
(PID.TID 0000.0001) %MON thSI_Tic1_min_N              =  -1.8836621186980E+01
(PID.TID 0000.0001) %MON thSI_Tic1_max_S              =  -1.7682532402292E-01
(PID.TID 0000.0001) %MON thSI_Tic1_max_N              =  -2.5800384244792E+00
(PID.TID 0000.0001) %MON thSI_Tic2_ave_G              =  -4.6926890124839E+00
(PID.TID 0000.0001) %MON thSI_Tic2_ave_S              =  -1.6271314900867E+00
(PID.TID 0000.0001) %MON thSI_Tic2_ave_N              =  -5.3414318655261E+00
(PID.TID 0000.0001) %MON thSI_Tic2_min_S              =  -2.0507050836118E+00
(PID.TID 0000.0001) %MON thSI_Tic2_min_N              =  -8.1981918355888E+00
(PID.TID 0000.0001) %MON thSI_Tic2_max_S              =  -9.3569908777154E-01
(PID.TID 0000.0001) %MON thSI_Tic2_max_N              =  -2.0497213558171E+00
(PID.TID 0000.0001) %MON thSI_TotEnerg_G              =  -9.9424455779813E+21
(PID.TID 0000.0001) // =======================================================
(PID.TID 0000.0001) // End MONITOR Therm.SeaIce statistics
(PID.TID 0000.0001) // =======================================================
 cg2d: Sum(rhs),rhsMax =   2.21702018208835E+03  2.13515723876122E+01
(PID.TID 0000.0001)      cg2d_init_res =   1.90538318785599E+01
(PID.TID 0000.0001)      cg2d_iters(min,last) =      -1      74
(PID.TID 0000.0001)      cg2d_last_res =   4.36652278683296E-07
(PID.TID 0000.0001) // =======================================================
(PID.TID 0000.0001) // Begin MONITOR dynamic field statistics
(PID.TID 0000.0001) // =======================================================
(PID.TID 0000.0001) %MON time_tsnumber                =                 72005
(PID.TID 0000.0001) %MON time_secondsf                =   6.2212320000000E+09
(PID.TID 0000.0001) %MON dynstat_eta_max              =  -2.2051867329196E+00
(PID.TID 0000.0001) %MON dynstat_eta_min              =  -8.4793627292327E+00
(PID.TID 0000.0001) %MON dynstat_eta_mean             =  -3.2974695173118E+00
(PID.TID 0000.0001) %MON dynstat_eta_sd               =   8.8103611055365E-01
(PID.TID 0000.0001) %MON dynstat_eta_del2             =   2.8853929590388E-03
(PID.TID 0000.0001) %MON dynstat_uvel_max             =   2.1550556957464E-01
(PID.TID 0000.0001) %MON dynstat_uvel_min             =  -2.9017111957643E-01
(PID.TID 0000.0001) %MON dynstat_uvel_mean            =  -5.2831731244707E-04
(PID.TID 0000.0001) %MON dynstat_uvel_sd              =   1.4795993441130E-02
(PID.TID 0000.0001) %MON dynstat_uvel_del2            =   6.7974759378150E-05
(PID.TID 0000.0001) %MON dynstat_vvel_max             =   2.1932505406933E-01
(PID.TID 0000.0001) %MON dynstat_vvel_min             =  -2.0161045816431E-01
(PID.TID 0000.0001) %MON dynstat_vvel_mean            =  -3.9831806480071E-04
(PID.TID 0000.0001) %MON dynstat_vvel_sd              =   1.5278962400247E-02
(PID.TID 0000.0001) %MON dynstat_vvel_del2            =   6.2946843063835E-05
(PID.TID 0000.0001) %MON dynstat_wvel_max             =   1.0400202184273E-04
(PID.TID 0000.0001) %MON dynstat_wvel_min             =  -2.1491146869796E-04
(PID.TID 0000.0001) %MON dynstat_wvel_mean            =  -2.9802665343493E-09
(PID.TID 0000.0001) %MON dynstat_wvel_sd              =   5.3838593876824E-06
(PID.TID 0000.0001) %MON dynstat_wvel_del2            =   4.9660490441116E-08
(PID.TID 0000.0001) %MON dynstat_theta_max            =   3.1213595963609E+01
(PID.TID 0000.0001) %MON dynstat_theta_min            =  -2.4839550249261E+00
(PID.TID 0000.0001) %MON dynstat_theta_mean           =   3.0539291827650E+00
(PID.TID 0000.0001) %MON dynstat_theta_sd             =   4.9961393158164E+00
(PID.TID 0000.0001) %MON dynstat_theta_del2           =   2.8616596812365E-03
(PID.TID 0000.0001) %MON dynstat_salt_max             =   5.8968203156658E+01
(PID.TID 0000.0001) %MON dynstat_salt_min             =   1.7776038144689E+01
(PID.TID 0000.0001) %MON dynstat_salt_mean            =   3.4752497424764E+01
(PID.TID 0000.0001) %MON dynstat_salt_sd              =   4.8876482754364E-01
(PID.TID 0000.0001) %MON dynstat_salt_del2            =   1.3094072964562E-03
(PID.TID 0000.0001) %MON forcing_qnet_max             =   6.0281306117202E+02
(PID.TID 0000.0001) %MON forcing_qnet_min             =  -2.5000339956942E+02
(PID.TID 0000.0001) %MON forcing_qnet_mean            =  -2.8659972594504E+01
(PID.TID 0000.0001) %MON forcing_qnet_sd              =   1.1810768623623E+02
(PID.TID 0000.0001) %MON forcing_qnet_del2            =   9.2442873818231E-01
(PID.TID 0000.0001) %MON forcing_qsw_max              =  -0.0000000000000E+00
(PID.TID 0000.0001) %MON forcing_qsw_min              =  -3.0185528845048E+02
(PID.TID 0000.0001) %MON forcing_qsw_mean             =  -1.8300702408464E+02
(PID.TID 0000.0001) %MON forcing_qsw_sd               =   7.9539682921288E+01
(PID.TID 0000.0001) %MON forcing_qsw_del2             =   3.1100884464916E-01
(PID.TID 0000.0001) %MON forcing_empmr_max            =   7.2862345377948E-04
(PID.TID 0000.0001) %MON forcing_empmr_min            =  -4.4003748740607E-04
(PID.TID 0000.0001) %MON forcing_empmr_mean           =  -5.8091963437667E-06
(PID.TID 0000.0001) %MON forcing_empmr_sd             =   5.4902545548593E-05
(PID.TID 0000.0001) %MON forcing_empmr_del2           =   8.7225670447222E-07
(PID.TID 0000.0001) %MON forcing_fu_max               =   2.4736588936290E-01
(PID.TID 0000.0001) %MON forcing_fu_min               =  -2.1866089303695E-01
(PID.TID 0000.0001) %MON forcing_fu_mean              =  -4.3304859861956E-03
(PID.TID 0000.0001) %MON forcing_fu_sd                =   6.4120753845867E-02
(PID.TID 0000.0001) %MON forcing_fu_del2              =   2.0825059330114E-04
(PID.TID 0000.0001) %MON forcing_fv_max               =   2.6622718829904E-01
(PID.TID 0000.0001) %MON forcing_fv_min               =  -3.3085944368965E-01
(PID.TID 0000.0001) %MON forcing_fv_mean              =  -1.3704129248494E-02
(PID.TID 0000.0001) %MON forcing_fv_sd                =   7.5453902771370E-02
(PID.TID 0000.0001) %MON forcing_fv_del2              =   2.3667008926707E-04
(PID.TID 0000.0001) %MON advcfl_uvel_max              =   8.5059756911299E-02
(PID.TID 0000.0001) %MON advcfl_vvel_max              =   8.3430716691856E-02
(PID.TID 0000.0001) %MON advcfl_wvel_max              =   7.0069248662277E-02
(PID.TID 0000.0001) %MON advcfl_W_hf_max              =   7.7521912387038E-02
(PID.TID 0000.0001) %MON pe_b_mean                    =   1.4329155364949E-02
(PID.TID 0000.0001) %MON ke_max                       =   4.1512240906304E-02
(PID.TID 0000.0001) %MON ke_mean                      =   2.0907461694174E-04
(PID.TID 0000.0001) %MON ke_vol                       =   1.3386023634743E+18
(PID.TID 0000.0001) %MON vort_r_min                   =  -1.2520573702659E-06
(PID.TID 0000.0001) %MON vort_r_max                   =   1.2919370391556E-06
(PID.TID 0000.0001) %MON vort_a_mean                  =  -2.0549865324846E-05
(PID.TID 0000.0001) %MON vort_a_sd                    =   7.5259722439638E-05
(PID.TID 0000.0001) %MON vort_p_mean                  =  -2.4806327751467E-05
(PID.TID 0000.0001) %MON vort_p_sd                    =   1.2827592048064E-04
(PID.TID 0000.0001) %MON surfExpan_theta_mean         =  -3.9777915754706E-08
(PID.TID 0000.0001) %MON surfExpan_salt_mean          =   1.6283349950138E-08
(PID.TID 0000.0001) // =======================================================
(PID.TID 0000.0001) // End MONITOR dynamic field statistics
(PID.TID 0000.0001) // =======================================================
(PID.TID 0000.0001) // =======================================================
(PID.TID 0000.0001) // Begin MONITOR Therm.SeaIce statistics
(PID.TID 0000.0001) // =======================================================
(PID.TID 0000.0001) %MON thSI_time_sec                =   6.2212320000000E+09
(PID.TID 0000.0001) %MON thSI_Ice_Area_G              =   1.6752120016857E+13
(PID.TID 0000.0001) %MON thSI_Ice_Area_S              =   4.3564864678175E+12
(PID.TID 0000.0001) %MON thSI_Ice_Area_N              =   1.2395633549040E+13
(PID.TID 0000.0001) %MON thSI_IceH_ave_G              =   1.8152605066913E+00
(PID.TID 0000.0001) %MON thSI_IceH_ave_S              =   1.1856845862935E+00
(PID.TID 0000.0001) %MON thSI_IceH_ave_N              =   2.0365270492062E+00
(PID.TID 0000.0001) %MON thSI_IceH_max_S              =   2.1178956420590E+00
(PID.TID 0000.0001) %MON thSI_IceH_max_N              =   5.2054173910934E+00
(PID.TID 0000.0001) %MON thSI_SnwH_ave_G              =   2.1537706805759E-01
(PID.TID 0000.0001) %MON thSI_SnwH_ave_S              =   1.8409989546302E-01
(PID.TID 0000.0001) %MON thSI_SnwH_ave_N              =   2.2636953396268E-01
(PID.TID 0000.0001) %MON thSI_SnwH_max_S              =   5.7426345140629E-01
(PID.TID 0000.0001) %MON thSI_SnwH_max_N              =   4.4299927725167E-01
(PID.TID 0000.0001) %MON thSI_Tsrf_ave_G              =  -1.9518279253084E+01
(PID.TID 0000.0001) %MON thSI_Tsrf_ave_S              =  -7.5916393541387E-02
(PID.TID 0000.0001) %MON thSI_Tsrf_ave_N              =  -2.6351362077362E+01
(PID.TID 0000.0001) %MON thSI_Tsrf_min_S              =  -4.0926409731496E+00
(PID.TID 0000.0001) %MON thSI_Tsrf_min_N              =  -3.2713450833092E+01
(PID.TID 0000.0001) %MON thSI_Tsrf_max_S              =   0.0000000000000E+00
(PID.TID 0000.0001) %MON thSI_Tsrf_max_N              =  -5.1323898414486E+00
(PID.TID 0000.0001) %MON thSI_Tic1_ave_G              =  -1.0927302032348E+01
(PID.TID 0000.0001) %MON thSI_Tic1_ave_S              =  -1.3265875242184E+00
(PID.TID 0000.0001) %MON thSI_Tic1_ave_N              =  -1.2891793683536E+01
(PID.TID 0000.0001) %MON thSI_Tic1_min_S              =  -2.4204681080440E+00
(PID.TID 0000.0001) %MON thSI_Tic1_min_N              =  -1.8880366600241E+01
(PID.TID 0000.0001) %MON thSI_Tic1_max_S              =  -1.6234732116886E-01
(PID.TID 0000.0001) %MON thSI_Tic1_max_N              =  -2.5342262129915E+00
(PID.TID 0000.0001) %MON thSI_Tic2_ave_G              =  -4.7184582886664E+00
(PID.TID 0000.0001) %MON thSI_Tic2_ave_S              =  -1.6179383314759E+00
(PID.TID 0000.0001) %MON thSI_Tic2_ave_N              =  -5.3528845665317E+00
(PID.TID 0000.0001) %MON thSI_Tic2_min_S              =  -2.0372911400023E+00
(PID.TID 0000.0001) %MON thSI_Tic2_min_N              =  -8.2580364987516E+00
(PID.TID 0000.0001) %MON thSI_Tic2_max_S              =  -8.9181064222464E-01
(PID.TID 0000.0001) %MON thSI_Tic2_max_N              =  -2.0352315820184E+00
(PID.TID 0000.0001) %MON thSI_TotEnerg_G              =  -9.9301974533299E+21
(PID.TID 0000.0001) // =======================================================
(PID.TID 0000.0001) // End MONITOR Therm.SeaIce statistics
(PID.TID 0000.0001) // =======================================================
 cg2d: Sum(rhs),rhsMax =   2.21669863012535E+03  2.14042534337258E+01
(PID.TID 0000.0001)      cg2d_init_res =   1.89775256253730E+01
(PID.TID 0000.0001)      cg2d_iters(min,last) =      -1      74
(PID.TID 0000.0001)      cg2d_last_res =   4.36236558689658E-07
(PID.TID 0000.0001) // =======================================================
(PID.TID 0000.0001) // Begin MONITOR dynamic field statistics
(PID.TID 0000.0001) // =======================================================
(PID.TID 0000.0001) %MON time_tsnumber                =                 72006
(PID.TID 0000.0001) %MON time_secondsf                =   6.2213184000000E+09
(PID.TID 0000.0001) %MON dynstat_eta_max              =  -2.2056234464327E+00
(PID.TID 0000.0001) %MON dynstat_eta_min              =  -8.4806168543380E+00
(PID.TID 0000.0001) %MON dynstat_eta_mean             =  -3.2969912592405E+00
(PID.TID 0000.0001) %MON dynstat_eta_sd               =   8.8016754713160E-01
(PID.TID 0000.0001) %MON dynstat_eta_del2             =   2.8729518379920E-03
(PID.TID 0000.0001) %MON dynstat_uvel_max             =   2.1555879206467E-01
(PID.TID 0000.0001) %MON dynstat_uvel_min             =  -2.8970482761187E-01
(PID.TID 0000.0001) %MON dynstat_uvel_mean            =  -5.2795483201979E-04
(PID.TID 0000.0001) %MON dynstat_uvel_sd              =   1.4792538928834E-02
(PID.TID 0000.0001) %MON dynstat_uvel_del2            =   6.7914347396915E-05
(PID.TID 0000.0001) %MON dynstat_vvel_max             =   2.1839830835488E-01
(PID.TID 0000.0001) %MON dynstat_vvel_min             =  -2.0165480455031E-01
(PID.TID 0000.0001) %MON dynstat_vvel_mean            =  -3.9686792425829E-04
(PID.TID 0000.0001) %MON dynstat_vvel_sd              =   1.5280411124273E-02
(PID.TID 0000.0001) %MON dynstat_vvel_del2            =   6.2877214919187E-05
(PID.TID 0000.0001) %MON dynstat_wvel_max             =   1.0484664267818E-04
(PID.TID 0000.0001) %MON dynstat_wvel_min             =  -2.1508871060495E-04
(PID.TID 0000.0001) %MON dynstat_wvel_mean            =  -3.1935604939595E-09
(PID.TID 0000.0001) %MON dynstat_wvel_sd              =   5.3908152630317E-06
(PID.TID 0000.0001) %MON dynstat_wvel_del2            =   4.9730913573727E-08
(PID.TID 0000.0001) %MON dynstat_theta_max            =   3.1216651536730E+01
(PID.TID 0000.0001) %MON dynstat_theta_min            =  -2.5701384854757E+00
(PID.TID 0000.0001) %MON dynstat_theta_mean           =   3.0540925639936E+00
(PID.TID 0000.0001) %MON dynstat_theta_sd             =   4.9964826036842E+00
(PID.TID 0000.0001) %MON dynstat_theta_del2           =   2.8471352238588E-03
(PID.TID 0000.0001) %MON dynstat_salt_max             =   5.8867926372257E+01
(PID.TID 0000.0001) %MON dynstat_salt_min             =   1.7776106503736E+01
(PID.TID 0000.0001) %MON dynstat_salt_mean            =   3.4752493038677E+01
(PID.TID 0000.0001) %MON dynstat_salt_sd              =   4.8869942648740E-01
(PID.TID 0000.0001) %MON dynstat_salt_del2            =   1.3007270587883E-03
(PID.TID 0000.0001) %MON forcing_qnet_max             =   6.0251415882570E+02
(PID.TID 0000.0001) %MON forcing_qnet_min             =  -2.4962074159191E+02
(PID.TID 0000.0001) %MON forcing_qnet_mean            =  -2.8594254882280E+01
(PID.TID 0000.0001) %MON forcing_qnet_sd              =   1.1804207216780E+02
(PID.TID 0000.0001) %MON forcing_qnet_del2            =   9.2302285617997E-01
(PID.TID 0000.0001) %MON forcing_qsw_max              =  -0.0000000000000E+00
(PID.TID 0000.0001) %MON forcing_qsw_min              =  -3.0184329151467E+02
(PID.TID 0000.0001) %MON forcing_qsw_mean             =  -1.8311146124618E+02
(PID.TID 0000.0001) %MON forcing_qsw_sd               =   7.9471484238124E+01
(PID.TID 0000.0001) %MON forcing_qsw_del2             =   3.1007544338324E-01
(PID.TID 0000.0001) %MON forcing_empmr_max            =   6.5980683763983E-04
(PID.TID 0000.0001) %MON forcing_empmr_min            =  -4.4219483463012E-04
(PID.TID 0000.0001) %MON forcing_empmr_mean           =  -5.7291331451917E-06
(PID.TID 0000.0001) %MON forcing_empmr_sd             =   5.3678968941981E-05
(PID.TID 0000.0001) %MON forcing_empmr_del2           =   8.5300049124656E-07
(PID.TID 0000.0001) %MON forcing_fu_max               =   2.4731784009269E-01
(PID.TID 0000.0001) %MON forcing_fu_min               =  -2.2180668969530E-01
(PID.TID 0000.0001) %MON forcing_fu_mean              =  -4.2870070504621E-03
(PID.TID 0000.0001) %MON forcing_fu_sd                =   6.4197640910106E-02
(PID.TID 0000.0001) %MON forcing_fu_del2              =   2.0958789804308E-04
(PID.TID 0000.0001) %MON forcing_fv_max               =   2.6891042987167E-01
(PID.TID 0000.0001) %MON forcing_fv_min               =  -3.3164734762358E-01
(PID.TID 0000.0001) %MON forcing_fv_mean              =  -1.3708054794422E-02
(PID.TID 0000.0001) %MON forcing_fv_sd                =   7.5544817904543E-02
(PID.TID 0000.0001) %MON forcing_fv_del2              =   2.3785256950118E-04
(PID.TID 0000.0001) %MON advcfl_uvel_max              =   8.5209687071372E-02
(PID.TID 0000.0001) %MON advcfl_vvel_max              =   8.3430587422093E-02
(PID.TID 0000.0001) %MON advcfl_wvel_max              =   7.0127036212332E-02
(PID.TID 0000.0001) %MON advcfl_W_hf_max              =   7.7585852686521E-02
(PID.TID 0000.0001) %MON pe_b_mean                    =   1.4325183852513E-02
(PID.TID 0000.0001) %MON ke_max                       =   4.1370114127443E-02
(PID.TID 0000.0001) %MON ke_mean                      =   2.0904749242640E-04
(PID.TID 0000.0001) %MON ke_vol                       =   1.3386025399381E+18
(PID.TID 0000.0001) %MON vort_r_min                   =  -1.2580300466533E-06
(PID.TID 0000.0001) %MON vort_r_max                   =   1.2895367335335E-06
(PID.TID 0000.0001) %MON vort_a_mean                  =  -2.0549865324846E-05
(PID.TID 0000.0001) %MON vort_a_sd                    =   7.5259722204108E-05
(PID.TID 0000.0001) %MON vort_p_mean                  =  -2.4806324278586E-05
(PID.TID 0000.0001) %MON vort_p_sd                    =   1.2827588654792E-04
(PID.TID 0000.0001) %MON surfExpan_theta_mean         =  -4.3276589699170E-08
(PID.TID 0000.0001) %MON surfExpan_salt_mean          =   1.6221631417030E-08
(PID.TID 0000.0001) // =======================================================
(PID.TID 0000.0001) // End MONITOR dynamic field statistics
(PID.TID 0000.0001) // =======================================================
(PID.TID 0000.0001) // =======================================================
(PID.TID 0000.0001) // Begin MONITOR Therm.SeaIce statistics
(PID.TID 0000.0001) // =======================================================
(PID.TID 0000.0001) %MON thSI_time_sec                =   6.2213184000000E+09
(PID.TID 0000.0001) %MON thSI_Ice_Area_G              =   1.6669749268642E+13
(PID.TID 0000.0001) %MON thSI_Ice_Area_S              =   4.2298185163033E+12
(PID.TID 0000.0001) %MON thSI_Ice_Area_N              =   1.2439930752339E+13
(PID.TID 0000.0001) %MON thSI_IceH_ave_G              =   1.8215589643351E+00
(PID.TID 0000.0001) %MON thSI_IceH_ave_S              =   1.1861097833979E+00
(PID.TID 0000.0001) %MON thSI_IceH_ave_N              =   2.0376240506453E+00
(PID.TID 0000.0001) %MON thSI_IceH_max_S              =   2.1162595595587E+00
(PID.TID 0000.0001) %MON thSI_IceH_max_N              =   5.2063046517293E+00
(PID.TID 0000.0001) %MON thSI_SnwH_ave_G              =   2.1624292374786E-01
(PID.TID 0000.0001) %MON thSI_SnwH_ave_S              =   1.8115038328392E-01
(PID.TID 0000.0001) %MON thSI_SnwH_ave_N              =   2.2817507034849E-01
(PID.TID 0000.0001) %MON thSI_SnwH_max_S              =   5.7055560915943E-01
(PID.TID 0000.0001) %MON thSI_SnwH_max_N              =   4.4879640005384E-01
(PID.TID 0000.0001) %MON thSI_Tsrf_ave_G              =  -1.9710442100277E+01
(PID.TID 0000.0001) %MON thSI_Tsrf_ave_S              =  -6.9879095383953E-02
(PID.TID 0000.0001) %MON thSI_Tsrf_ave_N              =  -2.6388615694861E+01
(PID.TID 0000.0001) %MON thSI_Tsrf_min_S              =  -4.1134960049097E+00
(PID.TID 0000.0001) %MON thSI_Tsrf_min_N              =  -3.2710767303465E+01
(PID.TID 0000.0001) %MON thSI_Tsrf_max_S              =   0.0000000000000E+00
(PID.TID 0000.0001) %MON thSI_Tsrf_max_N              =  -5.2074733974810E+00
(PID.TID 0000.0001) %MON thSI_Tic1_ave_G              =  -1.0988246051950E+01
(PID.TID 0000.0001) %MON thSI_Tic1_ave_S              =  -1.3074541675210E+00
(PID.TID 0000.0001) %MON thSI_Tic1_ave_N              =  -1.2904334202291E+01
(PID.TID 0000.0001) %MON thSI_Tic1_min_S              =  -2.3964024103030E+00
(PID.TID 0000.0001) %MON thSI_Tic1_min_N              =  -1.8894122195886E+01
(PID.TID 0000.0001) %MON thSI_Tic1_max_S              =  -1.5045894556332E-01
(PID.TID 0000.0001) %MON thSI_Tic1_max_N              =  -2.4993029571170E+00
(PID.TID 0000.0001) %MON thSI_Tic2_ave_G              =  -4.7427481642688E+00
(PID.TID 0000.0001) %MON thSI_Tic2_ave_S              =  -1.6096051331341E+00
(PID.TID 0000.0001) %MON thSI_Tic2_ave_N              =  -5.3628811355121E+00
(PID.TID 0000.0001) %MON thSI_Tic2_min_S              =  -2.0243472370413E+00
(PID.TID 0000.0001) %MON thSI_Tic2_min_N              =  -8.2906385940895E+00
(PID.TID 0000.0001) %MON thSI_Tic2_max_S              =  -8.5078185328469E-01
(PID.TID 0000.0001) %MON thSI_Tic2_max_N              =  -2.0242798959683E+00
(PID.TID 0000.0001) %MON thSI_TotEnerg_G              =  -9.9184641334318E+21
(PID.TID 0000.0001) // =======================================================
(PID.TID 0000.0001) // End MONITOR Therm.SeaIce statistics
(PID.TID 0000.0001) // =======================================================
 cg2d: Sum(rhs),rhsMax =   2.21637328466701E+03  2.14537629142059E+01
(PID.TID 0000.0001)      cg2d_init_res =   1.89430195227408E+01
(PID.TID 0000.0001)      cg2d_iters(min,last) =      -1      74
(PID.TID 0000.0001)      cg2d_last_res =   4.27733087045661E-07
(PID.TID 0000.0001) // =======================================================
(PID.TID 0000.0001) // Begin MONITOR dynamic field statistics
(PID.TID 0000.0001) // =======================================================
(PID.TID 0000.0001) %MON time_tsnumber                =                 72007
(PID.TID 0000.0001) %MON time_secondsf                =   6.2214048000000E+09
(PID.TID 0000.0001) %MON dynstat_eta_max              =  -2.2062061951576E+00
(PID.TID 0000.0001) %MON dynstat_eta_min              =  -8.4868812076578E+00
(PID.TID 0000.0001) %MON dynstat_eta_mean             =  -3.2965073589404E+00
(PID.TID 0000.0001) %MON dynstat_eta_sd               =   8.7928051600043E-01
(PID.TID 0000.0001) %MON dynstat_eta_del2             =   2.8644137151013E-03
(PID.TID 0000.0001) %MON dynstat_uvel_max             =   2.1551695200911E-01
(PID.TID 0000.0001) %MON dynstat_uvel_min             =  -2.8921488312986E-01
(PID.TID 0000.0001) %MON dynstat_uvel_mean            =  -5.2748226993145E-04
(PID.TID 0000.0001) %MON dynstat_uvel_sd              =   1.4788780506717E-02
(PID.TID 0000.0001) %MON dynstat_uvel_del2            =   6.7853360371675E-05
(PID.TID 0000.0001) %MON dynstat_vvel_max             =   2.1739296355049E-01
(PID.TID 0000.0001) %MON dynstat_vvel_min             =  -2.0169361099393E-01
(PID.TID 0000.0001) %MON dynstat_vvel_mean            =  -3.9534443651726E-04
(PID.TID 0000.0001) %MON dynstat_vvel_sd              =   1.5281343694469E-02
(PID.TID 0000.0001) %MON dynstat_vvel_del2            =   6.2808471443068E-05
(PID.TID 0000.0001) %MON dynstat_wvel_max             =   1.0573210555629E-04
(PID.TID 0000.0001) %MON dynstat_wvel_min             =  -2.1523841642441E-04
(PID.TID 0000.0001) %MON dynstat_wvel_mean            =  -3.3342232674979E-09
(PID.TID 0000.0001) %MON dynstat_wvel_sd              =   5.3984142644162E-06
(PID.TID 0000.0001) %MON dynstat_wvel_del2            =   4.9799099057237E-08
(PID.TID 0000.0001) %MON dynstat_theta_max            =   3.1219156236690E+01
(PID.TID 0000.0001) %MON dynstat_theta_min            =  -2.6530011339668E+00
(PID.TID 0000.0001) %MON dynstat_theta_mean           =   3.0542551186028E+00
(PID.TID 0000.0001) %MON dynstat_theta_sd             =   4.9968279269807E+00
(PID.TID 0000.0001) %MON dynstat_theta_del2           =   2.8349926238322E-03
(PID.TID 0000.0001) %MON dynstat_salt_max             =   5.8774514694569E+01
(PID.TID 0000.0001) %MON dynstat_salt_min             =   1.7776162360816E+01
(PID.TID 0000.0001) %MON dynstat_salt_mean            =   3.4752488616365E+01
(PID.TID 0000.0001) %MON dynstat_salt_sd              =   4.8863613852213E-01
(PID.TID 0000.0001) %MON dynstat_salt_del2            =   1.2925889909588E-03
(PID.TID 0000.0001) %MON forcing_qnet_max             =   6.0226940111311E+02
(PID.TID 0000.0001) %MON forcing_qnet_min             =  -2.4923492197800E+02
(PID.TID 0000.0001) %MON forcing_qnet_mean            =  -2.8457226306654E+01
(PID.TID 0000.0001) %MON forcing_qnet_sd              =   1.1795048065153E+02
(PID.TID 0000.0001) %MON forcing_qnet_del2            =   9.2660974936064E-01
(PID.TID 0000.0001) %MON forcing_qsw_max              =  -0.0000000000000E+00
(PID.TID 0000.0001) %MON forcing_qsw_min              =  -3.0183129457886E+02
(PID.TID 0000.0001) %MON forcing_qsw_mean             =  -1.8321136078876E+02
(PID.TID 0000.0001) %MON forcing_qsw_sd               =   7.9397987166435E+01
(PID.TID 0000.0001) %MON forcing_qsw_del2             =   3.0836677495560E-01
(PID.TID 0000.0001) %MON forcing_empmr_max            =   6.0064099505847E-04
(PID.TID 0000.0001) %MON forcing_empmr_min            =  -4.4435557461307E-04
(PID.TID 0000.0001) %MON forcing_empmr_mean           =  -5.7967223451084E-06
(PID.TID 0000.0001) %MON forcing_empmr_sd             =   5.3201657690972E-05
(PID.TID 0000.0001) %MON forcing_empmr_del2           =   8.8704826138933E-07
(PID.TID 0000.0001) %MON forcing_fu_max               =   2.4726979082249E-01
(PID.TID 0000.0001) %MON forcing_fu_min               =  -2.2495248635365E-01
(PID.TID 0000.0001) %MON forcing_fu_mean              =  -4.2435281147287E-03
(PID.TID 0000.0001) %MON forcing_fu_sd                =   6.4287840534767E-02
(PID.TID 0000.0001) %MON forcing_fu_del2              =   2.1115214806548E-04
(PID.TID 0000.0001) %MON forcing_fv_max               =   2.7159367144430E-01
(PID.TID 0000.0001) %MON forcing_fv_min               =  -3.3243525155752E-01
(PID.TID 0000.0001) %MON forcing_fv_mean              =  -1.3711980340349E-02
(PID.TID 0000.0001) %MON forcing_fv_sd                =   7.5645935346452E-02
(PID.TID 0000.0001) %MON forcing_fv_del2              =   2.3922805906111E-04
(PID.TID 0000.0001) %MON advcfl_uvel_max              =   8.5349063860307E-02
(PID.TID 0000.0001) %MON advcfl_vvel_max              =   8.3420566027449E-02
(PID.TID 0000.0001) %MON advcfl_wvel_max              =   7.0175845958751E-02
(PID.TID 0000.0001) %MON advcfl_W_hf_max              =   7.7639851076960E-02
(PID.TID 0000.0001) %MON pe_b_mean                    =   1.4321233731648E-02
(PID.TID 0000.0001) %MON ke_max                       =   4.1223085948191E-02
(PID.TID 0000.0001) %MON ke_mean                      =   2.0900885756204E-04
(PID.TID 0000.0001) %MON ke_vol                       =   1.3386027139698E+18
(PID.TID 0000.0001) %MON vort_r_min                   =  -1.2640766403212E-06
(PID.TID 0000.0001) %MON vort_r_max                   =   1.2869507607535E-06
(PID.TID 0000.0001) %MON vort_a_mean                  =  -2.0549865324846E-05
(PID.TID 0000.0001) %MON vort_a_sd                    =   7.5259721977332E-05
(PID.TID 0000.0001) %MON vort_p_mean                  =  -2.4806320755108E-05
(PID.TID 0000.0001) %MON vort_p_sd                    =   1.2827585398643E-04
(PID.TID 0000.0001) %MON surfExpan_theta_mean         =  -4.5197645379819E-08
(PID.TID 0000.0001) %MON surfExpan_salt_mean          =   1.5960989722258E-08
(PID.TID 0000.0001) // =======================================================
(PID.TID 0000.0001) // End MONITOR dynamic field statistics
(PID.TID 0000.0001) // =======================================================
(PID.TID 0000.0001) // =======================================================
(PID.TID 0000.0001) // Begin MONITOR Therm.SeaIce statistics
(PID.TID 0000.0001) // =======================================================
(PID.TID 0000.0001) %MON thSI_time_sec                =   6.2214048000000E+09
(PID.TID 0000.0001) %MON thSI_Ice_Area_G              =   1.6569862703723E+13
(PID.TID 0000.0001) %MON thSI_Ice_Area_S              =   4.0896638984597E+12
(PID.TID 0000.0001) %MON thSI_Ice_Area_N              =   1.2480198805263E+13
(PID.TID 0000.0001) %MON thSI_IceH_ave_G              =   1.8295729293249E+00
(PID.TID 0000.0001) %MON thSI_IceH_ave_S              =   1.1903111001187E+00
(PID.TID 0000.0001) %MON thSI_IceH_ave_N              =   2.0390540494066E+00
(PID.TID 0000.0001) %MON thSI_IceH_max_S              =   2.1145928847095E+00
(PID.TID 0000.0001) %MON thSI_IceH_max_N              =   5.2072053707113E+00
(PID.TID 0000.0001) %MON thSI_SnwH_ave_G              =   2.1749467223975E-01
(PID.TID 0000.0001) %MON thSI_SnwH_ave_S              =   1.7916034293828E-01
(PID.TID 0000.0001) %MON thSI_SnwH_ave_N              =   2.3005653323749E-01
(PID.TID 0000.0001) %MON thSI_SnwH_max_S              =   5.6684755547061E-01
(PID.TID 0000.0001) %MON thSI_SnwH_max_N              =   4.5459890129574E-01
(PID.TID 0000.0001) %MON thSI_Tsrf_ave_G              =  -1.9925144831423E+01
(PID.TID 0000.0001) %MON thSI_Tsrf_ave_S              =  -8.0769396469282E-02
(PID.TID 0000.0001) %MON thSI_Tsrf_ave_N              =  -2.6427992027221E+01
(PID.TID 0000.0001) %MON thSI_Tsrf_min_S              =  -4.1292623053891E+00
(PID.TID 0000.0001) %MON thSI_Tsrf_min_N              =  -3.2708125869210E+01
(PID.TID 0000.0001) %MON thSI_Tsrf_max_S              =   0.0000000000000E+00
(PID.TID 0000.0001) %MON thSI_Tsrf_max_N              =  -5.2745328256451E+00
(PID.TID 0000.0001) %MON thSI_Tic1_ave_G              =  -1.1047994110154E+01
(PID.TID 0000.0001) %MON thSI_Tic1_ave_S              =  -1.2890888766618E+00
(PID.TID 0000.0001) %MON thSI_Tic1_ave_N              =  -1.2914799132721E+01
(PID.TID 0000.0001) %MON thSI_Tic1_min_S              =  -2.3750297609360E+00
(PID.TID 0000.0001) %MON thSI_Tic1_min_N              =  -1.8882218095495E+01
(PID.TID 0000.0001) %MON thSI_Tic1_max_S              =  -1.4080083264756E-01
(PID.TID 0000.0001) %MON thSI_Tic1_max_N              =  -2.4916687778196E+00
(PID.TID 0000.0001) %MON thSI_Tic2_ave_G              =  -4.7662714515065E+00
(PID.TID 0000.0001) %MON thSI_Tic2_ave_S              =  -1.6024454996405E+00
(PID.TID 0000.0001) %MON thSI_Tic2_ave_N              =  -5.3714875117264E+00
(PID.TID 0000.0001) %MON thSI_Tic2_min_S              =  -2.0118631185387E+00
(PID.TID 0000.0001) %MON thSI_Tic2_min_N              =  -8.3030693733752E+00
(PID.TID 0000.0001) %MON thSI_Tic2_max_S              =  -8.1232423993313E-01
(PID.TID 0000.0001) %MON thSI_Tic2_max_N              =  -2.0196179663276E+00
(PID.TID 0000.0001) %MON thSI_TotEnerg_G              =  -9.9053868247718E+21
(PID.TID 0000.0001) // =======================================================
(PID.TID 0000.0001) // End MONITOR Therm.SeaIce statistics
(PID.TID 0000.0001) // =======================================================
 cg2d: Sum(rhs),rhsMax =   2.21606586952945E+03  2.14995310145825E+01
(PID.TID 0000.0001)      cg2d_init_res =   1.90700456976700E+01
(PID.TID 0000.0001)      cg2d_iters(min,last) =      -1      73
(PID.TID 0000.0001)      cg2d_last_res =   5.51497392095950E-07
(PID.TID 0000.0001) // =======================================================
(PID.TID 0000.0001) // Begin MONITOR dynamic field statistics
(PID.TID 0000.0001) // =======================================================
(PID.TID 0000.0001) %MON time_tsnumber                =                 72008
(PID.TID 0000.0001) %MON time_secondsf                =   6.2214912000000E+09
(PID.TID 0000.0001) %MON dynstat_eta_max              =  -2.2070021015278E+00
(PID.TID 0000.0001) %MON dynstat_eta_min              =  -8.4916253355034E+00
(PID.TID 0000.0001) %MON dynstat_eta_mean             =  -3.2960501271779E+00
(PID.TID 0000.0001) %MON dynstat_eta_sd               =   8.7841923975665E-01
(PID.TID 0000.0001) %MON dynstat_eta_del2             =   2.8537657770928E-03
(PID.TID 0000.0001) %MON dynstat_uvel_max             =   2.1539868568424E-01
(PID.TID 0000.0001) %MON dynstat_uvel_min             =  -2.8870259412885E-01
(PID.TID 0000.0001) %MON dynstat_uvel_mean            =  -5.2694283725364E-04
(PID.TID 0000.0001) %MON dynstat_uvel_sd              =   1.4784775422903E-02
(PID.TID 0000.0001) %MON dynstat_uvel_del2            =   6.7791703010444E-05
(PID.TID 0000.0001) %MON dynstat_vvel_max             =   2.1631721941914E-01
(PID.TID 0000.0001) %MON dynstat_vvel_min             =  -2.0172729101952E-01
(PID.TID 0000.0001) %MON dynstat_vvel_mean            =  -3.9376953650475E-04
(PID.TID 0000.0001) %MON dynstat_vvel_sd              =   1.5281677880098E-02
(PID.TID 0000.0001) %MON dynstat_vvel_del2            =   6.2740759114101E-05
(PID.TID 0000.0001) %MON dynstat_wvel_max             =   1.0665149954828E-04
(PID.TID 0000.0001) %MON dynstat_wvel_min             =  -2.1537306188767E-04
(PID.TID 0000.0001) %MON dynstat_wvel_mean            =  -3.2240597840874E-09
(PID.TID 0000.0001) %MON dynstat_wvel_sd              =   5.4068607990774E-06
(PID.TID 0000.0001) %MON dynstat_wvel_del2            =   4.9870376777397E-08
(PID.TID 0000.0001) %MON dynstat_theta_max            =   3.1221113585247E+01
(PID.TID 0000.0001) %MON dynstat_theta_min            =  -2.7326733443670E+00
(PID.TID 0000.0001) %MON dynstat_theta_mean           =   3.0544174835108E+00
(PID.TID 0000.0001) %MON dynstat_theta_sd             =   4.9971749394967E+00
(PID.TID 0000.0001) %MON dynstat_theta_del2           =   2.8210748296860E-03
(PID.TID 0000.0001) %MON dynstat_salt_max             =   5.8686807203786E+01
(PID.TID 0000.0001) %MON dynstat_salt_min             =   1.7776206461511E+01
(PID.TID 0000.0001) %MON dynstat_salt_mean            =   3.4752484414705E+01
(PID.TID 0000.0001) %MON dynstat_salt_sd              =   4.8857420148846E-01
(PID.TID 0000.0001) %MON dynstat_salt_del2            =   1.2845607363231E-03
(PID.TID 0000.0001) %MON forcing_qnet_max             =   6.0204795314099E+02
(PID.TID 0000.0001) %MON forcing_qnet_min             =  -2.4884744000313E+02
(PID.TID 0000.0001) %MON forcing_qnet_mean            =  -2.8429409421155E+01
(PID.TID 0000.0001) %MON forcing_qnet_sd              =   1.1799115996848E+02
(PID.TID 0000.0001) %MON forcing_qnet_del2            =   9.2626072905843E-01
(PID.TID 0000.0001) %MON forcing_qsw_max              =  -0.0000000000000E+00
(PID.TID 0000.0001) %MON forcing_qsw_min              =  -3.0181929764305E+02
(PID.TID 0000.0001) %MON forcing_qsw_mean             =  -1.8331795831522E+02
(PID.TID 0000.0001) %MON forcing_qsw_sd               =   7.9332732312291E+01
(PID.TID 0000.0001) %MON forcing_qsw_del2             =   3.0686804508725E-01
(PID.TID 0000.0001) %MON forcing_empmr_max            =   5.4933186154448E-04
(PID.TID 0000.0001) %MON forcing_empmr_min            =  -4.4651967474362E-04
(PID.TID 0000.0001) %MON forcing_empmr_mean           =  -5.4772554877265E-06
(PID.TID 0000.0001) %MON forcing_empmr_sd             =   5.1695971625110E-05
(PID.TID 0000.0001) %MON forcing_empmr_del2           =   8.4318588207000E-07
(PID.TID 0000.0001) %MON forcing_fu_max               =   2.4722174155228E-01
(PID.TID 0000.0001) %MON forcing_fu_min               =  -2.2809828301201E-01
(PID.TID 0000.0001) %MON forcing_fu_mean              =  -4.2000491789953E-03
(PID.TID 0000.0001) %MON forcing_fu_sd                =   6.4391296774987E-02
(PID.TID 0000.0001) %MON forcing_fu_del2              =   2.1293834199113E-04
(PID.TID 0000.0001) %MON forcing_fv_max               =   2.7427691301694E-01
(PID.TID 0000.0001) %MON forcing_fv_min               =  -3.3322315549145E-01
(PID.TID 0000.0001) %MON forcing_fv_mean              =  -1.3715905886277E-02
(PID.TID 0000.0001) %MON forcing_fv_sd                =   7.5757214244312E-02
(PID.TID 0000.0001) %MON forcing_fv_del2              =   2.4079325037298E-04
(PID.TID 0000.0001) %MON advcfl_uvel_max              =   8.5476398640207E-02
(PID.TID 0000.0001) %MON advcfl_vvel_max              =   8.3399323115628E-02
(PID.TID 0000.0001) %MON advcfl_wvel_max              =   7.0219745460734E-02
(PID.TID 0000.0001) %MON advcfl_W_hf_max              =   7.7688407689696E-02
(PID.TID 0000.0001) %MON pe_b_mean                    =   1.4317275725161E-02
(PID.TID 0000.0001) %MON ke_max                       =   4.1071153757915E-02
(PID.TID 0000.0001) %MON ke_mean                      =   2.0895835453172E-04
(PID.TID 0000.0001) %MON ke_vol                       =   1.3386028900547E+18
(PID.TID 0000.0001) %MON vort_r_min                   =  -1.2701518523336E-06
(PID.TID 0000.0001) %MON vort_r_max                   =   1.2841719788124E-06
(PID.TID 0000.0001) %MON vort_a_mean                  =  -2.0549865324846E-05
(PID.TID 0000.0001) %MON vort_a_sd                    =   7.5259721756846E-05
(PID.TID 0000.0001) %MON vort_p_mean                  =  -2.4806317140180E-05
(PID.TID 0000.0001) %MON vort_p_sd                    =   1.2827581966700E-04
(PID.TID 0000.0001) %MON surfExpan_theta_mean         =  -4.6564793512635E-08
(PID.TID 0000.0001) %MON surfExpan_salt_mean          =   1.5657938122384E-08
(PID.TID 0000.0001) // =======================================================
(PID.TID 0000.0001) // End MONITOR dynamic field statistics
(PID.TID 0000.0001) // =======================================================
(PID.TID 0000.0001) // =======================================================
(PID.TID 0000.0001) // Begin MONITOR Therm.SeaIce statistics
(PID.TID 0000.0001) // =======================================================
(PID.TID 0000.0001) %MON thSI_time_sec                =   6.2214912000000E+09
(PID.TID 0000.0001) %MON thSI_Ice_Area_G              =   1.6498135413146E+13
(PID.TID 0000.0001) %MON thSI_Ice_Area_S              =   3.9804975243428E+12
(PID.TID 0000.0001) %MON thSI_Ice_Area_N              =   1.2517637888804E+13
(PID.TID 0000.0001) %MON thSI_IceH_ave_G              =   1.8350891476260E+00
(PID.TID 0000.0001) %MON thSI_IceH_ave_S              =   1.1885977987948E+00
(PID.TID 0000.0001) %MON thSI_IceH_ave_N              =   2.0406676470515E+00
(PID.TID 0000.0001) %MON thSI_IceH_max_S              =   2.1128964653694E+00
(PID.TID 0000.0001) %MON thSI_IceH_max_N              =   5.2081183402771E+00
(PID.TID 0000.0001) %MON thSI_SnwH_ave_G              =   2.1849784333483E-01
(PID.TID 0000.0001) %MON thSI_SnwH_ave_S              =   1.7606370899987E-01
(PID.TID 0000.0001) %MON thSI_SnwH_ave_N              =   2.3199152066983E-01
(PID.TID 0000.0001) %MON thSI_SnwH_max_S              =   5.6313788178136E-01
(PID.TID 0000.0001) %MON thSI_SnwH_max_N              =   4.6040656834844E-01
(PID.TID 0000.0001) %MON thSI_Tsrf_ave_G              =  -2.0100310733989E+01
(PID.TID 0000.0001) %MON thSI_Tsrf_ave_S              =  -7.4353364235791E-02
(PID.TID 0000.0001) %MON thSI_Tsrf_ave_N              =  -2.6468387078823E+01
(PID.TID 0000.0001) %MON thSI_Tsrf_min_S              =  -4.1400053858168E+00
(PID.TID 0000.0001) %MON thSI_Tsrf_min_N              =  -3.2705529319542E+01
(PID.TID 0000.0001) %MON thSI_Tsrf_max_S              =   0.0000000000000E+00
(PID.TID 0000.0001) %MON thSI_Tsrf_max_N              =  -5.3422229330408E+00
(PID.TID 0000.0001) %MON thSI_Tic1_ave_G              =  -1.1102469511650E+01
(PID.TID 0000.0001) %MON thSI_Tic1_ave_S              =  -1.2720879786099E+00
(PID.TID 0000.0001) %MON thSI_Tic1_ave_N              =  -1.2923209750477E+01
(PID.TID 0000.0001) %MON thSI_Tic1_min_S              =  -2.3561633989775E+00
(PID.TID 0000.0001) %MON thSI_Tic1_min_N              =  -1.8834915555236E+01
(PID.TID 0000.0001) %MON thSI_Tic1_max_S              =  -1.3426257463911E-01
(PID.TID 0000.0001) %MON thSI_Tic1_max_N              =  -2.4959877346585E+00
(PID.TID 0000.0001) %MON thSI_Tic2_ave_G              =  -4.7878027514407E+00
(PID.TID 0000.0001) %MON thSI_Tic2_ave_S              =  -1.5968431558375E+00
(PID.TID 0000.0001) %MON thSI_Tic2_ave_N              =  -5.3788183205369E+00
(PID.TID 0000.0001) %MON thSI_Tic2_min_S              =  -1.9998273321053E+00
(PID.TID 0000.0001) %MON thSI_Tic2_min_N              =  -8.3006125221950E+00
(PID.TID 0000.0001) %MON thSI_Tic2_max_S              =  -8.7280195100279E-01
(PID.TID 0000.0001) %MON thSI_Tic2_max_N              =  -2.0218290671038E+00
(PID.TID 0000.0001) %MON thSI_TotEnerg_G              =  -9.8952114337641E+21
(PID.TID 0000.0001) // =======================================================
(PID.TID 0000.0001) // End MONITOR Therm.SeaIce statistics
(PID.TID 0000.0001) // =======================================================
 cg2d: Sum(rhs),rhsMax =   2.21577541275526E+03  2.15409705874295E+01
(PID.TID 0000.0001)      cg2d_init_res =   1.89928665314329E+01
(PID.TID 0000.0001)      cg2d_iters(min,last) =      -1      71
(PID.TID 0000.0001)      cg2d_last_res =   5.80080638892350E-07
(PID.TID 0000.0001) // =======================================================
(PID.TID 0000.0001) // Begin MONITOR dynamic field statistics
(PID.TID 0000.0001) // =======================================================
(PID.TID 0000.0001) %MON time_tsnumber                =                 72009
(PID.TID 0000.0001) %MON time_secondsf                =   6.2215776000000E+09
(PID.TID 0000.0001) %MON dynstat_eta_max              =  -2.2067984281007E+00
(PID.TID 0000.0001) %MON dynstat_eta_min              =  -8.4923203027952E+00
(PID.TID 0000.0001) %MON dynstat_eta_mean             =  -3.2956181183190E+00
(PID.TID 0000.0001) %MON dynstat_eta_sd               =   8.7755522787736E-01
(PID.TID 0000.0001) %MON dynstat_eta_del2             =   2.8429975508598E-03
(PID.TID 0000.0001) %MON dynstat_uvel_max             =   2.1568616545046E-01
(PID.TID 0000.0001) %MON dynstat_uvel_min             =  -2.8816914284519E-01
(PID.TID 0000.0001) %MON dynstat_uvel_mean            =  -5.2639050268309E-04
(PID.TID 0000.0001) %MON dynstat_uvel_sd              =   1.4780600786364E-02
(PID.TID 0000.0001) %MON dynstat_uvel_del2            =   6.7729161203585E-05
(PID.TID 0000.0001) %MON dynstat_vvel_max             =   2.1518061984696E-01
(PID.TID 0000.0001) %MON dynstat_vvel_min             =  -2.0175636821485E-01
(PID.TID 0000.0001) %MON dynstat_vvel_mean            =  -3.9217876190898E-04
(PID.TID 0000.0001) %MON dynstat_vvel_sd              =   1.5281324527959E-02
(PID.TID 0000.0001) %MON dynstat_vvel_del2            =   6.2674106515742E-05
(PID.TID 0000.0001) %MON dynstat_wvel_max             =   1.0758065809373E-04
(PID.TID 0000.0001) %MON dynstat_wvel_min             =  -2.1547418642625E-04
(PID.TID 0000.0001) %MON dynstat_wvel_mean            =  -3.2243289187158E-09
(PID.TID 0000.0001) %MON dynstat_wvel_sd              =   5.4153217718006E-06
(PID.TID 0000.0001) %MON dynstat_wvel_del2            =   4.9933063274838E-08
(PID.TID 0000.0001) %MON dynstat_theta_max            =   3.1222536048173E+01
(PID.TID 0000.0001) %MON dynstat_theta_min            =  -2.7642322715570E+00
(PID.TID 0000.0001) %MON dynstat_theta_mean           =   3.0545796333506E+00
(PID.TID 0000.0001) %MON dynstat_theta_sd             =   4.9975232774612E+00
(PID.TID 0000.0001) %MON dynstat_theta_del2           =   2.8078903752519E-03
(PID.TID 0000.0001) %MON dynstat_salt_max             =   5.8603358865663E+01
(PID.TID 0000.0001) %MON dynstat_salt_min             =   1.7776239463260E+01
(PID.TID 0000.0001) %MON dynstat_salt_mean            =   3.4752480441298E+01
(PID.TID 0000.0001) %MON dynstat_salt_sd              =   4.8851582229663E-01
(PID.TID 0000.0001) %MON dynstat_salt_del2            =   1.2771477105923E-03
(PID.TID 0000.0001) %MON forcing_qnet_max             =   6.0185044053877E+02
(PID.TID 0000.0001) %MON forcing_qnet_min             =  -2.4845983085289E+02
(PID.TID 0000.0001) %MON forcing_qnet_mean            =  -2.8386156035640E+01
(PID.TID 0000.0001) %MON forcing_qnet_sd              =   1.1779212895131E+02
(PID.TID 0000.0001) %MON forcing_qnet_del2            =   9.2881098089273E-01
(PID.TID 0000.0001) %MON forcing_qsw_max              =  -0.0000000000000E+00
(PID.TID 0000.0001) %MON forcing_qsw_min              =  -3.0180730070724E+02
(PID.TID 0000.0001) %MON forcing_qsw_mean             =  -1.8340557694020E+02
(PID.TID 0000.0001) %MON forcing_qsw_sd               =   7.9259153201155E+01
(PID.TID 0000.0001) %MON forcing_qsw_del2             =   3.0281733582645E-01
(PID.TID 0000.0001) %MON forcing_empmr_max            =   8.0231603687655E-04
(PID.TID 0000.0001) %MON forcing_empmr_min            =  -4.4868690494533E-04
(PID.TID 0000.0001) %MON forcing_empmr_mean           =  -5.1751061222074E-06
(PID.TID 0000.0001) %MON forcing_empmr_sd             =   5.2970000782495E-05
(PID.TID 0000.0001) %MON forcing_empmr_del2           =   9.2667882183977E-07
(PID.TID 0000.0001) %MON forcing_fu_max               =   2.4734156444157E-01
(PID.TID 0000.0001) %MON forcing_fu_min               =  -2.3124407967036E-01
(PID.TID 0000.0001) %MON forcing_fu_mean              =  -4.1565702432618E-03
(PID.TID 0000.0001) %MON forcing_fu_sd                =   6.4507945848906E-02
(PID.TID 0000.0001) %MON forcing_fu_del2              =   2.1494094672237E-04
(PID.TID 0000.0001) %MON forcing_fv_max               =   2.7696015458957E-01
(PID.TID 0000.0001) %MON forcing_fv_min               =  -3.3401105942538E-01
(PID.TID 0000.0001) %MON forcing_fv_mean              =  -1.3719831432204E-02
(PID.TID 0000.0001) %MON forcing_fv_sd                =   7.5878609891640E-02
(PID.TID 0000.0001) %MON forcing_fv_del2              =   2.4254447090673E-04
(PID.TID 0000.0001) %MON advcfl_uvel_max              =   8.5590478886429E-02
(PID.TID 0000.0001) %MON advcfl_vvel_max              =   8.3365445692607E-02
(PID.TID 0000.0001) %MON advcfl_wvel_max              =   7.0252715876332E-02
(PID.TID 0000.0001) %MON advcfl_W_hf_max              =   7.7724867765022E-02
(PID.TID 0000.0001) %MON pe_b_mean                    =   1.4313253556397E-02
(PID.TID 0000.0001) %MON ke_max                       =   4.0914355782077E-02
(PID.TID 0000.0001) %MON ke_mean                      =   2.0889580723703E-04
(PID.TID 0000.0001) %MON ke_vol                       =   1.3386030564353E+18
(PID.TID 0000.0001) %MON vort_r_min                   =  -1.2762079650075E-06
(PID.TID 0000.0001) %MON vort_r_max                   =   1.2812078519740E-06
(PID.TID 0000.0001) %MON vort_a_mean                  =  -2.0549865324846E-05
(PID.TID 0000.0001) %MON vort_a_sd                    =   7.5259721542597E-05
(PID.TID 0000.0001) %MON vort_p_mean                  =  -2.4806313695211E-05
(PID.TID 0000.0001) %MON vort_p_sd                    =   1.2827578773270E-04
(PID.TID 0000.0001) %MON surfExpan_theta_mean         =  -4.9146089149374E-08
(PID.TID 0000.0001) %MON surfExpan_salt_mean          =   1.5690345693823E-08
(PID.TID 0000.0001) // =======================================================
(PID.TID 0000.0001) // End MONITOR dynamic field statistics
(PID.TID 0000.0001) // =======================================================
(PID.TID 0000.0001) // =======================================================
(PID.TID 0000.0001) // Begin MONITOR Therm.SeaIce statistics
(PID.TID 0000.0001) // =======================================================
(PID.TID 0000.0001) %MON thSI_time_sec                =   6.2215776000000E+09
(PID.TID 0000.0001) %MON thSI_Ice_Area_G              =   1.6443556611933E+13
(PID.TID 0000.0001) %MON thSI_Ice_Area_S              =   3.8636600070073E+12
(PID.TID 0000.0001) %MON thSI_Ice_Area_N              =   1.2579896604926E+13
(PID.TID 0000.0001) %MON thSI_IceH_ave_G              =   1.8392852171213E+00
(PID.TID 0000.0001) %MON thSI_IceH_ave_S              =   1.1895563124580E+00
(PID.TID 0000.0001) %MON thSI_IceH_ave_N              =   2.0388362677525E+00
(PID.TID 0000.0001) %MON thSI_IceH_max_S              =   2.1111711651603E+00
(PID.TID 0000.0001) %MON thSI_IceH_max_N              =   5.2090422914958E+00
(PID.TID 0000.0001) %MON thSI_SnwH_ave_G              =   2.1926208434280E-01
(PID.TID 0000.0001) %MON thSI_SnwH_ave_S              =   1.7301608275428E-01
(PID.TID 0000.0001) %MON thSI_SnwH_ave_N              =   2.3346560543944E-01
(PID.TID 0000.0001) %MON thSI_SnwH_max_S              =   5.5942492769639E-01
(PID.TID 0000.0001) %MON thSI_SnwH_max_N              =   4.6621918668703E-01
(PID.TID 0000.0001) %MON thSI_Tsrf_ave_G              =  -2.0272722118382E+01
(PID.TID 0000.0001) %MON thSI_Tsrf_ave_S              =  -8.7808623899453E-02
(PID.TID 0000.0001) %MON thSI_Tsrf_ave_N              =  -2.6472108763818E+01
(PID.TID 0000.0001) %MON thSI_Tsrf_min_S              =  -4.1453584748808E+00
(PID.TID 0000.0001) %MON thSI_Tsrf_min_N              =  -3.2702980389395E+01
(PID.TID 0000.0001) %MON thSI_Tsrf_max_S              =   0.0000000000000E+00
(PID.TID 0000.0001) %MON thSI_Tsrf_max_N              =  -1.7839140432275E+00
(PID.TID 0000.0001) %MON thSI_Tic1_ave_G              =  -1.1154193156535E+01
(PID.TID 0000.0001) %MON thSI_Tic1_ave_S              =  -1.2556781216892E+00
(PID.TID 0000.0001) %MON thSI_Tic1_ave_N              =  -1.2927951835662E+01
(PID.TID 0000.0001) %MON thSI_Tic1_min_S              =  -2.3395510501386E+00
(PID.TID 0000.0001) %MON thSI_Tic1_min_N              =  -1.8884549916771E+01
(PID.TID 0000.0001) %MON thSI_Tic1_max_S              =  -1.2858610527242E-01
(PID.TID 0000.0001) %MON thSI_Tic1_max_N              =  -1.7839140432275E+00
(PID.TID 0000.0001) %MON thSI_Tic2_ave_G              =  -4.8077151377767E+00
(PID.TID 0000.0001) %MON thSI_Tic2_ave_S              =  -1.5885697509999E+00
(PID.TID 0000.0001) %MON thSI_Tic2_ave_N              =  -5.3845680343036E+00
(PID.TID 0000.0001) %MON thSI_Tic2_min_S              =  -1.9882276850004E+00
(PID.TID 0000.0001) %MON thSI_Tic2_min_N              =  -8.2872272644283E+00
(PID.TID 0000.0001) %MON thSI_Tic2_max_S              =  -8.3599016083524E-01
(PID.TID 0000.0001) %MON thSI_Tic2_max_N              =  -1.7839140432275E+00
(PID.TID 0000.0001) %MON thSI_TotEnerg_G              =  -9.8876119861927E+21
(PID.TID 0000.0001) // =======================================================
(PID.TID 0000.0001) // End MONITOR Therm.SeaIce statistics
(PID.TID 0000.0001) // =======================================================
 BB: not converge: i,j,it,hi=  10  11   6   1       72009    0.200000000
 BB: not converge: Tsf, dTsf=  -7.6252266970990563       -5.8413126538715172     
 BB: not converge: flxNet,dFlxT=  -261.01644936528453       -32.148110670562033     
 cg2d: Sum(rhs),rhsMax =   2.21549436546625E+03  2.15774582000144E+01
(PID.TID 0000.0001)      cg2d_init_res =   1.89891591808226E+01
(PID.TID 0000.0001)      cg2d_iters(min,last) =      -1      74
(PID.TID 0000.0001)      cg2d_last_res =   4.27550885113469E-07
(PID.TID 0000.0001) // =======================================================
(PID.TID 0000.0001) // Begin MONITOR dynamic field statistics
(PID.TID 0000.0001) // =======================================================
(PID.TID 0000.0001) %MON time_tsnumber                =                 72010
(PID.TID 0000.0001) %MON time_secondsf                =   6.2216640000000E+09
(PID.TID 0000.0001) %MON dynstat_eta_max              =  -2.2061647333057E+00
(PID.TID 0000.0001) %MON dynstat_eta_min              =  -8.4894406609723E+00
(PID.TID 0000.0001) %MON dynstat_eta_mean             =  -3.2952001045924E+00
(PID.TID 0000.0001) %MON dynstat_eta_sd               =   8.7668578448365E-01
(PID.TID 0000.0001) %MON dynstat_eta_del2             =   2.8333232981307E-03
(PID.TID 0000.0001) %MON dynstat_uvel_max             =   2.1593760705517E-01
(PID.TID 0000.0001) %MON dynstat_uvel_min             =  -2.8761565593625E-01
(PID.TID 0000.0001) %MON dynstat_uvel_mean            =  -5.2586904695201E-04
(PID.TID 0000.0001) %MON dynstat_uvel_sd              =   1.4776327823778E-02
(PID.TID 0000.0001) %MON dynstat_uvel_del2            =   6.7665745573952E-05
(PID.TID 0000.0001) %MON dynstat_vvel_max             =   2.1399448467161E-01
(PID.TID 0000.0001) %MON dynstat_vvel_min             =  -2.0178141315003E-01
(PID.TID 0000.0001) %MON dynstat_vvel_mean            =  -3.9061497242628E-04
(PID.TID 0000.0001) %MON dynstat_vvel_sd              =   1.5280212178783E-02
(PID.TID 0000.0001) %MON dynstat_vvel_del2            =   6.2608229124361E-05
(PID.TID 0000.0001) %MON dynstat_wvel_max             =   1.0850496391864E-04
(PID.TID 0000.0001) %MON dynstat_wvel_min             =  -2.1553628491398E-04
(PID.TID 0000.0001) %MON dynstat_wvel_mean            =  -3.2317879311918E-09
(PID.TID 0000.0001) %MON dynstat_wvel_sd              =   5.4241179265968E-06
(PID.TID 0000.0001) %MON dynstat_wvel_del2            =   4.9994418042344E-08
(PID.TID 0000.0001) %MON dynstat_theta_max            =   3.1223440530200E+01
(PID.TID 0000.0001) %MON dynstat_theta_min            =  -2.7815375967271E+00
(PID.TID 0000.0001) %MON dynstat_theta_mean           =   3.0547414438715E+00
(PID.TID 0000.0001) %MON dynstat_theta_sd             =   4.9978721820931E+00
(PID.TID 0000.0001) %MON dynstat_theta_del2           =   2.7953386450539E-03
(PID.TID 0000.0001) %MON dynstat_salt_max             =   5.8523209312142E+01
(PID.TID 0000.0001) %MON dynstat_salt_min             =   1.7776261924403E+01
(PID.TID 0000.0001) %MON dynstat_salt_mean            =   3.4752476579700E+01
(PID.TID 0000.0001) %MON dynstat_salt_sd              =   4.8845940282749E-01
(PID.TID 0000.0001) %MON dynstat_salt_del2            =   1.2703030875319E-03
(PID.TID 0000.0001) %MON forcing_qnet_max             =   6.0167736739271E+02
(PID.TID 0000.0001) %MON forcing_qnet_min             =  -2.4807355125026E+02
(PID.TID 0000.0001) %MON forcing_qnet_mean            =  -2.8324920344668E+01
(PID.TID 0000.0001) %MON forcing_qnet_sd              =   1.1772369075191E+02
(PID.TID 0000.0001) %MON forcing_qnet_del2            =   9.3286329853787E-01
(PID.TID 0000.0001) %MON forcing_qsw_max              =  -0.0000000000000E+00
(PID.TID 0000.0001) %MON forcing_qsw_min              =  -3.0179530377143E+02
(PID.TID 0000.0001) %MON forcing_qsw_mean             =  -1.8349267728012E+02
(PID.TID 0000.0001) %MON forcing_qsw_sd               =   7.9198190721075E+01
(PID.TID 0000.0001) %MON forcing_qsw_del2             =   2.9985386327911E-01
(PID.TID 0000.0001) %MON forcing_empmr_max            =   7.8446077211353E-04
(PID.TID 0000.0001) %MON forcing_empmr_min            =  -4.5085699003274E-04
(PID.TID 0000.0001) %MON forcing_empmr_mean           =  -5.0074561007004E-06
(PID.TID 0000.0001) %MON forcing_empmr_sd             =   5.3933397032883E-05
(PID.TID 0000.0001) %MON forcing_empmr_del2           =   9.4023267030549E-07
(PID.TID 0000.0001) %MON forcing_fu_max               =   2.4760593894036E-01
(PID.TID 0000.0001) %MON forcing_fu_min               =  -2.3438987632871E-01
(PID.TID 0000.0001) %MON forcing_fu_mean              =  -4.1130913075284E-03
(PID.TID 0000.0001) %MON forcing_fu_sd                =   6.4637716330841E-02
(PID.TID 0000.0001) %MON forcing_fu_del2              =   2.1715397508819E-04
(PID.TID 0000.0001) %MON forcing_fv_max               =   2.7964339616220E-01
(PID.TID 0000.0001) %MON forcing_fv_min               =  -3.3479896335931E-01
(PID.TID 0000.0001) %MON forcing_fv_mean              =  -1.3723756978131E-02
(PID.TID 0000.0001) %MON forcing_fv_sd                =   7.6010073816084E-02
(PID.TID 0000.0001) %MON forcing_fv_del2              =   2.4447772305236E-04
(PID.TID 0000.0001) %MON advcfl_uvel_max              =   8.5690258152817E-02
(PID.TID 0000.0001) %MON advcfl_vvel_max              =   8.3317516204043E-02
(PID.TID 0000.0001) %MON advcfl_wvel_max              =   7.0272962326671E-02
(PID.TID 0000.0001) %MON advcfl_W_hf_max              =   7.7747242676515E-02
(PID.TID 0000.0001) %MON pe_b_mean                    =   1.4309174731441E-02
(PID.TID 0000.0001) %MON ke_max                       =   4.0752784178148E-02
(PID.TID 0000.0001) %MON ke_mean                      =   2.0882120896024E-04
(PID.TID 0000.0001) %MON ke_vol                       =   1.3386032136376E+18
(PID.TID 0000.0001) %MON vort_r_min                   =  -1.2821989849286E-06
(PID.TID 0000.0001) %MON vort_r_max                   =   1.2780735297268E-06
(PID.TID 0000.0001) %MON vort_a_mean                  =  -2.0549865324846E-05
(PID.TID 0000.0001) %MON vort_a_sd                    =   7.5259721333973E-05
(PID.TID 0000.0001) %MON vort_p_mean                  =  -2.4806310375239E-05
(PID.TID 0000.0001) %MON vort_p_sd                    =   1.2827575873976E-04
(PID.TID 0000.0001) %MON surfExpan_theta_mean         =  -5.1268149358046E-08
(PID.TID 0000.0001) %MON surfExpan_salt_mean          =   1.6017693432956E-08
(PID.TID 0000.0001) // =======================================================
(PID.TID 0000.0001) // End MONITOR dynamic field statistics
(PID.TID 0000.0001) // =======================================================
(PID.TID 0000.0001) // =======================================================
(PID.TID 0000.0001) // Begin MONITOR Therm.SeaIce statistics
(PID.TID 0000.0001) // =======================================================
(PID.TID 0000.0001) %MON thSI_time_sec                =   6.2216640000000E+09
(PID.TID 0000.0001) %MON thSI_Ice_Area_G              =   1.6385687473270E+13
(PID.TID 0000.0001) %MON thSI_Ice_Area_S              =   3.7385748694918E+12
(PID.TID 0000.0001) %MON thSI_Ice_Area_N              =   1.2647112603778E+13
(PID.TID 0000.0001) %MON thSI_IceH_ave_G              =   1.8441189358656E+00
(PID.TID 0000.0001) %MON thSI_IceH_ave_S              =   1.1934749823915E+00
(PID.TID 0000.0001) %MON thSI_IceH_ave_N              =   2.0364538355105E+00
(PID.TID 0000.0001) %MON thSI_IceH_max_S              =   2.1094178645904E+00
(PID.TID 0000.0001) %MON thSI_IceH_max_N              =   5.2099759107814E+00
(PID.TID 0000.0001) %MON thSI_SnwH_ave_G              =   2.2013250903408E-01
(PID.TID 0000.0001) %MON thSI_SnwH_ave_S              =   1.7033112590829E-01
(PID.TID 0000.0001) %MON thSI_SnwH_ave_N              =   2.3485414592093E-01
(PID.TID 0000.0001) %MON thSI_SnwH_max_S              =   5.5570681564690E-01
(PID.TID 0000.0001) %MON thSI_SnwH_max_N              =   4.7203654018105E-01
(PID.TID 0000.0001) %MON thSI_Tsrf_ave_G              =  -2.0450354573150E+01
(PID.TID 0000.0001) %MON thSI_Tsrf_ave_S              =  -7.8004305228984E-02
(PID.TID 0000.0001) %MON thSI_Tsrf_ave_N              =  -2.6472563683661E+01
(PID.TID 0000.0001) %MON thSI_Tsrf_min_S              =  -4.1448931972447E+00
(PID.TID 0000.0001) %MON thSI_Tsrf_min_N              =  -3.2700481762134E+01
(PID.TID 0000.0001) %MON thSI_Tsrf_max_S              =   0.0000000000000E+00
(PID.TID 0000.0001) %MON thSI_Tsrf_max_N              =  -1.8003565948194E+00
(PID.TID 0000.0001) %MON thSI_Tic1_ave_G              =  -1.1205782058228E+01
(PID.TID 0000.0001) %MON thSI_Tic1_ave_S              =  -1.2421768623774E+00
(PID.TID 0000.0001) %MON thSI_Tic1_ave_N              =  -1.2931897976888E+01
(PID.TID 0000.0001) %MON thSI_Tic1_min_S              =  -2.3249140943229E+00
(PID.TID 0000.0001) %MON thSI_Tic1_min_N              =  -1.8955171467626E+01
(PID.TID 0000.0001) %MON thSI_Tic1_max_S              =  -1.1886614058847E-01
(PID.TID 0000.0001) %MON thSI_Tic1_max_N              =  -1.8003565948194E+00
(PID.TID 0000.0001) %MON thSI_Tic2_ave_G              =  -4.8276553072501E+00
(PID.TID 0000.0001) %MON thSI_Tic2_ave_S              =  -1.5835074102532E+00
(PID.TID 0000.0001) %MON thSI_Tic2_ave_N              =  -5.3896783117169E+00
(PID.TID 0000.0001) %MON thSI_Tic2_min_S              =  -1.9770515870049E+00
(PID.TID 0000.0001) %MON thSI_Tic2_min_N              =  -8.2658990545356E+00
(PID.TID 0000.0001) %MON thSI_Tic2_max_S              =  -8.0154323154514E-01
(PID.TID 0000.0001) %MON thSI_Tic2_max_N              =  -1.8003565948194E+00
(PID.TID 0000.0001) %MON thSI_TotEnerg_G              =  -9.8817940604290E+21
(PID.TID 0000.0001) // =======================================================
(PID.TID 0000.0001) // End MONITOR Therm.SeaIce statistics
(PID.TID 0000.0001) // =======================================================
(PID.TID 0000.0001) %CHECKPOINT     72010 ckptA
 --> f_ice     = 0.000000000000000D+00
 --> f_smrarea = 0.000000000000000D+00
 --> f_smrarea = 0.000000000000000D+00
 --> f_smrarea = 0.000000000000000D+00
 --> objf_test(bi,bj)   =  0.997447570140583D+04
 --> objf_tracer(bi,bj) =  0.000000000000000D+00
 --> objf_atl(bi,bj)    =  0.000000000000000D+00
 --> objf_test(bi,bj)   =  0.742919495644946D+04
 --> objf_tracer(bi,bj) =  0.000000000000000D+00
 --> objf_atl(bi,bj)    =  0.000000000000000D+00
 --> objf_test(bi,bj)   =  0.939735963374287D+04
 --> objf_tracer(bi,bj) =  0.000000000000000D+00
 --> objf_atl(bi,bj)    =  0.000000000000000D+00
 --> objf_test(bi,bj)   =  0.778882104199971D+04
 --> objf_tracer(bi,bj) =  0.000000000000000D+00
 --> objf_atl(bi,bj)    =  0.000000000000000D+00
 --> objf_test(bi,bj)   =  0.632699972629785D+04
 --> objf_tracer(bi,bj) =  0.000000000000000D+00
 --> objf_atl(bi,bj)    =  0.000000000000000D+00
 --> objf_test(bi,bj)   =  0.121417770557832D+05
 --> objf_tracer(bi,bj) =  0.000000000000000D+00
 --> objf_atl(bi,bj)    =  0.000000000000000D+00
 --> objf_test(bi,bj)   =  0.130041766996359D+05
 --> objf_tracer(bi,bj) =  0.000000000000000D+00
 --> objf_atl(bi,bj)    =  0.000000000000000D+00
 --> objf_test(bi,bj)   =  0.135464983471987D+05
 --> objf_tracer(bi,bj) =  0.000000000000000D+00
 --> objf_atl(bi,bj)    =  0.000000000000000D+00
 --> objf_test(bi,bj)   =  0.714246243714162D+04
 --> objf_tracer(bi,bj) =  0.000000000000000D+00
 --> objf_atl(bi,bj)    =  0.000000000000000D+00
 --> objf_test(bi,bj)   =  0.665337968398322D+04
 --> objf_tracer(bi,bj) =  0.000000000000000D+00
 --> objf_atl(bi,bj)    =  0.000000000000000D+00
 --> objf_test(bi,bj)   =  0.100031724175835D+05
 --> objf_tracer(bi,bj) =  0.000000000000000D+00
 --> objf_atl(bi,bj)    =  0.000000000000000D+00
 --> objf_test(bi,bj)   =  0.867214759928737D+04
 --> objf_tracer(bi,bj) =  0.000000000000000D+00
 --> objf_atl(bi,bj)    =  0.000000000000000D+00
  local fc =  0.112080465300509D+06
 global fc =  0.112080465300509D+06
(PID.TID 0000.0001) whio : write lev 2 rec   1
 BB: not converge: i,j,it,hi=  26   9   5   1       72000    0.398435537
 BB: not converge: Tsf, dTsf=  -13.480309430606207      -0.52556488604372531     
 BB: not converge: flxNet,dFlxT=  -73.550946810577869       -27.648387772720866     
 BB: not converge: i,j,it,hi=  15   6  12   1       72000    0.976808171
 BB: not converge: Tsf, dTsf=  -4.0625086296354231        1.2219951917621812     
 BB: not converge: flxNet,dFlxT=   26.749207585963717       -22.820714164491189     
(PID.TID 0000.0001) SOLVE_FOR_PRESSURE: putPmEinXvector =    F
 cg2d: Sum(rhs),rhsMax =   2.21834535105376E+03  2.10925029947484E+01
(PID.TID 0000.0001) whio : write lev 2 rec   2
 cg2d: Sum(rhs),rhsMax =   2.21800836064890E+03  2.12029948324505E+01
(PID.TID 0000.0001) whio : write lev 2 rec   3
 cg2d: Sum(rhs),rhsMax =   2.21766844426785E+03  2.12393113038030E+01
(PID.TID 0000.0001) whio : write lev 2 rec   4
 cg2d: Sum(rhs),rhsMax =   2.21734622765936E+03  2.12960813098568E+01
(PID.TID 0000.0001) whio : write lev 2 rec   5
 cg2d: Sum(rhs),rhsMax =   2.21702018208835E+03  2.13515723876122E+01
(PID.TID 0000.0001) whio : write lev 2 rec   6
 cg2d: Sum(rhs),rhsMax =   2.21669863012535E+03  2.14042534337258E+01
(PID.TID 0000.0001) whio : write lev 2 rec   7
 cg2d: Sum(rhs),rhsMax =   2.21637328466701E+03  2.14537629142059E+01
(PID.TID 0000.0001) whio : write lev 2 rec   8
 cg2d: Sum(rhs),rhsMax =   2.21606586952945E+03  2.14995310145825E+01
(PID.TID 0000.0001) whio : write lev 2 rec   9
 cg2d: Sum(rhs),rhsMax =   2.21577541275526E+03  2.15409705874295E+01
(PID.TID 0000.0001) whio : write lev 2 rec  10
 BB: not converge: i,j,it,hi=  10  11   6   1       72009    0.200000000
 BB: not converge: Tsf, dTsf=  -7.6252266970990563       -5.8413126538715172     
 BB: not converge: flxNet,dFlxT=  -261.01644936528453       -32.148110670562033     
 cg2d: Sum(rhs),rhsMax =   2.21549436546625E+03  2.15774582000144E+01
(PID.TID 0000.0001) Did not write pickup because writePickupAtEnd = FALSE
(PID.TID 0000.0001) whio : write lev 2 rec  11
 cg2d: Sum(rhs),rhsMax =   2.21549436546625E+03  2.15774582000144E+01
(PID.TID 0000.0001) Did not write pickup because writePickupAtEnd = FALSE
 BB: not converge: i,j,it,hi=  10  11   6   1       72009    0.200000000
 BB: not converge: Tsf, dTsf=  -7.6252266970990563       -5.8413126538715172     
 BB: not converge: flxNet,dFlxT=  -261.01644936528453       -32.148110670562033     
 cg2d: Sum(rhs),rhsMax =   2.21549436546625E+03  2.15774582000144E+01
(PID.TID 0000.0001) Did not write pickup because writePickupAtEnd = FALSE
(PID.TID 0000.0001) // =======================================================
(PID.TID 0000.0001) // Begin MONITOR dynamic field statistics
(PID.TID 0000.0001) // =======================================================
(PID.TID 0000.0001) %MON ad_time_tsnumber             =                 72010
(PID.TID 0000.0001) %MON ad_time_secondsf             =   6.2216640000000E+09
(PID.TID 0000.0001) %MON ad_dynstat_adeta_max         =   0.0000000000000E+00
(PID.TID 0000.0001) %MON ad_dynstat_adeta_min         =   0.0000000000000E+00
(PID.TID 0000.0001) %MON ad_dynstat_adeta_mean        =   0.0000000000000E+00
(PID.TID 0000.0001) %MON ad_dynstat_adeta_sd          =   0.0000000000000E+00
(PID.TID 0000.0001) %MON ad_dynstat_adeta_del2        =   0.0000000000000E+00
(PID.TID 0000.0001) %MON ad_dynstat_aduvel_max        =   0.0000000000000E+00
(PID.TID 0000.0001) %MON ad_dynstat_aduvel_min        =   0.0000000000000E+00
(PID.TID 0000.0001) %MON ad_dynstat_aduvel_mean       =   0.0000000000000E+00
(PID.TID 0000.0001) %MON ad_dynstat_aduvel_sd         =   0.0000000000000E+00
(PID.TID 0000.0001) %MON ad_dynstat_aduvel_del2       =   0.0000000000000E+00
(PID.TID 0000.0001) %MON ad_dynstat_advvel_max        =   0.0000000000000E+00
(PID.TID 0000.0001) %MON ad_dynstat_advvel_min        =   0.0000000000000E+00
(PID.TID 0000.0001) %MON ad_dynstat_advvel_mean       =   0.0000000000000E+00
(PID.TID 0000.0001) %MON ad_dynstat_advvel_sd         =   0.0000000000000E+00
(PID.TID 0000.0001) %MON ad_dynstat_advvel_del2       =   0.0000000000000E+00
(PID.TID 0000.0001) %MON ad_dynstat_adwvel_max        =   0.0000000000000E+00
(PID.TID 0000.0001) %MON ad_dynstat_adwvel_min        =   0.0000000000000E+00
(PID.TID 0000.0001) %MON ad_dynstat_adwvel_mean       =   0.0000000000000E+00
(PID.TID 0000.0001) %MON ad_dynstat_adwvel_sd         =   0.0000000000000E+00
(PID.TID 0000.0001) %MON ad_dynstat_adwvel_del2       =   0.0000000000000E+00
(PID.TID 0000.0001) %MON ad_dynstat_adtheta_max       =   2.3296217214586E+01
(PID.TID 0000.0001) %MON ad_dynstat_adtheta_min       =  -1.8418628599421E+01
(PID.TID 0000.0001) %MON ad_dynstat_adtheta_mean      =  -1.0958195116153E+00
(PID.TID 0000.0001) %MON ad_dynstat_adtheta_sd        =   2.3128076751969E+00
(PID.TID 0000.0001) %MON ad_dynstat_adtheta_del2      =   8.3881422827589E-03
(PID.TID 0000.0001) %MON ad_dynstat_adsalt_max        =   0.0000000000000E+00
(PID.TID 0000.0001) %MON ad_dynstat_adsalt_min        =   0.0000000000000E+00
(PID.TID 0000.0001) %MON ad_dynstat_adsalt_mean       =   0.0000000000000E+00
(PID.TID 0000.0001) %MON ad_dynstat_adsalt_sd         =   0.0000000000000E+00
(PID.TID 0000.0001) %MON ad_dynstat_adsalt_del2       =   0.0000000000000E+00
(PID.TID 0000.0001) %MON ad_forcing_adqnet_max        =   0.0000000000000E+00
(PID.TID 0000.0001) %MON ad_forcing_adqnet_min        =   0.0000000000000E+00
(PID.TID 0000.0001) %MON ad_forcing_adqnet_mean       =   0.0000000000000E+00
(PID.TID 0000.0001) %MON ad_forcing_adqnet_sd         =   0.0000000000000E+00
(PID.TID 0000.0001) %MON ad_forcing_adqnet_del2       =   0.0000000000000E+00
(PID.TID 0000.0001) %MON ad_forcing_adqsw_max         =   0.0000000000000E+00
(PID.TID 0000.0001) %MON ad_forcing_adqsw_min         =   0.0000000000000E+00
(PID.TID 0000.0001) %MON ad_forcing_adqsw_mean        =   0.0000000000000E+00
(PID.TID 0000.0001) %MON ad_forcing_adqsw_sd          =   0.0000000000000E+00
(PID.TID 0000.0001) %MON ad_forcing_adqsw_del2        =   0.0000000000000E+00
(PID.TID 0000.0001) %MON ad_forcing_adempmr_max       =   0.0000000000000E+00
(PID.TID 0000.0001) %MON ad_forcing_adempmr_min       =   0.0000000000000E+00
(PID.TID 0000.0001) %MON ad_forcing_adempmr_mean      =   0.0000000000000E+00
(PID.TID 0000.0001) %MON ad_forcing_adempmr_sd        =   0.0000000000000E+00
(PID.TID 0000.0001) %MON ad_forcing_adempmr_del2      =   0.0000000000000E+00
(PID.TID 0000.0001) %MON ad_forcing_adfu_max          =   0.0000000000000E+00
(PID.TID 0000.0001) %MON ad_forcing_adfu_min          =   0.0000000000000E+00
(PID.TID 0000.0001) %MON ad_forcing_adfu_mean         =   0.0000000000000E+00
(PID.TID 0000.0001) %MON ad_forcing_adfu_sd           =   0.0000000000000E+00
(PID.TID 0000.0001) %MON ad_forcing_adfu_del2         =   0.0000000000000E+00
(PID.TID 0000.0001) %MON ad_forcing_adfv_max          =   0.0000000000000E+00
(PID.TID 0000.0001) %MON ad_forcing_adfv_min          =   0.0000000000000E+00
(PID.TID 0000.0001) %MON ad_forcing_adfv_mean         =   0.0000000000000E+00
(PID.TID 0000.0001) %MON ad_forcing_adfv_sd           =   0.0000000000000E+00
(PID.TID 0000.0001) %MON ad_forcing_adfv_del2         =   0.0000000000000E+00
(PID.TID 0000.0001) // =======================================================
(PID.TID 0000.0001) // End MONITOR dynamic field statistics
(PID.TID 0000.0001) // =======================================================
 cg2d: Sum(rhs),rhsMax =   2.16840434497101E-19  1.92509607571866E-04
 BB: not converge: i,j,it,hi=  10  11   6   1       72009    0.200000000
 BB: not converge: Tsf, dTsf=  -7.6252266970990563       -5.8413126538715172     
 BB: not converge: flxNet,dFlxT=  -261.01644936528453       -32.148110670562033     
 BB: not converge: i,j,it,hi=  10  11   6   1       72009    0.200000000
 BB: not converge: Tsf, dTsf=  -7.6252266970990563       -5.8413126538715172     
 BB: not converge: flxNet,dFlxT=  -261.01644936528453       -32.148110670562033     
 BB: not converge: i,j,it,hi=  10  11   6   1       72009    0.200000000
 BB: not converge: Tsf, dTsf=  -7.6252266970990563       -5.8413126538715172     
 BB: not converge: flxNet,dFlxT=  -261.01644936528453       -32.148110670562033     
(PID.TID 0000.0001) // =======================================================
(PID.TID 0000.0001) // Begin AD_MONITOR EXF statistics for iwhen =  3
(PID.TID 0000.0001) // =======================================================
(PID.TID 0000.0001) %MON ad_exf_tsnumber              =                 72009
(PID.TID 0000.0001) %MON ad_exf_time_sec              =   6.2215776000000E+09
(PID.TID 0000.0001) %MON ad_exf_adfu_max              =   1.0401432175886E+00
(PID.TID 0000.0001) %MON ad_exf_adfu_min              =  -1.2201498367655E+00
(PID.TID 0000.0001) %MON ad_exf_adfu_mean             =   7.2346200401021E-03
(PID.TID 0000.0001) %MON ad_exf_adfu_sd               =   1.0592346967266E-01
(PID.TID 0000.0001) %MON ad_exf_adfu_del2             =   3.5312006636932E-03
(PID.TID 0000.0001) %MON ad_exf_adfv_max              =   7.8262832545523E-01
(PID.TID 0000.0001) %MON ad_exf_adfv_min              =  -6.7203958116532E-01
(PID.TID 0000.0001) %MON ad_exf_adfv_mean             =   6.9656021832436E-03
(PID.TID 0000.0001) %MON ad_exf_adfv_sd               =   9.9246144039969E-02
(PID.TID 0000.0001) %MON ad_exf_adfv_del2             =   3.4465618220661E-03
(PID.TID 0000.0001) %MON ad_exf_adqnet_max            =   7.0023435875151E-03
(PID.TID 0000.0001) %MON ad_exf_adqnet_min            =  -6.9597681743268E-03
(PID.TID 0000.0001) %MON ad_exf_adqnet_mean           =  -5.4140285864665E-04
(PID.TID 0000.0001) %MON ad_exf_adqnet_sd             =   1.1825998471259E-03
(PID.TID 0000.0001) %MON ad_exf_adqnet_del2           =   1.7741826436624E-05
(PID.TID 0000.0001) %MON ad_exf_adempmr_max           =   9.5155995436539E+01
(PID.TID 0000.0001) %MON ad_exf_adempmr_min           =  -1.6287964373448E+02
(PID.TID 0000.0001) %MON ad_exf_adempmr_mean          =  -1.1105826068958E+01
(PID.TID 0000.0001) %MON ad_exf_adempmr_sd            =   2.9520921946992E+01
(PID.TID 0000.0001) %MON ad_exf_adempmr_del2          =   4.0147930877422E-01
(PID.TID 0000.0001) // =======================================================
(PID.TID 0000.0001) // End AD_MONITOR EXF statistics for iwhen =  3
(PID.TID 0000.0001) // =======================================================
(PID.TID 0000.0001) // =======================================================
(PID.TID 0000.0001) // Begin AD_MONITOR EXF statistics for iwhen =  1
(PID.TID 0000.0001) // =======================================================
(PID.TID 0000.0001) %MON ad_exf_tsnumber              =                 72009
(PID.TID 0000.0001) %MON ad_exf_time_sec              =   6.2215776000000E+09
(PID.TID 0000.0001) %MON ad_exf_adustress_max         =   5.5862823310135E-01
(PID.TID 0000.0001) %MON ad_exf_adustress_min         =  -1.2201498367655E+00
(PID.TID 0000.0001) %MON ad_exf_adustress_mean        =   4.6990481751742E-03
(PID.TID 0000.0001) %MON ad_exf_adustress_sd          =   1.0337484335103E-01
(PID.TID 0000.0001) %MON ad_exf_adustress_del2        =   3.0936937584594E-03
(PID.TID 0000.0001) %MON ad_exf_advstress_max         =   7.8262832545523E-01
(PID.TID 0000.0001) %MON ad_exf_advstress_min         =  -6.7203958116532E-01
(PID.TID 0000.0001) %MON ad_exf_advstress_mean        =  -1.3868813397981E-04
(PID.TID 0000.0001) %MON ad_exf_advstress_sd          =   8.8755714685838E-02
(PID.TID 0000.0001) %MON ad_exf_advstress_del2        =   2.6166210980431E-03
(PID.TID 0000.0001) %MON ad_exf_adhflux_max           =   7.0023435875151E-03
(PID.TID 0000.0001) %MON ad_exf_adhflux_min           =  -6.9597681743268E-03
(PID.TID 0000.0001) %MON ad_exf_adhflux_mean          =  -5.4140285864665E-04
(PID.TID 0000.0001) %MON ad_exf_adhflux_sd            =   1.1825998471259E-03
(PID.TID 0000.0001) %MON ad_exf_adhflux_del2          =   1.7741826436624E-05
(PID.TID 0000.0001) %MON ad_exf_adsflux_max           =   9.5155995436539E+04
(PID.TID 0000.0001) %MON ad_exf_adsflux_min           =  -1.6287964373448E+05
(PID.TID 0000.0001) %MON ad_exf_adsflux_mean          =  -1.1105826068958E+04
(PID.TID 0000.0001) %MON ad_exf_adsflux_sd            =   2.9520921946992E+04
(PID.TID 0000.0001) %MON ad_exf_adsflux_del2          =   4.0147930877422E+02
(PID.TID 0000.0001) %MON ad_exf_adwspeed_max          =   0.0000000000000E+00
(PID.TID 0000.0001) %MON ad_exf_adwspeed_min          =   0.0000000000000E+00
(PID.TID 0000.0001) %MON ad_exf_adwspeed_mean         =   0.0000000000000E+00
(PID.TID 0000.0001) %MON ad_exf_adwspeed_sd           =   0.0000000000000E+00
(PID.TID 0000.0001) %MON ad_exf_adwspeed_del2         =   0.0000000000000E+00
(PID.TID 0000.0001) // =======================================================
(PID.TID 0000.0001) // End AD_MONITOR EXF statistics for iwhen =  1
(PID.TID 0000.0001) // =======================================================
(PID.TID 0000.0001) // =======================================================
(PID.TID 0000.0001) // Begin AD_MONITOR EXF statistics for iwhen =  2
(PID.TID 0000.0001) // =======================================================
(PID.TID 0000.0001) %MON ad_exf_tsnumber              =                 72009
(PID.TID 0000.0001) %MON ad_exf_time_sec              =   6.2215776000000E+09
(PID.TID 0000.0001) %MON ad_exf_adatemp_max           =   1.0124928050447E-01
(PID.TID 0000.0001) %MON ad_exf_adatemp_min           =  -9.1823604454693E-02
(PID.TID 0000.0001) %MON ad_exf_adatemp_mean          =   5.7416128723632E-03
(PID.TID 0000.0001) %MON ad_exf_adatemp_sd            =   1.5002026636586E-02
(PID.TID 0000.0001) %MON ad_exf_adatemp_del2          =   2.5356744786997E-04
(PID.TID 0000.0001) %MON ad_exf_adaqh_max             =   2.3338085693973E+02
(PID.TID 0000.0001) %MON ad_exf_adaqh_min             =  -3.1486914751345E+02
(PID.TID 0000.0001) %MON ad_exf_adaqh_mean            =   1.2644609174658E+01
(PID.TID 0000.0001) %MON ad_exf_adaqh_sd              =   3.6921874625452E+01
(PID.TID 0000.0001) %MON ad_exf_adaqh_del2            =   5.9073620199298E-01
(PID.TID 0000.0001) %MON ad_exf_adlwflux_max          =   0.0000000000000E+00
(PID.TID 0000.0001) %MON ad_exf_adlwflux_min          =   0.0000000000000E+00
(PID.TID 0000.0001) %MON ad_exf_adlwflux_mean         =   0.0000000000000E+00
(PID.TID 0000.0001) %MON ad_exf_adlwflux_sd           =   0.0000000000000E+00
(PID.TID 0000.0001) %MON ad_exf_adlwflux_del2         =   0.0000000000000E+00
(PID.TID 0000.0001) %MON ad_exf_adprecip_max          =   1.6287964373448E+05
(PID.TID 0000.0001) %MON ad_exf_adprecip_min          =  -9.5155995436539E+04
(PID.TID 0000.0001) %MON ad_exf_adprecip_mean         =   1.1094489325751E+04
(PID.TID 0000.0001) %MON ad_exf_adprecip_sd           =   2.9552177862449E+04
(PID.TID 0000.0001) %MON ad_exf_adprecip_del2         =   4.0263765945829E+02
(PID.TID 0000.0001) %MON ad_exf_adswflux_max          =   0.0000000000000E+00
(PID.TID 0000.0001) %MON ad_exf_adswflux_min          =   0.0000000000000E+00
(PID.TID 0000.0001) %MON ad_exf_adswflux_mean         =   0.0000000000000E+00
(PID.TID 0000.0001) %MON ad_exf_adswflux_sd           =   0.0000000000000E+00
(PID.TID 0000.0001) %MON ad_exf_adswflux_del2         =   0.0000000000000E+00
(PID.TID 0000.0001) %MON ad_exf_adswdown_max          =   6.5004234748212E-03
(PID.TID 0000.0001) %MON ad_exf_adswdown_min          =  -6.5401889107391E-03
(PID.TID 0000.0001) %MON ad_exf_adswdown_mean         =   4.9885613081341E-04
(PID.TID 0000.0001) %MON ad_exf_adswdown_sd           =   1.0762379805597E-03
(PID.TID 0000.0001) %MON ad_exf_adswdown_del2         =   1.6179467306403E-05
(PID.TID 0000.0001) %MON ad_exf_adlwdown_max          =   6.9597681743268E-03
(PID.TID 0000.0001) %MON ad_exf_adlwdown_min          =  -7.0023435875151E-03
(PID.TID 0000.0001) %MON ad_exf_adlwdown_mean         =   5.4146448818425E-04
(PID.TID 0000.0001) %MON ad_exf_adlwdown_sd           =   1.1826575954806E-03
(PID.TID 0000.0001) %MON ad_exf_adlwdown_del2         =   1.7743979134870E-05
(PID.TID 0000.0001) // =======================================================
(PID.TID 0000.0001) // End AD_MONITOR EXF statistics for iwhen =  2
(PID.TID 0000.0001) // =======================================================
 cg2d: Sum(rhs),rhsMax =   2.21577541275526E+03  2.15409705874295E+01
 cg2d: Sum(rhs),rhsMax =   2.21577541275526E+03  2.15409705874295E+01
(PID.TID 0000.0001) // =======================================================
(PID.TID 0000.0001) // Begin MONITOR dynamic field statistics
(PID.TID 0000.0001) // =======================================================
(PID.TID 0000.0001) %MON ad_time_tsnumber             =                 72009
(PID.TID 0000.0001) %MON ad_time_secondsf             =   6.2215776000000E+09
(PID.TID 0000.0001) %MON ad_dynstat_adeta_max         =   0.0000000000000E+00
(PID.TID 0000.0001) %MON ad_dynstat_adeta_min         =   0.0000000000000E+00
(PID.TID 0000.0001) %MON ad_dynstat_adeta_mean        =   0.0000000000000E+00
(PID.TID 0000.0001) %MON ad_dynstat_adeta_sd          =   0.0000000000000E+00
(PID.TID 0000.0001) %MON ad_dynstat_adeta_del2        =   0.0000000000000E+00
(PID.TID 0000.0001) %MON ad_dynstat_aduvel_max        =   2.2255598226570E+01
(PID.TID 0000.0001) %MON ad_dynstat_aduvel_min        =  -3.3750047289613E+01
(PID.TID 0000.0001) %MON ad_dynstat_aduvel_mean       =   1.6834511176457E-02
(PID.TID 0000.0001) %MON ad_dynstat_aduvel_sd         =   1.1971667410051E+00
(PID.TID 0000.0001) %MON ad_dynstat_aduvel_del2       =   1.1218829530833E-02
(PID.TID 0000.0001) %MON ad_dynstat_advvel_max        =   2.0799596446243E+01
(PID.TID 0000.0001) %MON ad_dynstat_advvel_min        =  -1.6756346733959E+01
(PID.TID 0000.0001) %MON ad_dynstat_advvel_mean       =  -4.9379014907998E-02
(PID.TID 0000.0001) %MON ad_dynstat_advvel_sd         =   1.1115946582583E+00
(PID.TID 0000.0001) %MON ad_dynstat_advvel_del2       =   9.4711723583924E-03
(PID.TID 0000.0001) %MON ad_dynstat_adwvel_max        =   4.9505631526995E+01
(PID.TID 0000.0001) %MON ad_dynstat_adwvel_min        =  -2.7665944904574E+01
(PID.TID 0000.0001) %MON ad_dynstat_adwvel_mean       =   9.0238013175230E-03
(PID.TID 0000.0001) %MON ad_dynstat_adwvel_sd         =   5.4871654672900E-01
(PID.TID 0000.0001) %MON ad_dynstat_adwvel_del2       =   7.6732658233159E-03
(PID.TID 0000.0001) %MON ad_dynstat_adtheta_max       =   9.0812924626639E+01
(PID.TID 0000.0001) %MON ad_dynstat_adtheta_min       =  -8.1418644399760E+01
(PID.TID 0000.0001) %MON ad_dynstat_adtheta_mean      =  -1.0971620701910E+00
(PID.TID 0000.0001) %MON ad_dynstat_adtheta_sd        =   2.3221798858398E+00
(PID.TID 0000.0001) %MON ad_dynstat_adtheta_del2      =   1.1544344215820E-02
(PID.TID 0000.0001) %MON ad_dynstat_adsalt_max        =   3.3559822189245E+02
(PID.TID 0000.0001) %MON ad_dynstat_adsalt_min        =  -3.3418162049487E+02
(PID.TID 0000.0001) %MON ad_dynstat_adsalt_mean       =  -1.0411363318036E-03
(PID.TID 0000.0001) %MON ad_dynstat_adsalt_sd         =   1.0268056575883E+00
(PID.TID 0000.0001) %MON ad_dynstat_adsalt_del2       =   3.0722289891272E-02
(PID.TID 0000.0001) %MON ad_forcing_adqnet_max        =   0.0000000000000E+00
(PID.TID 0000.0001) %MON ad_forcing_adqnet_min        =   0.0000000000000E+00
(PID.TID 0000.0001) %MON ad_forcing_adqnet_mean       =   0.0000000000000E+00
(PID.TID 0000.0001) %MON ad_forcing_adqnet_sd         =   0.0000000000000E+00
(PID.TID 0000.0001) %MON ad_forcing_adqnet_del2       =   0.0000000000000E+00
(PID.TID 0000.0001) %MON ad_forcing_adqsw_max         =   0.0000000000000E+00
(PID.TID 0000.0001) %MON ad_forcing_adqsw_min         =   0.0000000000000E+00
(PID.TID 0000.0001) %MON ad_forcing_adqsw_mean        =   0.0000000000000E+00
(PID.TID 0000.0001) %MON ad_forcing_adqsw_sd          =   0.0000000000000E+00
(PID.TID 0000.0001) %MON ad_forcing_adqsw_del2        =   0.0000000000000E+00
(PID.TID 0000.0001) %MON ad_forcing_adempmr_max       =   0.0000000000000E+00
(PID.TID 0000.0001) %MON ad_forcing_adempmr_min       =   0.0000000000000E+00
(PID.TID 0000.0001) %MON ad_forcing_adempmr_mean      =   0.0000000000000E+00
(PID.TID 0000.0001) %MON ad_forcing_adempmr_sd        =   0.0000000000000E+00
(PID.TID 0000.0001) %MON ad_forcing_adempmr_del2      =   0.0000000000000E+00
(PID.TID 0000.0001) %MON ad_forcing_adfu_max          =   0.0000000000000E+00
(PID.TID 0000.0001) %MON ad_forcing_adfu_min          =   0.0000000000000E+00
(PID.TID 0000.0001) %MON ad_forcing_adfu_mean         =   0.0000000000000E+00
(PID.TID 0000.0001) %MON ad_forcing_adfu_sd           =   0.0000000000000E+00
(PID.TID 0000.0001) %MON ad_forcing_adfu_del2         =   0.0000000000000E+00
(PID.TID 0000.0001) %MON ad_forcing_adfv_max          =   0.0000000000000E+00
(PID.TID 0000.0001) %MON ad_forcing_adfv_min          =   0.0000000000000E+00
(PID.TID 0000.0001) %MON ad_forcing_adfv_mean         =   0.0000000000000E+00
(PID.TID 0000.0001) %MON ad_forcing_adfv_sd           =   0.0000000000000E+00
(PID.TID 0000.0001) %MON ad_forcing_adfv_del2         =   0.0000000000000E+00
(PID.TID 0000.0001) // =======================================================
(PID.TID 0000.0001) // End MONITOR dynamic field statistics
(PID.TID 0000.0001) // =======================================================
 cg2d: Sum(rhs),rhsMax =  -4.33680868994202E-19  1.52241786201660E-03
(PID.TID 0000.0001) // =======================================================
(PID.TID 0000.0001) // Begin AD_MONITOR EXF statistics for iwhen =  3
(PID.TID 0000.0001) // =======================================================
(PID.TID 0000.0001) %MON ad_exf_tsnumber              =                 72008
(PID.TID 0000.0001) %MON ad_exf_time_sec              =   6.2214912000000E+09
(PID.TID 0000.0001) %MON ad_exf_adfu_max              =   9.7539970185155E-01
(PID.TID 0000.0001) %MON ad_exf_adfu_min              =  -1.9912626986993E+00
(PID.TID 0000.0001) %MON ad_exf_adfu_mean             =   8.2901405281447E-03
(PID.TID 0000.0001) %MON ad_exf_adfu_sd               =   1.6403671520258E-01
(PID.TID 0000.0001) %MON ad_exf_adfu_del2             =   5.1377377722745E-03
(PID.TID 0000.0001) %MON ad_exf_adfv_max              =   1.2293462467935E+00
(PID.TID 0000.0001) %MON ad_exf_adfv_min              =  -1.0092555146466E+00
(PID.TID 0000.0001) %MON ad_exf_adfv_mean             =   3.0780937425223E-03
(PID.TID 0000.0001) %MON ad_exf_adfv_sd               =   1.3885372690907E-01
(PID.TID 0000.0001) %MON ad_exf_adfv_del2             =   4.3632246808579E-03
(PID.TID 0000.0001) %MON ad_exf_adqnet_max            =   3.0977342654793E-02
(PID.TID 0000.0001) %MON ad_exf_adqnet_min            =  -6.8990904896326E-03
(PID.TID 0000.0001) %MON ad_exf_adqnet_mean           =  -5.3266545741098E-04
(PID.TID 0000.0001) %MON ad_exf_adqnet_sd             =   1.2672041397615E-03
(PID.TID 0000.0001) %MON ad_exf_adqnet_del2           =   3.0196578952276E-05
(PID.TID 0000.0001) %MON ad_exf_adempmr_max           =   1.7414750875304E+04
(PID.TID 0000.0001) %MON ad_exf_adempmr_min           =  -4.3566163053668E+03
(PID.TID 0000.0001) %MON ad_exf_adempmr_mean          =  -9.0848902473096E+00
(PID.TID 0000.0001) %MON ad_exf_adempmr_sd            =   2.9168483309848E+02
(PID.TID 0000.0001) %MON ad_exf_adempmr_del2          =   1.4303305585030E+01
(PID.TID 0000.0001) // =======================================================
(PID.TID 0000.0001) // End AD_MONITOR EXF statistics for iwhen =  3
(PID.TID 0000.0001) // =======================================================
(PID.TID 0000.0001) // =======================================================
(PID.TID 0000.0001) // Begin AD_MONITOR EXF statistics for iwhen =  1
(PID.TID 0000.0001) // =======================================================
(PID.TID 0000.0001) %MON ad_exf_tsnumber              =                 72008
(PID.TID 0000.0001) %MON ad_exf_time_sec              =   6.2214912000000E+09
(PID.TID 0000.0001) %MON ad_exf_adustress_max         =   9.7539970185155E-01
(PID.TID 0000.0001) %MON ad_exf_adustress_min         =  -1.9912626986993E+00
(PID.TID 0000.0001) %MON ad_exf_adustress_mean        =   6.9993015045421E-03
(PID.TID 0000.0001) %MON ad_exf_adustress_sd          =   1.6651568973594E-01
(PID.TID 0000.0001) %MON ad_exf_adustress_del2        =   5.0464043565352E-03
(PID.TID 0000.0001) %MON ad_exf_advstress_max         =   1.2293462467935E+00
(PID.TID 0000.0001) %MON ad_exf_advstress_min         =  -1.0092555146466E+00
(PID.TID 0000.0001) %MON ad_exf_advstress_mean        =  -1.1798642810558E-03
(PID.TID 0000.0001) %MON ad_exf_advstress_sd          =   1.4126227363236E-01
(PID.TID 0000.0001) %MON ad_exf_advstress_del2        =   4.1037489917219E-03
(PID.TID 0000.0001) %MON ad_exf_adhflux_max           =   3.0977342654793E-02
(PID.TID 0000.0001) %MON ad_exf_adhflux_min           =  -6.8990904896326E-03
(PID.TID 0000.0001) %MON ad_exf_adhflux_mean          =  -5.3266545741098E-04
(PID.TID 0000.0001) %MON ad_exf_adhflux_sd            =   1.2672041397615E-03
(PID.TID 0000.0001) %MON ad_exf_adhflux_del2          =   3.0196578952276E-05
(PID.TID 0000.0001) %MON ad_exf_adsflux_max           =   1.7414750875304E+07
(PID.TID 0000.0001) %MON ad_exf_adsflux_min           =  -4.3566163053668E+06
(PID.TID 0000.0001) %MON ad_exf_adsflux_mean          =  -9.0848902473096E+03
(PID.TID 0000.0001) %MON ad_exf_adsflux_sd            =   2.9168483309848E+05
(PID.TID 0000.0001) %MON ad_exf_adsflux_del2          =   1.4303305585030E+04
(PID.TID 0000.0001) %MON ad_exf_adwspeed_max          =   0.0000000000000E+00
(PID.TID 0000.0001) %MON ad_exf_adwspeed_min          =   0.0000000000000E+00
(PID.TID 0000.0001) %MON ad_exf_adwspeed_mean         =   0.0000000000000E+00
(PID.TID 0000.0001) %MON ad_exf_adwspeed_sd           =   0.0000000000000E+00
(PID.TID 0000.0001) %MON ad_exf_adwspeed_del2         =   0.0000000000000E+00
(PID.TID 0000.0001) // =======================================================
(PID.TID 0000.0001) // End AD_MONITOR EXF statistics for iwhen =  1
(PID.TID 0000.0001) // =======================================================
(PID.TID 0000.0001) // =======================================================
(PID.TID 0000.0001) // Begin AD_MONITOR EXF statistics for iwhen =  2
(PID.TID 0000.0001) // =======================================================
(PID.TID 0000.0001) %MON ad_exf_tsnumber              =                 72008
(PID.TID 0000.0001) %MON ad_exf_time_sec              =   6.2214912000000E+09
(PID.TID 0000.0001) %MON ad_exf_adatemp_max           =   1.0050232246737E-01
(PID.TID 0000.0001) %MON ad_exf_adatemp_min           =  -5.5052693627198E-01
(PID.TID 0000.0001) %MON ad_exf_adatemp_mean          =   5.6355247995491E-03
(PID.TID 0000.0001) %MON ad_exf_adatemp_sd            =   1.7176354745482E-02
(PID.TID 0000.0001) %MON ad_exf_adatemp_del2          =   4.9993656346880E-04
(PID.TID 0000.0001) %MON ad_exf_adaqh_max             =   2.3161533050815E+02
(PID.TID 0000.0001) %MON ad_exf_adaqh_min             =  -1.6163071907351E+03
(PID.TID 0000.0001) %MON ad_exf_adaqh_mean            =   1.2407068942085E+01
(PID.TID 0000.0001) %MON ad_exf_adaqh_sd              =   4.4531539849498E+01
(PID.TID 0000.0001) %MON ad_exf_adaqh_del2            =   1.4023292495102E+00
(PID.TID 0000.0001) %MON ad_exf_adlwflux_max          =   0.0000000000000E+00
(PID.TID 0000.0001) %MON ad_exf_adlwflux_min          =   0.0000000000000E+00
(PID.TID 0000.0001) %MON ad_exf_adlwflux_mean         =   0.0000000000000E+00
(PID.TID 0000.0001) %MON ad_exf_adlwflux_sd           =   0.0000000000000E+00
(PID.TID 0000.0001) %MON ad_exf_adlwflux_del2         =   0.0000000000000E+00
(PID.TID 0000.0001) %MON ad_exf_adprecip_max          =   4.3566163053668E+06
(PID.TID 0000.0001) %MON ad_exf_adprecip_min          =  -1.7414750875304E+07
(PID.TID 0000.0001) %MON ad_exf_adprecip_mean         =   9.1706904549586E+03
(PID.TID 0000.0001) %MON ad_exf_adprecip_sd           =   2.9196047558632E+05
(PID.TID 0000.0001) %MON ad_exf_adprecip_del2         =   1.4310382989595E+04
(PID.TID 0000.0001) %MON ad_exf_adswflux_max          =   0.0000000000000E+00
(PID.TID 0000.0001) %MON ad_exf_adswflux_min          =   0.0000000000000E+00
(PID.TID 0000.0001) %MON ad_exf_adswflux_mean         =   0.0000000000000E+00
(PID.TID 0000.0001) %MON ad_exf_adswflux_sd           =   0.0000000000000E+00
(PID.TID 0000.0001) %MON ad_exf_adswflux_del2         =   0.0000000000000E+00
(PID.TID 0000.0001) %MON ad_exf_adswdown_max          =   6.4437505173168E-03
(PID.TID 0000.0001) %MON ad_exf_adswdown_min          =  -2.7325050880876E-02
(PID.TID 0000.0001) %MON ad_exf_adswdown_mean         =   4.9113219496965E-04
(PID.TID 0000.0001) %MON ad_exf_adswdown_sd           =   1.1479970480680E-03
(PID.TID 0000.0001) %MON ad_exf_adswdown_del2         =   2.6953809020889E-05
(PID.TID 0000.0001) %MON ad_exf_adlwdown_max          =   6.8990904896326E-03
(PID.TID 0000.0001) %MON ad_exf_adlwdown_min          =  -3.0977342654793E-02
(PID.TID 0000.0001) %MON ad_exf_adlwdown_mean         =   5.3296457876939E-04
(PID.TID 0000.0001) %MON ad_exf_adlwdown_sd           =   1.2673494182174E-03
(PID.TID 0000.0001) %MON ad_exf_adlwdown_del2         =   3.0197467721872E-05
(PID.TID 0000.0001) // =======================================================
(PID.TID 0000.0001) // End AD_MONITOR EXF statistics for iwhen =  2
(PID.TID 0000.0001) // =======================================================
 cg2d: Sum(rhs),rhsMax =   2.21606586952945E+03  2.14995310145825E+01
 cg2d: Sum(rhs),rhsMax =   2.21606586952945E+03  2.14995310145825E+01
(PID.TID 0000.0001) // =======================================================
(PID.TID 0000.0001) // Begin MONITOR dynamic field statistics
(PID.TID 0000.0001) // =======================================================
(PID.TID 0000.0001) %MON ad_time_tsnumber             =                 72008
(PID.TID 0000.0001) %MON ad_time_secondsf             =   6.2214912000000E+09
(PID.TID 0000.0001) %MON ad_dynstat_adeta_max         =   0.0000000000000E+00
(PID.TID 0000.0001) %MON ad_dynstat_adeta_min         =   0.0000000000000E+00
(PID.TID 0000.0001) %MON ad_dynstat_adeta_mean        =   0.0000000000000E+00
(PID.TID 0000.0001) %MON ad_dynstat_adeta_sd          =   0.0000000000000E+00
(PID.TID 0000.0001) %MON ad_dynstat_adeta_del2        =   0.0000000000000E+00
(PID.TID 0000.0001) %MON ad_dynstat_aduvel_max        =   4.3785584148345E+01
(PID.TID 0000.0001) %MON ad_dynstat_aduvel_min        =  -6.6571625752914E+01
(PID.TID 0000.0001) %MON ad_dynstat_aduvel_mean       =   5.4595924887622E-02
(PID.TID 0000.0001) %MON ad_dynstat_aduvel_sd         =   2.3805024578677E+00
(PID.TID 0000.0001) %MON ad_dynstat_aduvel_del2       =   2.2181666719675E-02
(PID.TID 0000.0001) %MON ad_dynstat_advvel_max        =   4.0196897434814E+01
(PID.TID 0000.0001) %MON ad_dynstat_advvel_min        =  -3.2028868277279E+01
(PID.TID 0000.0001) %MON ad_dynstat_advvel_mean       =  -7.2315785195931E-02
(PID.TID 0000.0001) %MON ad_dynstat_advvel_sd         =   2.1933405226223E+00
(PID.TID 0000.0001) %MON ad_dynstat_advvel_del2       =   1.8548758581846E-02
(PID.TID 0000.0001) %MON ad_dynstat_adwvel_max        =   7.9643666769822E+01
(PID.TID 0000.0001) %MON ad_dynstat_adwvel_min        =  -4.4443549540636E+01
(PID.TID 0000.0001) %MON ad_dynstat_adwvel_mean       =   1.5193526698005E-02
(PID.TID 0000.0001) %MON ad_dynstat_adwvel_sd         =   8.8261413717142E-01
(PID.TID 0000.0001) %MON ad_dynstat_adwvel_del2       =   1.2302837979771E-02
(PID.TID 0000.0001) %MON ad_dynstat_adtheta_max       =   6.2813569330814E+01
(PID.TID 0000.0001) %MON ad_dynstat_adtheta_min       =  -5.4551367719296E+01
(PID.TID 0000.0001) %MON ad_dynstat_adtheta_mean      =  -1.0975256762397E+00
(PID.TID 0000.0001) %MON ad_dynstat_adtheta_sd        =   2.3148924539334E+00
(PID.TID 0000.0001) %MON ad_dynstat_adtheta_del2      =   1.0561431882495E-02
(PID.TID 0000.0001) %MON ad_dynstat_adsalt_max        =   2.2987412614873E+02
(PID.TID 0000.0001) %MON ad_dynstat_adsalt_min        =  -2.2776327712980E+02
(PID.TID 0000.0001) %MON ad_dynstat_adsalt_mean       =  -1.9505453136605E-03
(PID.TID 0000.0001) %MON ad_dynstat_adsalt_sd         =   9.0222728215468E-01
(PID.TID 0000.0001) %MON ad_dynstat_adsalt_del2       =   2.4888266385049E-02
(PID.TID 0000.0001) %MON ad_forcing_adqnet_max        =   0.0000000000000E+00
(PID.TID 0000.0001) %MON ad_forcing_adqnet_min        =   0.0000000000000E+00
(PID.TID 0000.0001) %MON ad_forcing_adqnet_mean       =   0.0000000000000E+00
(PID.TID 0000.0001) %MON ad_forcing_adqnet_sd         =   0.0000000000000E+00
(PID.TID 0000.0001) %MON ad_forcing_adqnet_del2       =   0.0000000000000E+00
(PID.TID 0000.0001) %MON ad_forcing_adqsw_max         =   0.0000000000000E+00
(PID.TID 0000.0001) %MON ad_forcing_adqsw_min         =   0.0000000000000E+00
(PID.TID 0000.0001) %MON ad_forcing_adqsw_mean        =   0.0000000000000E+00
(PID.TID 0000.0001) %MON ad_forcing_adqsw_sd          =   0.0000000000000E+00
(PID.TID 0000.0001) %MON ad_forcing_adqsw_del2        =   0.0000000000000E+00
(PID.TID 0000.0001) %MON ad_forcing_adempmr_max       =   0.0000000000000E+00
(PID.TID 0000.0001) %MON ad_forcing_adempmr_min       =   0.0000000000000E+00
(PID.TID 0000.0001) %MON ad_forcing_adempmr_mean      =   0.0000000000000E+00
(PID.TID 0000.0001) %MON ad_forcing_adempmr_sd        =   0.0000000000000E+00
(PID.TID 0000.0001) %MON ad_forcing_adempmr_del2      =   0.0000000000000E+00
(PID.TID 0000.0001) %MON ad_forcing_adfu_max          =   0.0000000000000E+00
(PID.TID 0000.0001) %MON ad_forcing_adfu_min          =   0.0000000000000E+00
(PID.TID 0000.0001) %MON ad_forcing_adfu_mean         =   0.0000000000000E+00
(PID.TID 0000.0001) %MON ad_forcing_adfu_sd           =   0.0000000000000E+00
(PID.TID 0000.0001) %MON ad_forcing_adfu_del2         =   0.0000000000000E+00
(PID.TID 0000.0001) %MON ad_forcing_adfv_max          =   0.0000000000000E+00
(PID.TID 0000.0001) %MON ad_forcing_adfv_min          =   0.0000000000000E+00
(PID.TID 0000.0001) %MON ad_forcing_adfv_mean         =   0.0000000000000E+00
(PID.TID 0000.0001) %MON ad_forcing_adfv_sd           =   0.0000000000000E+00
(PID.TID 0000.0001) %MON ad_forcing_adfv_del2         =   0.0000000000000E+00
(PID.TID 0000.0001) // =======================================================
(PID.TID 0000.0001) // End MONITOR dynamic field statistics
(PID.TID 0000.0001) // =======================================================
 cg2d: Sum(rhs),rhsMax =  -5.42101086242752E-19  2.41755565706619E-03
(PID.TID 0000.0001) // =======================================================
(PID.TID 0000.0001) // Begin AD_MONITOR EXF statistics for iwhen =  3
(PID.TID 0000.0001) // =======================================================
(PID.TID 0000.0001) %MON ad_exf_tsnumber              =                 72007
(PID.TID 0000.0001) %MON ad_exf_time_sec              =   6.2214048000000E+09
(PID.TID 0000.0001) %MON ad_exf_adfu_max              =   1.2451025476968E+00
(PID.TID 0000.0001) %MON ad_exf_adfu_min              =  -2.7223034772604E+00
(PID.TID 0000.0001) %MON ad_exf_adfu_mean             =   9.9777921028869E-03
(PID.TID 0000.0001) %MON ad_exf_adfu_sd               =   2.2138761925916E-01
(PID.TID 0000.0001) %MON ad_exf_adfu_del2             =   6.6986232586535E-03
(PID.TID 0000.0001) %MON ad_exf_adfv_max              =   1.6342214421346E+00
(PID.TID 0000.0001) %MON ad_exf_adfv_min              =  -1.3098270445154E+00
(PID.TID 0000.0001) %MON ad_exf_adfv_mean             =   1.7286067610552E-03
(PID.TID 0000.0001) %MON ad_exf_adfv_sd               =   1.8655995486717E-01
(PID.TID 0000.0001) %MON ad_exf_adfv_del2             =   5.5848010625962E-03
(PID.TID 0000.0001) %MON ad_exf_adqnet_max            =   2.1995968384129E-02
(PID.TID 0000.0001) %MON ad_exf_adqnet_min            =  -6.8391661624268E-03
(PID.TID 0000.0001) %MON ad_exf_adqnet_mean           =  -5.2897172741107E-04
(PID.TID 0000.0001) %MON ad_exf_adqnet_sd             =   1.2173668522264E-03
(PID.TID 0000.0001) %MON ad_exf_adqnet_del2           =   2.6347343301865E-05
(PID.TID 0000.0001) %MON ad_exf_adempmr_max           =   1.2609436769471E+04
(PID.TID 0000.0001) %MON ad_exf_adempmr_min           =  -6.0608782705273E+03
(PID.TID 0000.0001) %MON ad_exf_adempmr_mean          =  -1.1520443537901E+01
(PID.TID 0000.0001) %MON ad_exf_adempmr_sd            =   2.5114216737473E+02
(PID.TID 0000.0001) %MON ad_exf_adempmr_del2          =   1.1721813787115E+01
(PID.TID 0000.0001) // =======================================================
(PID.TID 0000.0001) // End AD_MONITOR EXF statistics for iwhen =  3
(PID.TID 0000.0001) // =======================================================
(PID.TID 0000.0001) // =======================================================
(PID.TID 0000.0001) // Begin AD_MONITOR EXF statistics for iwhen =  1
(PID.TID 0000.0001) // =======================================================
(PID.TID 0000.0001) %MON ad_exf_tsnumber              =                 72007
(PID.TID 0000.0001) %MON ad_exf_time_sec              =   6.2214048000000E+09
(PID.TID 0000.0001) %MON ad_exf_adustress_max         =   1.2451025476968E+00
(PID.TID 0000.0001) %MON ad_exf_adustress_min         =  -2.7223034772604E+00
(PID.TID 0000.0001) %MON ad_exf_adustress_mean        =   8.8921874811762E-03
(PID.TID 0000.0001) %MON ad_exf_adustress_sd          =   2.2588818570082E-01
(PID.TID 0000.0001) %MON ad_exf_adustress_del2        =   6.6867982788559E-03
(PID.TID 0000.0001) %MON ad_exf_advstress_max         =   1.6342214421346E+00
(PID.TID 0000.0001) %MON ad_exf_advstress_min         =  -1.3098270445154E+00
(PID.TID 0000.0001) %MON ad_exf_advstress_mean        =  -2.4687477964522E-03
(PID.TID 0000.0001) %MON ad_exf_advstress_sd          =   1.9137477802073E-01
(PID.TID 0000.0001) %MON ad_exf_advstress_del2        =   5.3687470835750E-03
(PID.TID 0000.0001) %MON ad_exf_adhflux_max           =   2.1995968384129E-02
(PID.TID 0000.0001) %MON ad_exf_adhflux_min           =  -6.8391661624268E-03
(PID.TID 0000.0001) %MON ad_exf_adhflux_mean          =  -5.2897172741107E-04
(PID.TID 0000.0001) %MON ad_exf_adhflux_sd            =   1.2173668522264E-03
(PID.TID 0000.0001) %MON ad_exf_adhflux_del2          =   2.6347343301865E-05
(PID.TID 0000.0001) %MON ad_exf_adsflux_max           =   1.2609436769471E+07
(PID.TID 0000.0001) %MON ad_exf_adsflux_min           =  -6.0608782705273E+06
(PID.TID 0000.0001) %MON ad_exf_adsflux_mean          =  -1.1520443537901E+04
(PID.TID 0000.0001) %MON ad_exf_adsflux_sd            =   2.5114216737473E+05
(PID.TID 0000.0001) %MON ad_exf_adsflux_del2          =   1.1721813787115E+04
(PID.TID 0000.0001) %MON ad_exf_adwspeed_max          =   0.0000000000000E+00
(PID.TID 0000.0001) %MON ad_exf_adwspeed_min          =   0.0000000000000E+00
(PID.TID 0000.0001) %MON ad_exf_adwspeed_mean         =   0.0000000000000E+00
(PID.TID 0000.0001) %MON ad_exf_adwspeed_sd           =   0.0000000000000E+00
(PID.TID 0000.0001) %MON ad_exf_adwspeed_del2         =   0.0000000000000E+00
(PID.TID 0000.0001) // =======================================================
(PID.TID 0000.0001) // End AD_MONITOR EXF statistics for iwhen =  1
(PID.TID 0000.0001) // =======================================================
(PID.TID 0000.0001) // =======================================================
(PID.TID 0000.0001) // Begin AD_MONITOR EXF statistics for iwhen =  2
(PID.TID 0000.0001) // =======================================================
(PID.TID 0000.0001) %MON ad_exf_tsnumber              =                 72007
(PID.TID 0000.0001) %MON ad_exf_time_sec              =   6.2214048000000E+09
(PID.TID 0000.0001) %MON ad_exf_adatemp_max           =   9.9764581329837E-02
(PID.TID 0000.0001) %MON ad_exf_adatemp_min           =  -3.9038595611950E-01
(PID.TID 0000.0001) %MON ad_exf_adatemp_mean          =   5.6263279854456E-03
(PID.TID 0000.0001) %MON ad_exf_adatemp_sd            =   1.6087111196432E-02
(PID.TID 0000.0001) %MON ad_exf_adatemp_del2          =   4.2270501201993E-04
(PID.TID 0000.0001) %MON ad_exf_adaqh_max             =   2.7511618501022E+02
(PID.TID 0000.0001) %MON ad_exf_adaqh_min             =  -1.1506136477795E+03
(PID.TID 0000.0001) %MON ad_exf_adaqh_mean            =   1.2483837298059E+01
(PID.TID 0000.0001) %MON ad_exf_adaqh_sd              =   4.1040273530050E+01
(PID.TID 0000.0001) %MON ad_exf_adaqh_del2            =   1.1603567139625E+00
(PID.TID 0000.0001) %MON ad_exf_adlwflux_max          =   0.0000000000000E+00
(PID.TID 0000.0001) %MON ad_exf_adlwflux_min          =   0.0000000000000E+00
(PID.TID 0000.0001) %MON ad_exf_adlwflux_mean         =   0.0000000000000E+00
(PID.TID 0000.0001) %MON ad_exf_adlwflux_sd           =   0.0000000000000E+00
(PID.TID 0000.0001) %MON ad_exf_adlwflux_del2         =   0.0000000000000E+00
(PID.TID 0000.0001) %MON ad_exf_adprecip_max          =   6.0608782705273E+06
(PID.TID 0000.0001) %MON ad_exf_adprecip_min          =  -1.2609436769471E+07
(PID.TID 0000.0001) %MON ad_exf_adprecip_mean         =   1.1731620801549E+04
(PID.TID 0000.0001) %MON ad_exf_adprecip_sd           =   2.5225718857853E+05
(PID.TID 0000.0001) %MON ad_exf_adprecip_del2         =   1.1752989822123E+04
(PID.TID 0000.0001) %MON ad_exf_adswflux_max          =   0.0000000000000E+00
(PID.TID 0000.0001) %MON ad_exf_adswflux_min          =   0.0000000000000E+00
(PID.TID 0000.0001) %MON ad_exf_adswflux_mean         =   0.0000000000000E+00
(PID.TID 0000.0001) %MON ad_exf_adswflux_sd           =   0.0000000000000E+00
(PID.TID 0000.0001) %MON ad_exf_adswflux_del2         =   0.0000000000000E+00
(PID.TID 0000.0001) %MON ad_exf_adswdown_max          =   6.3877811957067E-03
(PID.TID 0000.0001) %MON ad_exf_adswdown_min          =  -1.9388779089284E-02
(PID.TID 0000.0001) %MON ad_exf_adswdown_mean         =   4.8775811359306E-04
(PID.TID 0000.0001) %MON ad_exf_adswdown_sd           =   1.1044723023271E-03
(PID.TID 0000.0001) %MON ad_exf_adswdown_del2         =   2.3598920905495E-05
(PID.TID 0000.0001) %MON ad_exf_adlwdown_max          =   6.8391661624268E-03
(PID.TID 0000.0001) %MON ad_exf_adlwdown_min          =  -2.1995968384129E-02
(PID.TID 0000.0001) %MON ad_exf_adlwdown_mean         =   5.2949580911730E-04
(PID.TID 0000.0001) %MON ad_exf_adlwdown_sd           =   1.2175884736317E-03
(PID.TID 0000.0001) %MON ad_exf_adlwdown_del2         =   2.6347596730289E-05
(PID.TID 0000.0001) // =======================================================
(PID.TID 0000.0001) // End AD_MONITOR EXF statistics for iwhen =  2
(PID.TID 0000.0001) // =======================================================
 cg2d: Sum(rhs),rhsMax =   2.21637328466701E+03  2.14537629142059E+01
 cg2d: Sum(rhs),rhsMax =   2.21637328466701E+03  2.14537629142059E+01
(PID.TID 0000.0001) // =======================================================
(PID.TID 0000.0001) // Begin MONITOR dynamic field statistics
(PID.TID 0000.0001) // =======================================================
(PID.TID 0000.0001) %MON ad_time_tsnumber             =                 72007
(PID.TID 0000.0001) %MON ad_time_secondsf             =   6.2214048000000E+09
(PID.TID 0000.0001) %MON ad_dynstat_adeta_max         =   0.0000000000000E+00
(PID.TID 0000.0001) %MON ad_dynstat_adeta_min         =   0.0000000000000E+00
(PID.TID 0000.0001) %MON ad_dynstat_adeta_mean        =   0.0000000000000E+00
(PID.TID 0000.0001) %MON ad_dynstat_adeta_sd          =   0.0000000000000E+00
(PID.TID 0000.0001) %MON ad_dynstat_adeta_del2        =   0.0000000000000E+00
(PID.TID 0000.0001) %MON ad_dynstat_aduvel_max        =   6.2267339432203E+01
(PID.TID 0000.0001) %MON ad_dynstat_aduvel_min        =  -9.8214937494291E+01
(PID.TID 0000.0001) %MON ad_dynstat_aduvel_mean       =   9.9842391995083E-02
(PID.TID 0000.0001) %MON ad_dynstat_aduvel_sd         =   3.5144349241488E+00
(PID.TID 0000.0001) %MON ad_dynstat_aduvel_del2       =   3.2382686205498E-02
(PID.TID 0000.0001) %MON ad_dynstat_advvel_max        =   5.7974375683095E+01
(PID.TID 0000.0001) %MON ad_dynstat_advvel_min        =  -5.2615242547128E+01
(PID.TID 0000.0001) %MON ad_dynstat_advvel_mean       =  -5.6603444872857E-02
(PID.TID 0000.0001) %MON ad_dynstat_advvel_sd         =   3.2284100719543E+00
(PID.TID 0000.0001) %MON ad_dynstat_advvel_del2       =   2.6727843205042E-02
(PID.TID 0000.0001) %MON ad_dynstat_adwvel_max        =   1.0876102428833E+02
(PID.TID 0000.0001) %MON ad_dynstat_adwvel_min        =  -5.3151105746322E+01
(PID.TID 0000.0001) %MON ad_dynstat_adwvel_mean       =   2.1130947718167E-02
(PID.TID 0000.0001) %MON ad_dynstat_adwvel_sd         =   1.2000663622544E+00
(PID.TID 0000.0001) %MON ad_dynstat_adwvel_del2       =   1.6369266036649E-02
(PID.TID 0000.0001) %MON ad_dynstat_adtheta_max       =   5.7067760657171E+01
(PID.TID 0000.0001) %MON ad_dynstat_adtheta_min       =  -4.8450517941695E+01
(PID.TID 0000.0001) %MON ad_dynstat_adtheta_mean      =  -1.0978098148923E+00
(PID.TID 0000.0001) %MON ad_dynstat_adtheta_sd        =   2.3113912810314E+00
(PID.TID 0000.0001) %MON ad_dynstat_adtheta_del2      =   1.0360480980362E-02
(PID.TID 0000.0001) %MON ad_dynstat_adsalt_max        =   2.0895121593650E+02
(PID.TID 0000.0001) %MON ad_dynstat_adsalt_min        =  -2.0571729700009E+02
(PID.TID 0000.0001) %MON ad_dynstat_adsalt_mean       =  -3.1440591365970E-03
(PID.TID 0000.0001) %MON ad_dynstat_adsalt_sd         =   9.9663285512030E-01
(PID.TID 0000.0001) %MON ad_dynstat_adsalt_del2       =   2.4992358484316E-02
(PID.TID 0000.0001) %MON ad_forcing_adqnet_max        =   0.0000000000000E+00
(PID.TID 0000.0001) %MON ad_forcing_adqnet_min        =   0.0000000000000E+00
(PID.TID 0000.0001) %MON ad_forcing_adqnet_mean       =   0.0000000000000E+00
(PID.TID 0000.0001) %MON ad_forcing_adqnet_sd         =   0.0000000000000E+00
(PID.TID 0000.0001) %MON ad_forcing_adqnet_del2       =   0.0000000000000E+00
(PID.TID 0000.0001) %MON ad_forcing_adqsw_max         =   0.0000000000000E+00
(PID.TID 0000.0001) %MON ad_forcing_adqsw_min         =   0.0000000000000E+00
(PID.TID 0000.0001) %MON ad_forcing_adqsw_mean        =   0.0000000000000E+00
(PID.TID 0000.0001) %MON ad_forcing_adqsw_sd          =   0.0000000000000E+00
(PID.TID 0000.0001) %MON ad_forcing_adqsw_del2        =   0.0000000000000E+00
(PID.TID 0000.0001) %MON ad_forcing_adempmr_max       =   0.0000000000000E+00
(PID.TID 0000.0001) %MON ad_forcing_adempmr_min       =   0.0000000000000E+00
(PID.TID 0000.0001) %MON ad_forcing_adempmr_mean      =   0.0000000000000E+00
(PID.TID 0000.0001) %MON ad_forcing_adempmr_sd        =   0.0000000000000E+00
(PID.TID 0000.0001) %MON ad_forcing_adempmr_del2      =   0.0000000000000E+00
(PID.TID 0000.0001) %MON ad_forcing_adfu_max          =   0.0000000000000E+00
(PID.TID 0000.0001) %MON ad_forcing_adfu_min          =   0.0000000000000E+00
(PID.TID 0000.0001) %MON ad_forcing_adfu_mean         =   0.0000000000000E+00
(PID.TID 0000.0001) %MON ad_forcing_adfu_sd           =   0.0000000000000E+00
(PID.TID 0000.0001) %MON ad_forcing_adfu_del2         =   0.0000000000000E+00
(PID.TID 0000.0001) %MON ad_forcing_adfv_max          =   0.0000000000000E+00
(PID.TID 0000.0001) %MON ad_forcing_adfv_min          =   0.0000000000000E+00
(PID.TID 0000.0001) %MON ad_forcing_adfv_mean         =   0.0000000000000E+00
(PID.TID 0000.0001) %MON ad_forcing_adfv_sd           =   0.0000000000000E+00
(PID.TID 0000.0001) %MON ad_forcing_adfv_del2         =   0.0000000000000E+00
(PID.TID 0000.0001) // =======================================================
(PID.TID 0000.0001) // End MONITOR dynamic field statistics
(PID.TID 0000.0001) // =======================================================
 cg2d: Sum(rhs),rhsMax =  -4.33680868994202E-19  2.69683064113193E-03
(PID.TID 0000.0001) // =======================================================
(PID.TID 0000.0001) // Begin AD_MONITOR EXF statistics for iwhen =  3
(PID.TID 0000.0001) // =======================================================
(PID.TID 0000.0001) %MON ad_exf_tsnumber              =                 72006
(PID.TID 0000.0001) %MON ad_exf_time_sec              =   6.2213184000000E+09
(PID.TID 0000.0001) %MON ad_exf_adfu_max              =   1.5743435596112E+00
(PID.TID 0000.0001) %MON ad_exf_adfu_min              =  -3.4203945924504E+00
(PID.TID 0000.0001) %MON ad_exf_adfu_mean             =   1.1178464450674E-02
(PID.TID 0000.0001) %MON ad_exf_adfu_sd               =   2.7728699382514E-01
(PID.TID 0000.0001) %MON ad_exf_adfu_del2             =   8.2423273974580E-03
(PID.TID 0000.0001) %MON ad_exf_adfv_max              =   2.0005485954645E+00
(PID.TID 0000.0001) %MON ad_exf_adfv_min              =  -1.5650234212688E+00
(PID.TID 0000.0001) %MON ad_exf_adfv_mean             =  -1.0981467699858E-04
(PID.TID 0000.0001) %MON ad_exf_adfv_sd               =   2.3373083296276E-01
(PID.TID 0000.0001) %MON ad_exf_adfv_del2             =   6.8336219673133E-03
(PID.TID 0000.0001) %MON ad_exf_adqnet_max            =   1.9878556714548E-02
(PID.TID 0000.0001) %MON ad_exf_adqnet_min            =  -6.7805084186830E-03
(PID.TID 0000.0001) %MON ad_exf_adqnet_mean           =  -5.2462423862263E-04
(PID.TID 0000.0001) %MON ad_exf_adqnet_sd             =   1.1974113204578E-03
(PID.TID 0000.0001) %MON ad_exf_adqnet_del2           =   2.5753236613729E-05
(PID.TID 0000.0001) %MON ad_exf_adempmr_max           =   1.1653349861898E+04
(PID.TID 0000.0001) %MON ad_exf_adempmr_min           =  -6.8587314771701E+03
(PID.TID 0000.0001) %MON ad_exf_adempmr_mean          =  -1.3276494211590E+01
(PID.TID 0000.0001) %MON ad_exf_adempmr_sd            =   2.5790548982892E+02
(PID.TID 0000.0001) %MON ad_exf_adempmr_del2          =   1.1704762013737E+01
(PID.TID 0000.0001) // =======================================================
(PID.TID 0000.0001) // End AD_MONITOR EXF statistics for iwhen =  3
(PID.TID 0000.0001) // =======================================================
(PID.TID 0000.0001) // =======================================================
(PID.TID 0000.0001) // Begin AD_MONITOR EXF statistics for iwhen =  1
(PID.TID 0000.0001) // =======================================================
(PID.TID 0000.0001) %MON ad_exf_tsnumber              =                 72006
(PID.TID 0000.0001) %MON ad_exf_time_sec              =   6.2213184000000E+09
(PID.TID 0000.0001) %MON ad_exf_adustress_max         =   1.5743435596112E+00
(PID.TID 0000.0001) %MON ad_exf_adustress_min         =  -3.4203945924504E+00
(PID.TID 0000.0001) %MON ad_exf_adustress_mean        =   1.0293791169599E-02
(PID.TID 0000.0001) %MON ad_exf_adustress_sd          =   2.8348387854774E-01
(PID.TID 0000.0001) %MON ad_exf_adustress_del2        =   8.2908274618398E-03
(PID.TID 0000.0001) %MON ad_exf_advstress_max         =   2.0005485954645E+00
(PID.TID 0000.0001) %MON ad_exf_advstress_min         =  -1.5650234212688E+00
(PID.TID 0000.0001) %MON ad_exf_advstress_mean        =  -4.3467188938871E-03
(PID.TID 0000.0001) %MON ad_exf_advstress_sd          =   2.4036178427537E-01
(PID.TID 0000.0001) %MON ad_exf_advstress_del2        =   6.6443015171764E-03
(PID.TID 0000.0001) %MON ad_exf_adhflux_max           =   1.9878556714548E-02
(PID.TID 0000.0001) %MON ad_exf_adhflux_min           =  -6.7805084186830E-03
(PID.TID 0000.0001) %MON ad_exf_adhflux_mean          =  -5.2462423862263E-04
(PID.TID 0000.0001) %MON ad_exf_adhflux_sd            =   1.1974113204578E-03
(PID.TID 0000.0001) %MON ad_exf_adhflux_del2          =   2.5753236613729E-05
(PID.TID 0000.0001) %MON ad_exf_adsflux_max           =   1.1653349861898E+07
(PID.TID 0000.0001) %MON ad_exf_adsflux_min           =  -6.8587314771701E+06
(PID.TID 0000.0001) %MON ad_exf_adsflux_mean          =  -1.3276494211590E+04
(PID.TID 0000.0001) %MON ad_exf_adsflux_sd            =   2.5790548982892E+05
(PID.TID 0000.0001) %MON ad_exf_adsflux_del2          =   1.1704762013737E+04
(PID.TID 0000.0001) %MON ad_exf_adwspeed_max          =   0.0000000000000E+00
(PID.TID 0000.0001) %MON ad_exf_adwspeed_min          =   0.0000000000000E+00
(PID.TID 0000.0001) %MON ad_exf_adwspeed_mean         =   0.0000000000000E+00
(PID.TID 0000.0001) %MON ad_exf_adwspeed_sd           =   0.0000000000000E+00
(PID.TID 0000.0001) %MON ad_exf_adwspeed_del2         =   0.0000000000000E+00
(PID.TID 0000.0001) // =======================================================
(PID.TID 0000.0001) // End AD_MONITOR EXF statistics for iwhen =  1
(PID.TID 0000.0001) // =======================================================
(PID.TID 0000.0001) // =======================================================
(PID.TID 0000.0001) // Begin AD_MONITOR EXF statistics for iwhen =  2
(PID.TID 0000.0001) // =======================================================
(PID.TID 0000.0001) %MON ad_exf_tsnumber              =                 72006
(PID.TID 0000.0001) %MON ad_exf_time_sec              =   6.2213184000000E+09
(PID.TID 0000.0001) %MON ad_exf_adatemp_max           =   1.1673278470558E-01
(PID.TID 0000.0001) %MON ad_exf_adatemp_min           =  -3.5276514082039E-01
(PID.TID 0000.0001) %MON ad_exf_adatemp_mean          =   5.6177455287672E-03
(PID.TID 0000.0001) %MON ad_exf_adatemp_sd            =   1.5737082913916E-02
(PID.TID 0000.0001) %MON ad_exf_adatemp_del2          =   4.0756574573038E-04
(PID.TID 0000.0001) %MON ad_exf_adaqh_max             =   3.6310488315459E+02
(PID.TID 0000.0001) %MON ad_exf_adaqh_min             =  -1.0439040186054E+03
(PID.TID 0000.0001) %MON ad_exf_adaqh_mean            =   1.2518477814223E+01
(PID.TID 0000.0001) %MON ad_exf_adaqh_sd              =   4.0049097219549E+01
(PID.TID 0000.0001) %MON ad_exf_adaqh_del2            =   1.1180918534695E+00
(PID.TID 0000.0001) %MON ad_exf_adlwflux_max          =   0.0000000000000E+00
(PID.TID 0000.0001) %MON ad_exf_adlwflux_min          =   0.0000000000000E+00
(PID.TID 0000.0001) %MON ad_exf_adlwflux_mean         =   0.0000000000000E+00
(PID.TID 0000.0001) %MON ad_exf_adlwflux_sd           =   0.0000000000000E+00
(PID.TID 0000.0001) %MON ad_exf_adlwflux_del2         =   0.0000000000000E+00
(PID.TID 0000.0001) %MON ad_exf_adprecip_max          =   6.8587314771701E+06
(PID.TID 0000.0001) %MON ad_exf_adprecip_min          =  -1.1653349861898E+07
(PID.TID 0000.0001) %MON ad_exf_adprecip_mean         =   1.3596707159082E+04
(PID.TID 0000.0001) %MON ad_exf_adprecip_sd           =   2.6009728922988E+05
(PID.TID 0000.0001) %MON ad_exf_adprecip_del2         =   1.1768246222767E+04
(PID.TID 0000.0001) %MON ad_exf_adswflux_max          =   0.0000000000000E+00
(PID.TID 0000.0001) %MON ad_exf_adswflux_min          =   0.0000000000000E+00
(PID.TID 0000.0001) %MON ad_exf_adswflux_mean         =   0.0000000000000E+00
(PID.TID 0000.0001) %MON ad_exf_adswflux_sd           =   0.0000000000000E+00
(PID.TID 0000.0001) %MON ad_exf_adswflux_del2         =   0.0000000000000E+00
(PID.TID 0000.0001) %MON ad_exf_adswdown_max          =   6.3329948630499E-03
(PID.TID 0000.0001) %MON ad_exf_adswdown_min          =  -1.7512501566020E-02
(PID.TID 0000.0001) %MON ad_exf_adswdown_mean         =   4.8387882395528E-04
(PID.TID 0000.0001) %MON ad_exf_adswdown_sd           =   1.0865260153990E-03
(PID.TID 0000.0001) %MON ad_exf_adswdown_del2         =   2.3066184116959E-05
(PID.TID 0000.0001) %MON ad_exf_adlwdown_max          =   6.7805084186830E-03
(PID.TID 0000.0001) %MON ad_exf_adlwdown_min          =  -1.9878556714548E-02
(PID.TID 0000.0001) %MON ad_exf_adlwdown_mean         =   5.2545762129170E-04
(PID.TID 0000.0001) %MON ad_exf_adlwdown_sd           =   1.1977693535369E-03
(PID.TID 0000.0001) %MON ad_exf_adlwdown_del2         =   2.5755023724099E-05
(PID.TID 0000.0001) // =======================================================
(PID.TID 0000.0001) // End AD_MONITOR EXF statistics for iwhen =  2
(PID.TID 0000.0001) // =======================================================
 cg2d: Sum(rhs),rhsMax =   2.21669863012535E+03  2.14042534337258E+01
 cg2d: Sum(rhs),rhsMax =   2.21669863012535E+03  2.14042534337258E+01
(PID.TID 0000.0001) // =======================================================
(PID.TID 0000.0001) // Begin MONITOR dynamic field statistics
(PID.TID 0000.0001) // =======================================================
(PID.TID 0000.0001) %MON ad_time_tsnumber             =                 72006
(PID.TID 0000.0001) %MON ad_time_secondsf             =   6.2213184000000E+09
(PID.TID 0000.0001) %MON ad_dynstat_adeta_max         =   0.0000000000000E+00
(PID.TID 0000.0001) %MON ad_dynstat_adeta_min         =   0.0000000000000E+00
(PID.TID 0000.0001) %MON ad_dynstat_adeta_mean        =   0.0000000000000E+00
(PID.TID 0000.0001) %MON ad_dynstat_adeta_sd          =   0.0000000000000E+00
(PID.TID 0000.0001) %MON ad_dynstat_adeta_del2        =   0.0000000000000E+00
(PID.TID 0000.0001) %MON ad_dynstat_aduvel_max        =   8.0849315996561E+01
(PID.TID 0000.0001) %MON ad_dynstat_aduvel_min        =  -1.2830846547348E+02
(PID.TID 0000.0001) %MON ad_dynstat_aduvel_mean       =   1.3692085743669E-01
(PID.TID 0000.0001) %MON ad_dynstat_aduvel_sd         =   4.5855671949533E+00
(PID.TID 0000.0001) %MON ad_dynstat_aduvel_del2       =   4.1940093339446E-02
(PID.TID 0000.0001) %MON ad_dynstat_advvel_max        =   7.3917011837107E+01
(PID.TID 0000.0001) %MON ad_dynstat_advvel_min        =  -7.1130624048931E+01
(PID.TID 0000.0001) %MON ad_dynstat_advvel_mean       =  -1.1596454412003E-02
(PID.TID 0000.0001) %MON ad_dynstat_advvel_sd         =   4.2173739981446E+00
(PID.TID 0000.0001) %MON ad_dynstat_advvel_del2       =   3.4430482188414E-02
(PID.TID 0000.0001) %MON ad_dynstat_adwvel_max        =   1.3665651123278E+02
(PID.TID 0000.0001) %MON ad_dynstat_adwvel_min        =  -6.4068043481839E+01
(PID.TID 0000.0001) %MON ad_dynstat_adwvel_mean       =   2.7118048444626E-02
(PID.TID 0000.0001) %MON ad_dynstat_adwvel_sd         =   1.5109540164777E+00
(PID.TID 0000.0001) %MON ad_dynstat_adwvel_del2       =   2.0449404219901E-02
(PID.TID 0000.0001) %MON ad_dynstat_adtheta_max       =   5.4202857258200E+01
(PID.TID 0000.0001) %MON ad_dynstat_adtheta_min       =  -4.5225940607103E+01
(PID.TID 0000.0001) %MON ad_dynstat_adtheta_mean      =  -1.0980111004451E+00
(PID.TID 0000.0001) %MON ad_dynstat_adtheta_sd        =   2.3089254118399E+00
(PID.TID 0000.0001) %MON ad_dynstat_adtheta_del2      =   1.0318345891042E-02
(PID.TID 0000.0001) %MON ad_dynstat_adsalt_max        =   1.9944015507833E+02
(PID.TID 0000.0001) %MON ad_dynstat_adsalt_min        =  -1.9461448066807E+02
(PID.TID 0000.0001) %MON ad_dynstat_adsalt_mean       =  -4.6179349386156E-03
(PID.TID 0000.0001) %MON ad_dynstat_adsalt_sd         =   1.1784717014332E+00
(PID.TID 0000.0001) %MON ad_dynstat_adsalt_del2       =   2.6627702096901E-02
(PID.TID 0000.0001) %MON ad_forcing_adqnet_max        =   0.0000000000000E+00
(PID.TID 0000.0001) %MON ad_forcing_adqnet_min        =   0.0000000000000E+00
(PID.TID 0000.0001) %MON ad_forcing_adqnet_mean       =   0.0000000000000E+00
(PID.TID 0000.0001) %MON ad_forcing_adqnet_sd         =   0.0000000000000E+00
(PID.TID 0000.0001) %MON ad_forcing_adqnet_del2       =   0.0000000000000E+00
(PID.TID 0000.0001) %MON ad_forcing_adqsw_max         =   0.0000000000000E+00
(PID.TID 0000.0001) %MON ad_forcing_adqsw_min         =   0.0000000000000E+00
(PID.TID 0000.0001) %MON ad_forcing_adqsw_mean        =   0.0000000000000E+00
(PID.TID 0000.0001) %MON ad_forcing_adqsw_sd          =   0.0000000000000E+00
(PID.TID 0000.0001) %MON ad_forcing_adqsw_del2        =   0.0000000000000E+00
(PID.TID 0000.0001) %MON ad_forcing_adempmr_max       =   0.0000000000000E+00
(PID.TID 0000.0001) %MON ad_forcing_adempmr_min       =   0.0000000000000E+00
(PID.TID 0000.0001) %MON ad_forcing_adempmr_mean      =   0.0000000000000E+00
(PID.TID 0000.0001) %MON ad_forcing_adempmr_sd        =   0.0000000000000E+00
(PID.TID 0000.0001) %MON ad_forcing_adempmr_del2      =   0.0000000000000E+00
(PID.TID 0000.0001) %MON ad_forcing_adfu_max          =   0.0000000000000E+00
(PID.TID 0000.0001) %MON ad_forcing_adfu_min          =   0.0000000000000E+00
(PID.TID 0000.0001) %MON ad_forcing_adfu_mean         =   0.0000000000000E+00
(PID.TID 0000.0001) %MON ad_forcing_adfu_sd           =   0.0000000000000E+00
(PID.TID 0000.0001) %MON ad_forcing_adfu_del2         =   0.0000000000000E+00
(PID.TID 0000.0001) %MON ad_forcing_adfv_max          =   0.0000000000000E+00
(PID.TID 0000.0001) %MON ad_forcing_adfv_min          =   0.0000000000000E+00
(PID.TID 0000.0001) %MON ad_forcing_adfv_mean         =   0.0000000000000E+00
(PID.TID 0000.0001) %MON ad_forcing_adfv_sd           =   0.0000000000000E+00
(PID.TID 0000.0001) %MON ad_forcing_adfv_del2         =   0.0000000000000E+00
(PID.TID 0000.0001) // =======================================================
(PID.TID 0000.0001) // End MONITOR dynamic field statistics
(PID.TID 0000.0001) // =======================================================
 cg2d: Sum(rhs),rhsMax =   1.62630325872826E-18  2.40592017772651E-03
(PID.TID 0000.0001) // =======================================================
(PID.TID 0000.0001) // Begin AD_MONITOR EXF statistics for iwhen =  3
(PID.TID 0000.0001) // =======================================================
(PID.TID 0000.0001) %MON ad_exf_tsnumber              =                 72005
(PID.TID 0000.0001) %MON ad_exf_time_sec              =   6.2212320000000E+09
(PID.TID 0000.0001) %MON ad_exf_adfu_max              =   1.9013043076620E+00
(PID.TID 0000.0001) %MON ad_exf_adfu_min              =  -4.0759692437519E+00
(PID.TID 0000.0001) %MON ad_exf_adfu_mean             =   1.2110395285156E-02
(PID.TID 0000.0001) %MON ad_exf_adfu_sd               =   3.3057926022098E-01
(PID.TID 0000.0001) %MON ad_exf_adfu_del2             =   9.6822533886152E-03
(PID.TID 0000.0001) %MON ad_exf_adfv_max              =   2.4321503826830E+00
(PID.TID 0000.0001) %MON ad_exf_adfv_min              =  -1.7736655927202E+00
(PID.TID 0000.0001) %MON ad_exf_adfv_mean             =  -2.5537792055016E-03
(PID.TID 0000.0001) %MON ad_exf_adfv_sd               =   2.7877693993539E-01
(PID.TID 0000.0001) %MON ad_exf_adfv_del2             =   7.9605233639727E-03
(PID.TID 0000.0001) %MON ad_exf_adqnet_max            =   1.8687689398422E-02
(PID.TID 0000.0001) %MON ad_exf_adqnet_min            =  -6.7231526489689E-03
(PID.TID 0000.0001) %MON ad_exf_adqnet_mean           =  -5.1980408372436E-04
(PID.TID 0000.0001) %MON ad_exf_adqnet_sd             =   1.1798339404152E-03
(PID.TID 0000.0001) %MON ad_exf_adqnet_del2           =   2.5540000236672E-05
(PID.TID 0000.0001) %MON ad_exf_adempmr_max           =   1.1200041482792E+04
(PID.TID 0000.0001) %MON ad_exf_adempmr_min           =  -7.2719346334928E+03
(PID.TID 0000.0001) %MON ad_exf_adempmr_mean          =  -1.4528186493442E+01
(PID.TID 0000.0001) %MON ad_exf_adempmr_sd            =   2.6866063265208E+02
(PID.TID 0000.0001) %MON ad_exf_adempmr_del2          =   1.2080716818748E+01
(PID.TID 0000.0001) // =======================================================
(PID.TID 0000.0001) // End AD_MONITOR EXF statistics for iwhen =  3
(PID.TID 0000.0001) // =======================================================
(PID.TID 0000.0001) // =======================================================
(PID.TID 0000.0001) // Begin AD_MONITOR EXF statistics for iwhen =  1
(PID.TID 0000.0001) // =======================================================
(PID.TID 0000.0001) %MON ad_exf_tsnumber              =                 72005
(PID.TID 0000.0001) %MON ad_exf_time_sec              =   6.2212320000000E+09
(PID.TID 0000.0001) %MON ad_exf_adustress_max         =   1.9013043076620E+00
(PID.TID 0000.0001) %MON ad_exf_adustress_min         =  -4.0759692437519E+00
(PID.TID 0000.0001) %MON ad_exf_adustress_mean        =   1.1398755226359E-02
(PID.TID 0000.0001) %MON ad_exf_adustress_sd          =   3.3823889740509E-01
(PID.TID 0000.0001) %MON ad_exf_adustress_del2        =   9.7712557493389E-03
(PID.TID 0000.0001) %MON ad_exf_advstress_max         =   2.4321503826830E+00
(PID.TID 0000.0001) %MON ad_exf_advstress_min         =  -1.7736655927202E+00
(PID.TID 0000.0001) %MON ad_exf_advstress_mean        =  -6.8531167943203E-03
(PID.TID 0000.0001) %MON ad_exf_advstress_sd          =   2.8686947857014E-01
(PID.TID 0000.0001) %MON ad_exf_advstress_del2        =   7.7806860428608E-03
(PID.TID 0000.0001) %MON ad_exf_adhflux_max           =   1.8687689398422E-02
(PID.TID 0000.0001) %MON ad_exf_adhflux_min           =  -6.7231526489689E-03
(PID.TID 0000.0001) %MON ad_exf_adhflux_mean          =  -5.1980408372436E-04
(PID.TID 0000.0001) %MON ad_exf_adhflux_sd            =   1.1798339404152E-03
(PID.TID 0000.0001) %MON ad_exf_adhflux_del2          =   2.5540000236672E-05
(PID.TID 0000.0001) %MON ad_exf_adsflux_max           =   1.1200041482792E+07
(PID.TID 0000.0001) %MON ad_exf_adsflux_min           =  -7.2719346334928E+06
(PID.TID 0000.0001) %MON ad_exf_adsflux_mean          =  -1.4528186493442E+04
(PID.TID 0000.0001) %MON ad_exf_adsflux_sd            =   2.6866063265208E+05
(PID.TID 0000.0001) %MON ad_exf_adsflux_del2          =   1.2080716818748E+04
(PID.TID 0000.0001) %MON ad_exf_adwspeed_max          =   0.0000000000000E+00
(PID.TID 0000.0001) %MON ad_exf_adwspeed_min          =   0.0000000000000E+00
(PID.TID 0000.0001) %MON ad_exf_adwspeed_mean         =   0.0000000000000E+00
(PID.TID 0000.0001) %MON ad_exf_adwspeed_sd           =   0.0000000000000E+00
(PID.TID 0000.0001) %MON ad_exf_adwspeed_del2         =   0.0000000000000E+00
(PID.TID 0000.0001) // =======================================================
(PID.TID 0000.0001) // End AD_MONITOR EXF statistics for iwhen =  1
(PID.TID 0000.0001) // =======================================================
(PID.TID 0000.0001) // =======================================================
(PID.TID 0000.0001) // Begin AD_MONITOR EXF statistics for iwhen =  2
(PID.TID 0000.0001) // =======================================================
(PID.TID 0000.0001) %MON ad_exf_tsnumber              =                 72005
(PID.TID 0000.0001) %MON ad_exf_time_sec              =   6.2212320000000E+09
(PID.TID 0000.0001) %MON ad_exf_adatemp_max           =   1.3689945363102E-01
(PID.TID 0000.0001) %MON ad_exf_adatemp_min           =  -3.3174163891217E-01
(PID.TID 0000.0001) %MON ad_exf_adatemp_mean          =   5.5962156610312E-03
(PID.TID 0000.0001) %MON ad_exf_adatemp_sd            =   1.5487930138238E-02
(PID.TID 0000.0001) %MON ad_exf_adatemp_del2          =   4.0353796081961E-04
(PID.TID 0000.0001) %MON ad_exf_adaqh_max             =   4.2585131262448E+02
(PID.TID 0000.0001) %MON ad_exf_adaqh_min             =  -9.8552934215515E+02
(PID.TID 0000.0001) %MON ad_exf_adaqh_mean            =   1.2506470797718E+01
(PID.TID 0000.0001) %MON ad_exf_adaqh_sd              =   3.9482300961779E+01
(PID.TID 0000.0001) %MON ad_exf_adaqh_del2            =   1.1140047161853E+00
(PID.TID 0000.0001) %MON ad_exf_adlwflux_max          =   0.0000000000000E+00
(PID.TID 0000.0001) %MON ad_exf_adlwflux_min          =   0.0000000000000E+00
(PID.TID 0000.0001) %MON ad_exf_adlwflux_mean         =   0.0000000000000E+00
(PID.TID 0000.0001) %MON ad_exf_adlwflux_sd           =   0.0000000000000E+00
(PID.TID 0000.0001) %MON ad_exf_adlwflux_del2         =   0.0000000000000E+00
(PID.TID 0000.0001) %MON ad_exf_adprecip_max          =   7.2719346334928E+06
(PID.TID 0000.0001) %MON ad_exf_adprecip_min          =  -1.1200041482792E+07
(PID.TID 0000.0001) %MON ad_exf_adprecip_mean         =   1.4944704181463E+04
(PID.TID 0000.0001) %MON ad_exf_adprecip_sd           =   2.7198104504701E+05
(PID.TID 0000.0001) %MON ad_exf_adprecip_del2         =   1.2177292572470E+04
(PID.TID 0000.0001) %MON ad_exf_adswflux_max          =   0.0000000000000E+00
(PID.TID 0000.0001) %MON ad_exf_adswflux_min          =   0.0000000000000E+00
(PID.TID 0000.0001) %MON ad_exf_adswflux_mean         =   0.0000000000000E+00
(PID.TID 0000.0001) %MON ad_exf_adswflux_sd           =   0.0000000000000E+00
(PID.TID 0000.0001) %MON ad_exf_adswflux_del2         =   0.0000000000000E+00
(PID.TID 0000.0001) %MON ad_exf_adswdown_max          =   6.2794245741370E-03
(PID.TID 0000.0001) %MON ad_exf_adswdown_min          =  -1.6455911619256E-02
(PID.TID 0000.0001) %MON ad_exf_adswdown_mean         =   4.7959360438433E-04
(PID.TID 0000.0001) %MON ad_exf_adswdown_sd           =   1.0705323582958E-03
(PID.TID 0000.0001) %MON ad_exf_adswdown_del2         =   2.2859630292536E-05
(PID.TID 0000.0001) %MON ad_exf_adlwdown_max          =   6.7231526489689E-03
(PID.TID 0000.0001) %MON ad_exf_adlwdown_min          =  -1.8687689398422E-02
(PID.TID 0000.0001) %MON ad_exf_adlwdown_mean         =   5.2093963992981E-04
(PID.TID 0000.0001) %MON ad_exf_adlwdown_sd           =   1.1803039209010E-03
(PID.TID 0000.0001) %MON ad_exf_adlwdown_del2         =   2.5543788218955E-05
(PID.TID 0000.0001) // =======================================================
(PID.TID 0000.0001) // End AD_MONITOR EXF statistics for iwhen =  2
(PID.TID 0000.0001) // =======================================================
 cg2d: Sum(rhs),rhsMax =   2.21702018208835E+03  2.13515723876122E+01
 cg2d: Sum(rhs),rhsMax =   2.21702018208835E+03  2.13515723876122E+01
(PID.TID 0000.0001) // =======================================================
(PID.TID 0000.0001) // Begin MONITOR dynamic field statistics
(PID.TID 0000.0001) // =======================================================
(PID.TID 0000.0001) %MON ad_time_tsnumber             =                 72005
(PID.TID 0000.0001) %MON ad_time_secondsf             =   6.2212320000000E+09
(PID.TID 0000.0001) %MON ad_dynstat_adeta_max         =   0.0000000000000E+00
(PID.TID 0000.0001) %MON ad_dynstat_adeta_min         =   0.0000000000000E+00
(PID.TID 0000.0001) %MON ad_dynstat_adeta_mean        =   0.0000000000000E+00
(PID.TID 0000.0001) %MON ad_dynstat_adeta_sd          =   0.0000000000000E+00
(PID.TID 0000.0001) %MON ad_dynstat_adeta_del2        =   0.0000000000000E+00
(PID.TID 0000.0001) %MON ad_dynstat_aduvel_max        =   9.9543727268875E+01
(PID.TID 0000.0001) %MON ad_dynstat_aduvel_min        =  -1.5652901143395E+02
(PID.TID 0000.0001) %MON ad_dynstat_aduvel_mean       =   1.6284680259172E-01
(PID.TID 0000.0001) %MON ad_dynstat_aduvel_sd         =   5.5824840427493E+00
(PID.TID 0000.0001) %MON ad_dynstat_aduvel_del2       =   5.0717545893657E-02
(PID.TID 0000.0001) %MON ad_dynstat_advvel_max        =   9.1607203758755E+01
(PID.TID 0000.0001) %MON ad_dynstat_advvel_min        =  -8.7560542910761E+01
(PID.TID 0000.0001) %MON ad_dynstat_advvel_mean       =   4.4874264755517E-02
(PID.TID 0000.0001) %MON ad_dynstat_advvel_sd         =   5.1526067427762E+00
(PID.TID 0000.0001) %MON ad_dynstat_advvel_del2       =   4.1480129313142E-02
(PID.TID 0000.0001) %MON ad_dynstat_adwvel_max        =   1.6293023931631E+02
(PID.TID 0000.0001) %MON ad_dynstat_adwvel_min        =  -7.6184241951437E+01
(PID.TID 0000.0001) %MON ad_dynstat_adwvel_mean       =   3.3043547569881E-02
(PID.TID 0000.0001) %MON ad_dynstat_adwvel_sd         =   1.8082070341596E+00
(PID.TID 0000.0001) %MON ad_dynstat_adwvel_del2       =   2.4264033657996E-02
(PID.TID 0000.0001) %MON ad_dynstat_adtheta_max       =   5.2620394591391E+01
(PID.TID 0000.0001) %MON ad_dynstat_adtheta_min       =  -4.3217156049471E+01
(PID.TID 0000.0001) %MON ad_dynstat_adtheta_mean      =  -1.0981718701880E+00
(PID.TID 0000.0001) %MON ad_dynstat_adtheta_sd        =   2.3083757851268E+00
(PID.TID 0000.0001) %MON ad_dynstat_adtheta_del2      =   1.0448448559426E-02
(PID.TID 0000.0001) %MON ad_dynstat_adsalt_max        =   1.9467984107105E+02
(PID.TID 0000.0001) %MON ad_dynstat_adsalt_min        =  -1.8835572381972E+02
(PID.TID 0000.0001) %MON ad_dynstat_adsalt_mean       =  -6.3202835305758E-03
(PID.TID 0000.0001) %MON ad_dynstat_adsalt_sd         =   1.4483010179784E+00
(PID.TID 0000.0001) %MON ad_dynstat_adsalt_del2       =   2.9806765467558E-02
(PID.TID 0000.0001) %MON ad_forcing_adqnet_max        =   0.0000000000000E+00
(PID.TID 0000.0001) %MON ad_forcing_adqnet_min        =   0.0000000000000E+00
(PID.TID 0000.0001) %MON ad_forcing_adqnet_mean       =   0.0000000000000E+00
(PID.TID 0000.0001) %MON ad_forcing_adqnet_sd         =   0.0000000000000E+00
(PID.TID 0000.0001) %MON ad_forcing_adqnet_del2       =   0.0000000000000E+00
(PID.TID 0000.0001) %MON ad_forcing_adqsw_max         =   0.0000000000000E+00
(PID.TID 0000.0001) %MON ad_forcing_adqsw_min         =   0.0000000000000E+00
(PID.TID 0000.0001) %MON ad_forcing_adqsw_mean        =   0.0000000000000E+00
(PID.TID 0000.0001) %MON ad_forcing_adqsw_sd          =   0.0000000000000E+00
(PID.TID 0000.0001) %MON ad_forcing_adqsw_del2        =   0.0000000000000E+00
(PID.TID 0000.0001) %MON ad_forcing_adempmr_max       =   0.0000000000000E+00
(PID.TID 0000.0001) %MON ad_forcing_adempmr_min       =   0.0000000000000E+00
(PID.TID 0000.0001) %MON ad_forcing_adempmr_mean      =   0.0000000000000E+00
(PID.TID 0000.0001) %MON ad_forcing_adempmr_sd        =   0.0000000000000E+00
(PID.TID 0000.0001) %MON ad_forcing_adempmr_del2      =   0.0000000000000E+00
(PID.TID 0000.0001) %MON ad_forcing_adfu_max          =   0.0000000000000E+00
(PID.TID 0000.0001) %MON ad_forcing_adfu_min          =   0.0000000000000E+00
(PID.TID 0000.0001) %MON ad_forcing_adfu_mean         =   0.0000000000000E+00
(PID.TID 0000.0001) %MON ad_forcing_adfu_sd           =   0.0000000000000E+00
(PID.TID 0000.0001) %MON ad_forcing_adfu_del2         =   0.0000000000000E+00
(PID.TID 0000.0001) %MON ad_forcing_adfv_max          =   0.0000000000000E+00
(PID.TID 0000.0001) %MON ad_forcing_adfv_min          =   0.0000000000000E+00
(PID.TID 0000.0001) %MON ad_forcing_adfv_mean         =   0.0000000000000E+00
(PID.TID 0000.0001) %MON ad_forcing_adfv_sd           =   0.0000000000000E+00
(PID.TID 0000.0001) %MON ad_forcing_adfv_del2         =   0.0000000000000E+00
(PID.TID 0000.0001) // =======================================================
(PID.TID 0000.0001) // End MONITOR dynamic field statistics
(PID.TID 0000.0001) // =======================================================
 cg2d: Sum(rhs),rhsMax =   6.50521303491303E-19  1.77797095145837E-03
(PID.TID 0000.0001) // =======================================================
(PID.TID 0000.0001) // Begin AD_MONITOR EXF statistics for iwhen =  3
(PID.TID 0000.0001) // =======================================================
(PID.TID 0000.0001) %MON ad_exf_tsnumber              =                 72004
(PID.TID 0000.0001) %MON ad_exf_time_sec              =   6.2211456000000E+09
(PID.TID 0000.0001) %MON ad_exf_adfu_max              =   2.1880584563447E+00
(PID.TID 0000.0001) %MON ad_exf_adfu_min              =  -4.6819055915096E+00
(PID.TID 0000.0001) %MON ad_exf_adfu_mean             =   1.2759580065818E-02
(PID.TID 0000.0001) %MON ad_exf_adfu_sd               =   3.8113936931497E-01
(PID.TID 0000.0001) %MON ad_exf_adfu_del2             =   1.1001359886659E-02
(PID.TID 0000.0001) %MON ad_exf_adfv_max              =   2.8185584020516E+00
(PID.TID 0000.0001) %MON ad_exf_adfv_min              =  -1.9339905117964E+00
(PID.TID 0000.0001) %MON ad_exf_adfv_mean             =  -5.4577740567014E-03
(PID.TID 0000.0001) %MON ad_exf_adfv_sd               =   3.2187980827656E-01
(PID.TID 0000.0001) %MON ad_exf_adfv_del2             =   8.9846538789510E-03
(PID.TID 0000.0001) %MON ad_exf_adqnet_max            =   1.7923568252425E-02
(PID.TID 0000.0001) %MON ad_exf_adqnet_min            =  -7.0311473802088E-03
(PID.TID 0000.0001) %MON ad_exf_adqnet_mean           =  -5.1444451461764E-04
(PID.TID 0000.0001) %MON ad_exf_adqnet_sd             =   1.1643480390499E-03
(PID.TID 0000.0001) %MON ad_exf_adqnet_del2           =   2.5623651716041E-05
(PID.TID 0000.0001) %MON ad_exf_adempmr_max           =   1.0973859129613E+04
(PID.TID 0000.0001) %MON ad_exf_adempmr_min           =  -7.4930248487813E+03
(PID.TID 0000.0001) %MON ad_exf_adempmr_mean          =  -1.5326500033271E+01
(PID.TID 0000.0001) %MON ad_exf_adempmr_sd            =   2.8339885772333E+02
(PID.TID 0000.0001) %MON ad_exf_adempmr_del2          =   1.2793432930835E+01
(PID.TID 0000.0001) // =======================================================
(PID.TID 0000.0001) // End AD_MONITOR EXF statistics for iwhen =  3
(PID.TID 0000.0001) // =======================================================
(PID.TID 0000.0001) // =======================================================
(PID.TID 0000.0001) // Begin AD_MONITOR EXF statistics for iwhen =  1
(PID.TID 0000.0001) // =======================================================
(PID.TID 0000.0001) %MON ad_exf_tsnumber              =                 72004
(PID.TID 0000.0001) %MON ad_exf_time_sec              =   6.2211456000000E+09
(PID.TID 0000.0001) %MON ad_exf_adustress_max         =   2.1880584563447E+00
(PID.TID 0000.0001) %MON ad_exf_adustress_min         =  -4.6819055915096E+00
(PID.TID 0000.0001) %MON ad_exf_adustress_mean        =   1.2222544455173E-02
(PID.TID 0000.0001) %MON ad_exf_adustress_sd          =   3.9009911499106E-01
(PID.TID 0000.0001) %MON ad_exf_adustress_del2        =   1.1122105901325E-02
(PID.TID 0000.0001) %MON ad_exf_advstress_max         =   2.8185584020516E+00
(PID.TID 0000.0001) %MON ad_exf_advstress_min         =  -1.9339905117964E+00
(PID.TID 0000.0001) %MON ad_exf_advstress_mean        =  -9.8422512724691E-03
(PID.TID 0000.0001) %MON ad_exf_advstress_sd          =   3.3123658991024E-01
(PID.TID 0000.0001) %MON ad_exf_advstress_del2        =   8.8118508542125E-03
(PID.TID 0000.0001) %MON ad_exf_adhflux_max           =   1.7923568252425E-02
(PID.TID 0000.0001) %MON ad_exf_adhflux_min           =  -7.0311473802088E-03
(PID.TID 0000.0001) %MON ad_exf_adhflux_mean          =  -5.1444451461764E-04
(PID.TID 0000.0001) %MON ad_exf_adhflux_sd            =   1.1643480390499E-03
(PID.TID 0000.0001) %MON ad_exf_adhflux_del2          =   2.5623651716041E-05
(PID.TID 0000.0001) %MON ad_exf_adsflux_max           =   1.0973859129613E+07
(PID.TID 0000.0001) %MON ad_exf_adsflux_min           =  -7.4930248487813E+06
(PID.TID 0000.0001) %MON ad_exf_adsflux_mean          =  -1.5326500033271E+04
(PID.TID 0000.0001) %MON ad_exf_adsflux_sd            =   2.8339885772333E+05
(PID.TID 0000.0001) %MON ad_exf_adsflux_del2          =   1.2793432930835E+04
(PID.TID 0000.0001) %MON ad_exf_adwspeed_max          =   0.0000000000000E+00
(PID.TID 0000.0001) %MON ad_exf_adwspeed_min          =   0.0000000000000E+00
(PID.TID 0000.0001) %MON ad_exf_adwspeed_mean         =   0.0000000000000E+00
(PID.TID 0000.0001) %MON ad_exf_adwspeed_sd           =   0.0000000000000E+00
(PID.TID 0000.0001) %MON ad_exf_adwspeed_del2         =   0.0000000000000E+00
(PID.TID 0000.0001) // =======================================================
(PID.TID 0000.0001) // End AD_MONITOR EXF statistics for iwhen =  1
(PID.TID 0000.0001) // =======================================================
(PID.TID 0000.0001) // =======================================================
(PID.TID 0000.0001) // Begin AD_MONITOR EXF statistics for iwhen =  2
(PID.TID 0000.0001) // =======================================================
(PID.TID 0000.0001) %MON ad_exf_tsnumber              =                 72004
(PID.TID 0000.0001) %MON ad_exf_time_sec              =   6.2211456000000E+09
(PID.TID 0000.0001) %MON ad_exf_adatemp_max           =   1.5130383362889E-01
(PID.TID 0000.0001) %MON ad_exf_adatemp_min           =  -3.1841297409916E-01
(PID.TID 0000.0001) %MON ad_exf_adatemp_mean          =   5.5535639444008E-03
(PID.TID 0000.0001) %MON ad_exf_adatemp_sd            =   1.5330009007583E-02
(PID.TID 0000.0001) %MON ad_exf_adatemp_del2          =   4.0720953883750E-04
(PID.TID 0000.0001) %MON ad_exf_adaqh_max             =   4.7144907076925E+02
(PID.TID 0000.0001) %MON ad_exf_adaqh_min             =  -9.4945879708534E+02
(PID.TID 0000.0001) %MON ad_exf_adaqh_mean            =   1.2453317132470E+01
(PID.TID 0000.0001) %MON ad_exf_adaqh_sd              =   3.9224400443493E+01
(PID.TID 0000.0001) %MON ad_exf_adaqh_del2            =   1.1355833013931E+00
(PID.TID 0000.0001) %MON ad_exf_adlwflux_max          =   0.0000000000000E+00
(PID.TID 0000.0001) %MON ad_exf_adlwflux_min          =   0.0000000000000E+00
(PID.TID 0000.0001) %MON ad_exf_adlwflux_mean         =   0.0000000000000E+00
(PID.TID 0000.0001) %MON ad_exf_adlwflux_sd           =   0.0000000000000E+00
(PID.TID 0000.0001) %MON ad_exf_adlwflux_del2         =   0.0000000000000E+00
(PID.TID 0000.0001) %MON ad_exf_adprecip_max          =   7.4930248487813E+06
(PID.TID 0000.0001) %MON ad_exf_adprecip_min          =  -1.0973859129613E+07
(PID.TID 0000.0001) %MON ad_exf_adprecip_mean         =   1.5823646758928E+04
(PID.TID 0000.0001) %MON ad_exf_adprecip_sd           =   2.8769235033969E+05
(PID.TID 0000.0001) %MON ad_exf_adprecip_del2         =   1.2916247496855E+04
(PID.TID 0000.0001) %MON ad_exf_adswflux_max          =   0.0000000000000E+00
(PID.TID 0000.0001) %MON ad_exf_adswflux_min          =   0.0000000000000E+00
(PID.TID 0000.0001) %MON ad_exf_adswflux_mean         =   0.0000000000000E+00
(PID.TID 0000.0001) %MON ad_exf_adswflux_sd           =   0.0000000000000E+00
(PID.TID 0000.0001) %MON ad_exf_adswflux_del2         =   0.0000000000000E+00
(PID.TID 0000.0001) %MON ad_exf_adswdown_max          =   6.2268032323492E-03
(PID.TID 0000.0001) %MON ad_exf_adswdown_min          =  -1.5776312550014E-02
(PID.TID 0000.0001) %MON ad_exf_adswdown_mean         =   4.7486462004355E-04
(PID.TID 0000.0001) %MON ad_exf_adswdown_sd           =   1.0563648532524E-03
(PID.TID 0000.0001) %MON ad_exf_adswdown_del2         =   2.2913889166391E-05
(PID.TID 0000.0001) %MON ad_exf_adlwdown_max          =   7.0311473802088E-03
(PID.TID 0000.0001) %MON ad_exf_adlwdown_min          =  -1.7923568252425E-02
(PID.TID 0000.0001) %MON ad_exf_adlwdown_mean         =   5.1594257035933E-04
(PID.TID 0000.0001) %MON ad_exf_adlwdown_sd           =   1.1650034962500E-03
(PID.TID 0000.0001) %MON ad_exf_adlwdown_del2         =   2.5631256968929E-05
(PID.TID 0000.0001) // =======================================================
(PID.TID 0000.0001) // End AD_MONITOR EXF statistics for iwhen =  2
(PID.TID 0000.0001) // =======================================================
 cg2d: Sum(rhs),rhsMax =   2.21734622765936E+03  2.12960813098568E+01
 cg2d: Sum(rhs),rhsMax =   2.21734622765936E+03  2.12960813098568E+01
(PID.TID 0000.0001) // =======================================================
(PID.TID 0000.0001) // Begin MONITOR dynamic field statistics
(PID.TID 0000.0001) // =======================================================
(PID.TID 0000.0001) %MON ad_time_tsnumber             =                 72004
(PID.TID 0000.0001) %MON ad_time_secondsf             =   6.2211456000000E+09
(PID.TID 0000.0001) %MON ad_dynstat_adeta_max         =   0.0000000000000E+00
(PID.TID 0000.0001) %MON ad_dynstat_adeta_min         =   0.0000000000000E+00
(PID.TID 0000.0001) %MON ad_dynstat_adeta_mean        =   0.0000000000000E+00
(PID.TID 0000.0001) %MON ad_dynstat_adeta_sd          =   0.0000000000000E+00
(PID.TID 0000.0001) %MON ad_dynstat_adeta_del2        =   0.0000000000000E+00
(PID.TID 0000.0001) %MON ad_dynstat_aduvel_max        =   1.2061135298325E+02
(PID.TID 0000.0001) %MON ad_dynstat_aduvel_min        =  -1.8257414478917E+02
(PID.TID 0000.0001) %MON ad_dynstat_aduvel_mean       =   1.8333199994163E-01
(PID.TID 0000.0001) %MON ad_dynstat_aduvel_sd         =   6.5021645104065E+00
(PID.TID 0000.0001) %MON ad_dynstat_aduvel_del2       =   5.8685168521613E-02
(PID.TID 0000.0001) %MON ad_dynstat_advvel_max        =   1.0906211341071E+02
(PID.TID 0000.0001) %MON ad_dynstat_advvel_min        =  -1.0218105440072E+02
(PID.TID 0000.0001) %MON ad_dynstat_advvel_mean       =   9.8254123339345E-02
(PID.TID 0000.0001) %MON ad_dynstat_advvel_sd         =   6.0324559778910E+00
(PID.TID 0000.0001) %MON ad_dynstat_advvel_del2       =   4.7899935353503E-02
(PID.TID 0000.0001) %MON ad_dynstat_adwvel_max        =   1.8734051034779E+02
(PID.TID 0000.0001) %MON ad_dynstat_adwvel_min        =  -8.9188000142850E+01
(PID.TID 0000.0001) %MON ad_dynstat_adwvel_mean       =   3.8897599034610E-02
(PID.TID 0000.0001) %MON ad_dynstat_adwvel_sd         =   2.0920683922432E+00
(PID.TID 0000.0001) %MON ad_dynstat_adwvel_del2       =   2.7815775868304E-02
(PID.TID 0000.0001) %MON ad_dynstat_adtheta_max       =   5.1301556188599E+01
(PID.TID 0000.0001) %MON ad_dynstat_adtheta_min       =  -4.1620662827627E+01
(PID.TID 0000.0001) %MON ad_dynstat_adtheta_mean      =  -1.0983011828737E+00
(PID.TID 0000.0001) %MON ad_dynstat_adtheta_sd        =   2.3104751997783E+00
(PID.TID 0000.0001) %MON ad_dynstat_adtheta_del2      =   1.0775646357063E-02
(PID.TID 0000.0001) %MON ad_dynstat_adsalt_max        =   2.2487423496000E+02
(PID.TID 0000.0001) %MON ad_dynstat_adsalt_min        =  -2.2623226651046E+02
(PID.TID 0000.0001) %MON ad_dynstat_adsalt_mean       =  -8.1416979773688E-03
(PID.TID 0000.0001) %MON ad_dynstat_adsalt_sd         =   1.7929681648587E+00
(PID.TID 0000.0001) %MON ad_dynstat_adsalt_del2       =   3.4600283445852E-02
(PID.TID 0000.0001) %MON ad_forcing_adqnet_max        =   0.0000000000000E+00
(PID.TID 0000.0001) %MON ad_forcing_adqnet_min        =   0.0000000000000E+00
(PID.TID 0000.0001) %MON ad_forcing_adqnet_mean       =   0.0000000000000E+00
(PID.TID 0000.0001) %MON ad_forcing_adqnet_sd         =   0.0000000000000E+00
(PID.TID 0000.0001) %MON ad_forcing_adqnet_del2       =   0.0000000000000E+00
(PID.TID 0000.0001) %MON ad_forcing_adqsw_max         =   0.0000000000000E+00
(PID.TID 0000.0001) %MON ad_forcing_adqsw_min         =   0.0000000000000E+00
(PID.TID 0000.0001) %MON ad_forcing_adqsw_mean        =   0.0000000000000E+00
(PID.TID 0000.0001) %MON ad_forcing_adqsw_sd          =   0.0000000000000E+00
(PID.TID 0000.0001) %MON ad_forcing_adqsw_del2        =   0.0000000000000E+00
(PID.TID 0000.0001) %MON ad_forcing_adempmr_max       =   0.0000000000000E+00
(PID.TID 0000.0001) %MON ad_forcing_adempmr_min       =   0.0000000000000E+00
(PID.TID 0000.0001) %MON ad_forcing_adempmr_mean      =   0.0000000000000E+00
(PID.TID 0000.0001) %MON ad_forcing_adempmr_sd        =   0.0000000000000E+00
(PID.TID 0000.0001) %MON ad_forcing_adempmr_del2      =   0.0000000000000E+00
(PID.TID 0000.0001) %MON ad_forcing_adfu_max          =   0.0000000000000E+00
(PID.TID 0000.0001) %MON ad_forcing_adfu_min          =   0.0000000000000E+00
(PID.TID 0000.0001) %MON ad_forcing_adfu_mean         =   0.0000000000000E+00
(PID.TID 0000.0001) %MON ad_forcing_adfu_sd           =   0.0000000000000E+00
(PID.TID 0000.0001) %MON ad_forcing_adfu_del2         =   0.0000000000000E+00
(PID.TID 0000.0001) %MON ad_forcing_adfv_max          =   0.0000000000000E+00
(PID.TID 0000.0001) %MON ad_forcing_adfv_min          =   0.0000000000000E+00
(PID.TID 0000.0001) %MON ad_forcing_adfv_mean         =   0.0000000000000E+00
(PID.TID 0000.0001) %MON ad_forcing_adfv_sd           =   0.0000000000000E+00
(PID.TID 0000.0001) %MON ad_forcing_adfv_del2         =   0.0000000000000E+00
(PID.TID 0000.0001) // =======================================================
(PID.TID 0000.0001) // End MONITOR dynamic field statistics
(PID.TID 0000.0001) // =======================================================
 cg2d: Sum(rhs),rhsMax =  -3.08997619158369E-18  1.51893710818285E-03
(PID.TID 0000.0001) // =======================================================
(PID.TID 0000.0001) // Begin AD_MONITOR EXF statistics for iwhen =  3
(PID.TID 0000.0001) // =======================================================
(PID.TID 0000.0001) %MON ad_exf_tsnumber              =                 72003
(PID.TID 0000.0001) %MON ad_exf_time_sec              =   6.2210592000000E+09
(PID.TID 0000.0001) %MON ad_exf_adfu_max              =   2.4250051543132E+00
(PID.TID 0000.0001) %MON ad_exf_adfu_min              =  -5.2322478367324E+00
(PID.TID 0000.0001) %MON ad_exf_adfu_mean             =   1.3231973503532E-02
(PID.TID 0000.0001) %MON ad_exf_adfu_sd               =   4.2843319792400E-01
(PID.TID 0000.0001) %MON ad_exf_adfu_del2             =   1.2209151322096E-02
(PID.TID 0000.0001) %MON ad_exf_adfv_max              =   3.1834055307473E+00
(PID.TID 0000.0001) %MON ad_exf_adfv_min              =  -2.0462451907201E+00
(PID.TID 0000.0001) %MON ad_exf_adfv_mean             =  -8.7169588738721E-03
(PID.TID 0000.0001) %MON ad_exf_adfv_sd               =   3.6293804675769E-01
(PID.TID 0000.0001) %MON ad_exf_adfv_del2             =   9.9118971639661E-03
(PID.TID 0000.0001) %MON ad_exf_adqnet_max            =   1.7268139825246E-02
(PID.TID 0000.0001) %MON ad_exf_adqnet_min            =  -7.5429242081440E-03
(PID.TID 0000.0001) %MON ad_exf_adqnet_mean           =  -5.0890992902054E-04
(PID.TID 0000.0001) %MON ad_exf_adqnet_sd             =   1.1521230852749E-03
(PID.TID 0000.0001) %MON ad_exf_adqnet_del2           =   2.6090046526313E-05
(PID.TID 0000.0001) %MON ad_exf_adempmr_max           =   1.0796529572890E+04
(PID.TID 0000.0001) %MON ad_exf_adempmr_min           =  -7.6202944850364E+03
(PID.TID 0000.0001) %MON ad_exf_adempmr_mean          =  -1.5838118572366E+01
(PID.TID 0000.0001) %MON ad_exf_adempmr_sd            =   3.0417968729764E+02
(PID.TID 0000.0001) %MON ad_exf_adempmr_del2          =   1.3916885604849E+01
(PID.TID 0000.0001) // =======================================================
(PID.TID 0000.0001) // End AD_MONITOR EXF statistics for iwhen =  3
(PID.TID 0000.0001) // =======================================================
(PID.TID 0000.0001) // =======================================================
(PID.TID 0000.0001) // Begin AD_MONITOR EXF statistics for iwhen =  1
(PID.TID 0000.0001) // =======================================================
(PID.TID 0000.0001) %MON ad_exf_tsnumber              =                 72003
(PID.TID 0000.0001) %MON ad_exf_time_sec              =   6.2210592000000E+09
(PID.TID 0000.0001) %MON ad_exf_adustress_max         =   2.4250051543132E+00
(PID.TID 0000.0001) %MON ad_exf_adustress_min         =  -5.2322478367324E+00
(PID.TID 0000.0001) %MON ad_exf_adustress_mean        =   1.2821347445827E-02
(PID.TID 0000.0001) %MON ad_exf_adustress_sd          =   4.3858483625311E-01
(PID.TID 0000.0001) %MON ad_exf_adustress_del2        =   1.2347011312672E-02
(PID.TID 0000.0001) %MON ad_exf_advstress_max         =   3.1834055307473E+00
(PID.TID 0000.0001) %MON ad_exf_advstress_min         =  -2.0462451907201E+00
(PID.TID 0000.0001) %MON ad_exf_advstress_mean        =  -1.3197668461208E-02
(PID.TID 0000.0001) %MON ad_exf_advstress_sd          =   3.7336515803621E-01
(PID.TID 0000.0001) %MON ad_exf_advstress_del2        =   9.7376206068053E-03
(PID.TID 0000.0001) %MON ad_exf_adhflux_max           =   1.7268139825246E-02
(PID.TID 0000.0001) %MON ad_exf_adhflux_min           =  -7.5429242081440E-03
(PID.TID 0000.0001) %MON ad_exf_adhflux_mean          =  -5.0890992902054E-04
(PID.TID 0000.0001) %MON ad_exf_adhflux_sd            =   1.1521230852749E-03
(PID.TID 0000.0001) %MON ad_exf_adhflux_del2          =   2.6090046526313E-05
(PID.TID 0000.0001) %MON ad_exf_adsflux_max           =   1.0796529572890E+07
(PID.TID 0000.0001) %MON ad_exf_adsflux_min           =  -7.6202944850364E+06
(PID.TID 0000.0001) %MON ad_exf_adsflux_mean          =  -1.5838118572366E+04
(PID.TID 0000.0001) %MON ad_exf_adsflux_sd            =   3.0417968729764E+05
(PID.TID 0000.0001) %MON ad_exf_adsflux_del2          =   1.3916885604849E+04
(PID.TID 0000.0001) %MON ad_exf_adwspeed_max          =   0.0000000000000E+00
(PID.TID 0000.0001) %MON ad_exf_adwspeed_min          =   0.0000000000000E+00
(PID.TID 0000.0001) %MON ad_exf_adwspeed_mean         =   0.0000000000000E+00
(PID.TID 0000.0001) %MON ad_exf_adwspeed_sd           =   0.0000000000000E+00
(PID.TID 0000.0001) %MON ad_exf_adwspeed_del2         =   0.0000000000000E+00
(PID.TID 0000.0001) // =======================================================
(PID.TID 0000.0001) // End AD_MONITOR EXF statistics for iwhen =  1
(PID.TID 0000.0001) // =======================================================
(PID.TID 0000.0001) // =======================================================
(PID.TID 0000.0001) // Begin AD_MONITOR EXF statistics for iwhen =  2
(PID.TID 0000.0001) // =======================================================
(PID.TID 0000.0001) %MON ad_exf_tsnumber              =                 72003
(PID.TID 0000.0001) %MON ad_exf_time_sec              =   6.2210592000000E+09
(PID.TID 0000.0001) %MON ad_exf_adatemp_max           =   1.6155005286335E-01
(PID.TID 0000.0001) %MON ad_exf_adatemp_min           =  -3.0710114216056E-01
(PID.TID 0000.0001) %MON ad_exf_adatemp_mean          =   5.5052588265081E-03
(PID.TID 0000.0001) %MON ad_exf_adatemp_sd            =   1.5248372883834E-02
(PID.TID 0000.0001) %MON ad_exf_adatemp_del2          =   4.1882192643226E-04
(PID.TID 0000.0001) %MON ad_exf_adaqh_max             =   5.0463439197253E+02
(PID.TID 0000.0001) %MON ad_exf_adaqh_min             =  -9.1905985521265E+02
(PID.TID 0000.0001) %MON ad_exf_adaqh_mean            =   1.2376709888497E+01
(PID.TID 0000.0001) %MON ad_exf_adaqh_sd              =   3.9299036795703E+01
(PID.TID 0000.0001) %MON ad_exf_adaqh_del2            =   1.1835025471324E+00
(PID.TID 0000.0001) %MON ad_exf_adlwflux_max          =   0.0000000000000E+00
(PID.TID 0000.0001) %MON ad_exf_adlwflux_min          =   0.0000000000000E+00
(PID.TID 0000.0001) %MON ad_exf_adlwflux_mean         =   0.0000000000000E+00
(PID.TID 0000.0001) %MON ad_exf_adlwflux_sd           =   0.0000000000000E+00
(PID.TID 0000.0001) %MON ad_exf_adlwflux_del2         =   0.0000000000000E+00
(PID.TID 0000.0001) %MON ad_exf_adprecip_max          =   7.6202944850364E+06
(PID.TID 0000.0001) %MON ad_exf_adprecip_min          =  -1.0796529572890E+07
(PID.TID 0000.0001) %MON ad_exf_adprecip_mean         =   1.6396065594644E+04
(PID.TID 0000.0001) %MON ad_exf_adprecip_sd           =   3.0912335947100E+05
(PID.TID 0000.0001) %MON ad_exf_adprecip_del2         =   1.4053947308049E+04
(PID.TID 0000.0001) %MON ad_exf_adswflux_max          =   0.0000000000000E+00
(PID.TID 0000.0001) %MON ad_exf_adswflux_min          =   0.0000000000000E+00
(PID.TID 0000.0001) %MON ad_exf_adswflux_mean         =   0.0000000000000E+00
(PID.TID 0000.0001) %MON ad_exf_adswflux_sd           =   0.0000000000000E+00
(PID.TID 0000.0001) %MON ad_exf_adswflux_del2         =   0.0000000000000E+00
(PID.TID 0000.0001) %MON ad_exf_adswdown_max          =   6.6585323950009E-03
(PID.TID 0000.0001) %MON ad_exf_adswdown_min          =  -1.5193540643922E-02
(PID.TID 0000.0001) %MON ad_exf_adswdown_mean         =   4.6996068879332E-04
(PID.TID 0000.0001) %MON ad_exf_adswdown_sd           =   1.0449797476794E-03
(PID.TID 0000.0001) %MON ad_exf_adswdown_del2         =   2.3301861930205E-05
(PID.TID 0000.0001) %MON ad_exf_adlwdown_max          =   7.5429242081440E-03
(PID.TID 0000.0001) %MON ad_exf_adlwdown_min          =  -1.7268139825246E-02
(PID.TID 0000.0001) %MON ad_exf_adlwdown_mean         =   5.1074179924139E-04
(PID.TID 0000.0001) %MON ad_exf_adlwdown_sd           =   1.1529016080037E-03
(PID.TID 0000.0001) %MON ad_exf_adlwdown_del2         =   2.6097800256390E-05
(PID.TID 0000.0001) // =======================================================
(PID.TID 0000.0001) // End AD_MONITOR EXF statistics for iwhen =  2
(PID.TID 0000.0001) // =======================================================
 cg2d: Sum(rhs),rhsMax =   2.21766844426785E+03  2.12393113038030E+01
 cg2d: Sum(rhs),rhsMax =   2.21766844426785E+03  2.12393113038030E+01
(PID.TID 0000.0001) // =======================================================
(PID.TID 0000.0001) // Begin MONITOR dynamic field statistics
(PID.TID 0000.0001) // =======================================================
(PID.TID 0000.0001) %MON ad_time_tsnumber             =                 72003
(PID.TID 0000.0001) %MON ad_time_secondsf             =   6.2210592000000E+09
(PID.TID 0000.0001) %MON ad_dynstat_adeta_max         =   0.0000000000000E+00
(PID.TID 0000.0001) %MON ad_dynstat_adeta_min         =   0.0000000000000E+00
(PID.TID 0000.0001) %MON ad_dynstat_adeta_mean        =   0.0000000000000E+00
(PID.TID 0000.0001) %MON ad_dynstat_adeta_sd          =   0.0000000000000E+00
(PID.TID 0000.0001) %MON ad_dynstat_adeta_del2        =   0.0000000000000E+00
(PID.TID 0000.0001) %MON ad_dynstat_aduvel_max        =   1.4150917135122E+02
(PID.TID 0000.0001) %MON ad_dynstat_aduvel_min        =  -2.0618953666448E+02
(PID.TID 0000.0001) %MON ad_dynstat_aduvel_mean       =   2.0562665879508E-01
(PID.TID 0000.0001) %MON ad_dynstat_aduvel_sd         =   7.3447427714445E+00
(PID.TID 0000.0001) %MON ad_dynstat_aduvel_del2       =   6.5899319042066E-02
(PID.TID 0000.0001) %MON ad_dynstat_advvel_max        =   1.2464815815700E+02
(PID.TID 0000.0001) %MON ad_dynstat_advvel_min        =  -1.1522256785121E+02
(PID.TID 0000.0001) %MON ad_dynstat_advvel_mean       =   1.4061509690517E-01
(PID.TID 0000.0001) %MON ad_dynstat_advvel_sd         =   6.8572276031153E+00
(PID.TID 0000.0001) %MON ad_dynstat_advvel_del2       =   5.3817453020533E-02
(PID.TID 0000.0001) %MON ad_dynstat_adwvel_max        =   2.0970824005094E+02
(PID.TID 0000.0001) %MON ad_dynstat_adwvel_min        =  -1.0133171369581E+02
(PID.TID 0000.0001) %MON ad_dynstat_adwvel_mean       =   4.4594048192324E-02
(PID.TID 0000.0001) %MON ad_dynstat_adwvel_sd         =   2.3616644459348E+00
(PID.TID 0000.0001) %MON ad_dynstat_adwvel_del2       =   3.1116485476792E-02
(PID.TID 0000.0001) %MON ad_dynstat_adtheta_max       =   6.6327722354127E+01
(PID.TID 0000.0001) %MON ad_dynstat_adtheta_min       =  -6.0230433601599E+01
(PID.TID 0000.0001) %MON ad_dynstat_adtheta_mean      =  -1.0984316505612E+00
(PID.TID 0000.0001) %MON ad_dynstat_adtheta_sd        =   2.3161566585331E+00
(PID.TID 0000.0001) %MON ad_dynstat_adtheta_del2      =   1.1403277416172E-02
(PID.TID 0000.0001) %MON ad_dynstat_adsalt_max        =   3.2625324311572E+02
(PID.TID 0000.0001) %MON ad_dynstat_adsalt_min        =  -3.2727765008705E+02
(PID.TID 0000.0001) %MON ad_dynstat_adsalt_mean       =  -9.9665022339494E-03
(PID.TID 0000.0001) %MON ad_dynstat_adsalt_sd         =   2.2035876443645E+00
(PID.TID 0000.0001) %MON ad_dynstat_adsalt_del2       =   4.1311180827929E-02
(PID.TID 0000.0001) %MON ad_forcing_adqnet_max        =   0.0000000000000E+00
(PID.TID 0000.0001) %MON ad_forcing_adqnet_min        =   0.0000000000000E+00
(PID.TID 0000.0001) %MON ad_forcing_adqnet_mean       =   0.0000000000000E+00
(PID.TID 0000.0001) %MON ad_forcing_adqnet_sd         =   0.0000000000000E+00
(PID.TID 0000.0001) %MON ad_forcing_adqnet_del2       =   0.0000000000000E+00
(PID.TID 0000.0001) %MON ad_forcing_adqsw_max         =   0.0000000000000E+00
(PID.TID 0000.0001) %MON ad_forcing_adqsw_min         =   0.0000000000000E+00
(PID.TID 0000.0001) %MON ad_forcing_adqsw_mean        =   0.0000000000000E+00
(PID.TID 0000.0001) %MON ad_forcing_adqsw_sd          =   0.0000000000000E+00
(PID.TID 0000.0001) %MON ad_forcing_adqsw_del2        =   0.0000000000000E+00
(PID.TID 0000.0001) %MON ad_forcing_adempmr_max       =   0.0000000000000E+00
(PID.TID 0000.0001) %MON ad_forcing_adempmr_min       =   0.0000000000000E+00
(PID.TID 0000.0001) %MON ad_forcing_adempmr_mean      =   0.0000000000000E+00
(PID.TID 0000.0001) %MON ad_forcing_adempmr_sd        =   0.0000000000000E+00
(PID.TID 0000.0001) %MON ad_forcing_adempmr_del2      =   0.0000000000000E+00
(PID.TID 0000.0001) %MON ad_forcing_adfu_max          =   0.0000000000000E+00
(PID.TID 0000.0001) %MON ad_forcing_adfu_min          =   0.0000000000000E+00
(PID.TID 0000.0001) %MON ad_forcing_adfu_mean         =   0.0000000000000E+00
(PID.TID 0000.0001) %MON ad_forcing_adfu_sd           =   0.0000000000000E+00
(PID.TID 0000.0001) %MON ad_forcing_adfu_del2         =   0.0000000000000E+00
(PID.TID 0000.0001) %MON ad_forcing_adfv_max          =   0.0000000000000E+00
(PID.TID 0000.0001) %MON ad_forcing_adfv_min          =   0.0000000000000E+00
(PID.TID 0000.0001) %MON ad_forcing_adfv_mean         =   0.0000000000000E+00
(PID.TID 0000.0001) %MON ad_forcing_adfv_sd           =   0.0000000000000E+00
(PID.TID 0000.0001) %MON ad_forcing_adfv_del2         =   0.0000000000000E+00
(PID.TID 0000.0001) // =======================================================
(PID.TID 0000.0001) // End MONITOR dynamic field statistics
(PID.TID 0000.0001) // =======================================================
 cg2d: Sum(rhs),rhsMax =  -2.65629532258949E-18  1.05666622849515E-03
(PID.TID 0000.0001) // =======================================================
(PID.TID 0000.0001) // Begin AD_MONITOR EXF statistics for iwhen =  3
(PID.TID 0000.0001) // =======================================================
(PID.TID 0000.0001) %MON ad_exf_tsnumber              =                 72002
(PID.TID 0000.0001) %MON ad_exf_time_sec              =   6.2209728000000E+09
(PID.TID 0000.0001) %MON ad_exf_adfu_max              =   2.6246876746232E+00
(PID.TID 0000.0001) %MON ad_exf_adfu_min              =  -5.4165919696228E+00
(PID.TID 0000.0001) %MON ad_exf_adfu_mean             =   1.3495472445737E-02
(PID.TID 0000.0001) %MON ad_exf_adfu_sd               =   4.7208865608461E-01
(PID.TID 0000.0001) %MON ad_exf_adfu_del2             =   1.3286153276185E-02
(PID.TID 0000.0001) %MON ad_exf_adfv_max              =   3.5751917668413E+00
(PID.TID 0000.0001) %MON ad_exf_adfv_min              =  -2.1574258743451E+00
(PID.TID 0000.0001) %MON ad_exf_adfv_mean             =  -1.2293953291066E-02
(PID.TID 0000.0001) %MON ad_exf_adfv_sd               =   4.0218920145075E-01
(PID.TID 0000.0001) %MON ad_exf_adfv_del2             =   1.0802889582010E-02
(PID.TID 0000.0001) %MON ad_exf_adqnet_max            =   1.7144014808912E-02
(PID.TID 0000.0001) %MON ad_exf_adqnet_min            =  -7.9265131950818E-03
(PID.TID 0000.0001) %MON ad_exf_adqnet_mean           =  -5.0301287554257E-04
(PID.TID 0000.0001) %MON ad_exf_adqnet_sd             =   1.1463147354116E-03
(PID.TID 0000.0001) %MON ad_exf_adqnet_del2           =   2.7224559192145E-05
(PID.TID 0000.0001) %MON ad_exf_adempmr_max           =   1.2660957831736E+04
(PID.TID 0000.0001) %MON ad_exf_adempmr_min           =  -7.6977146633356E+03
(PID.TID 0000.0001) %MON ad_exf_adempmr_mean          =  -1.6069438450618E+01
(PID.TID 0000.0001) %MON ad_exf_adempmr_sd            =   3.3525810055323E+02
(PID.TID 0000.0001) %MON ad_exf_adempmr_del2          =   1.5640366395523E+01
(PID.TID 0000.0001) // =======================================================
(PID.TID 0000.0001) // End AD_MONITOR EXF statistics for iwhen =  3
(PID.TID 0000.0001) // =======================================================
(PID.TID 0000.0001) // =======================================================
(PID.TID 0000.0001) // Begin AD_MONITOR EXF statistics for iwhen =  1
(PID.TID 0000.0001) // =======================================================
(PID.TID 0000.0001) %MON ad_exf_tsnumber              =                 72002
(PID.TID 0000.0001) %MON ad_exf_time_sec              =   6.2209728000000E+09
(PID.TID 0000.0001) %MON ad_exf_adustress_max         =   2.6246876746232E+00
(PID.TID 0000.0001) %MON ad_exf_adustress_min         =  -5.4165919696228E+00
(PID.TID 0000.0001) %MON ad_exf_adustress_mean        =   1.3183567570687E-02
(PID.TID 0000.0001) %MON ad_exf_adustress_sd          =   4.8331818085588E-01
(PID.TID 0000.0001) %MON ad_exf_adustress_del2        =   1.3429289061047E-02
(PID.TID 0000.0001) %MON ad_exf_advstress_max         =   3.5751917668413E+00
(PID.TID 0000.0001) %MON ad_exf_advstress_min         =  -2.1574258743451E+00
(PID.TID 0000.0001) %MON ad_exf_advstress_mean        =  -1.6815191569147E-02
(PID.TID 0000.0001) %MON ad_exf_advstress_sd          =   4.1342440583511E-01
(PID.TID 0000.0001) %MON ad_exf_advstress_del2        =   1.0627484776377E-02
(PID.TID 0000.0001) %MON ad_exf_adhflux_max           =   1.7144014808912E-02
(PID.TID 0000.0001) %MON ad_exf_adhflux_min           =  -7.9265131950818E-03
(PID.TID 0000.0001) %MON ad_exf_adhflux_mean          =  -5.0301287554257E-04
(PID.TID 0000.0001) %MON ad_exf_adhflux_sd            =   1.1463147354116E-03
(PID.TID 0000.0001) %MON ad_exf_adhflux_del2          =   2.7224559192145E-05
(PID.TID 0000.0001) %MON ad_exf_adsflux_max           =   1.2660957831736E+07
(PID.TID 0000.0001) %MON ad_exf_adsflux_min           =  -7.6977146633356E+06
(PID.TID 0000.0001) %MON ad_exf_adsflux_mean          =  -1.6069438450618E+04
(PID.TID 0000.0001) %MON ad_exf_adsflux_sd            =   3.3525810055323E+05
(PID.TID 0000.0001) %MON ad_exf_adsflux_del2          =   1.5640366395523E+04
(PID.TID 0000.0001) %MON ad_exf_adwspeed_max          =   0.0000000000000E+00
(PID.TID 0000.0001) %MON ad_exf_adwspeed_min          =   0.0000000000000E+00
(PID.TID 0000.0001) %MON ad_exf_adwspeed_mean         =   0.0000000000000E+00
(PID.TID 0000.0001) %MON ad_exf_adwspeed_sd           =   0.0000000000000E+00
(PID.TID 0000.0001) %MON ad_exf_adwspeed_del2         =   0.0000000000000E+00
(PID.TID 0000.0001) // =======================================================
(PID.TID 0000.0001) // End AD_MONITOR EXF statistics for iwhen =  1
(PID.TID 0000.0001) // =======================================================
(PID.TID 0000.0001) // =======================================================
(PID.TID 0000.0001) // Begin AD_MONITOR EXF statistics for iwhen =  2
(PID.TID 0000.0001) // =======================================================
(PID.TID 0000.0001) %MON ad_exf_tsnumber              =                 72002
(PID.TID 0000.0001) %MON ad_exf_time_sec              =   6.2209728000000E+09
(PID.TID 0000.0001) %MON ad_exf_adatemp_max           =   1.6898630730111E-01
(PID.TID 0000.0001) %MON ad_exf_adatemp_min           =  -2.9906487185612E-01
(PID.TID 0000.0001) %MON ad_exf_adatemp_mean          =   5.4568749375551E-03
(PID.TID 0000.0001) %MON ad_exf_adatemp_sd            =   1.5321564603835E-02
(PID.TID 0000.0001) %MON ad_exf_adatemp_del2          =   4.4250514576989E-04
(PID.TID 0000.0001) %MON ad_exf_adaqh_max             =   5.2940399442059E+02
(PID.TID 0000.0001) %MON ad_exf_adaqh_min             =  -9.1551634917592E+02
(PID.TID 0000.0001) %MON ad_exf_adaqh_mean            =   1.2281771452154E+01
(PID.TID 0000.0001) %MON ad_exf_adaqh_sd              =   3.9910341491219E+01
(PID.TID 0000.0001) %MON ad_exf_adaqh_del2            =   1.2706730984906E+00
(PID.TID 0000.0001) %MON ad_exf_adlwflux_max          =   0.0000000000000E+00
(PID.TID 0000.0001) %MON ad_exf_adlwflux_min          =   0.0000000000000E+00
(PID.TID 0000.0001) %MON ad_exf_adlwflux_mean         =   0.0000000000000E+00
(PID.TID 0000.0001) %MON ad_exf_adlwflux_sd           =   0.0000000000000E+00
(PID.TID 0000.0001) %MON ad_exf_adlwflux_del2         =   0.0000000000000E+00
(PID.TID 0000.0001) %MON ad_exf_adprecip_max          =   7.6977146633356E+06
(PID.TID 0000.0001) %MON ad_exf_adprecip_min          =  -1.2660957831736E+07
(PID.TID 0000.0001) %MON ad_exf_adprecip_mean         =   1.6649835532773E+04
(PID.TID 0000.0001) %MON ad_exf_adprecip_sd           =   3.4042379921270E+05
(PID.TID 0000.0001) %MON ad_exf_adprecip_del2         =   1.5777722642955E+04
(PID.TID 0000.0001) %MON ad_exf_adswflux_max          =   0.0000000000000E+00
(PID.TID 0000.0001) %MON ad_exf_adswflux_min          =   0.0000000000000E+00
(PID.TID 0000.0001) %MON ad_exf_adswflux_mean         =   0.0000000000000E+00
(PID.TID 0000.0001) %MON ad_exf_adswflux_sd           =   0.0000000000000E+00
(PID.TID 0000.0001) %MON ad_exf_adswflux_del2         =   0.0000000000000E+00
(PID.TID 0000.0001) %MON ad_exf_adswdown_max          =   6.9898250928827E-03
(PID.TID 0000.0001) %MON ad_exf_adswdown_min          =  -1.5114979726409E-02
(PID.TID 0000.0001) %MON ad_exf_adswdown_mean         =   4.6482933488275E-04
(PID.TID 0000.0001) %MON ad_exf_adswdown_sd           =   1.0392083476021E-03
(PID.TID 0000.0001) %MON ad_exf_adswdown_del2         =   2.4275569503654E-05
(PID.TID 0000.0001) %MON ad_exf_adlwdown_max          =   7.9265131950818E-03
(PID.TID 0000.0001) %MON ad_exf_adlwdown_min          =  -1.7144014808912E-02
(PID.TID 0000.0001) %MON ad_exf_adlwdown_mean         =   5.0534094587771E-04
(PID.TID 0000.0001) %MON ad_exf_adlwdown_sd           =   1.1473757366851E-03
(PID.TID 0000.0001) %MON ad_exf_adlwdown_del2         =   2.7233604216099E-05
(PID.TID 0000.0001) // =======================================================
(PID.TID 0000.0001) // End AD_MONITOR EXF statistics for iwhen =  2
(PID.TID 0000.0001) // =======================================================
 cg2d: Sum(rhs),rhsMax =   2.21800836064890E+03  2.12029948324505E+01
 cg2d: Sum(rhs),rhsMax =   2.21800836064890E+03  2.12029948324505E+01
(PID.TID 0000.0001) // =======================================================
(PID.TID 0000.0001) // Begin MONITOR dynamic field statistics
(PID.TID 0000.0001) // =======================================================
(PID.TID 0000.0001) %MON ad_time_tsnumber             =                 72002
(PID.TID 0000.0001) %MON ad_time_secondsf             =   6.2209728000000E+09
(PID.TID 0000.0001) %MON ad_dynstat_adeta_max         =   0.0000000000000E+00
(PID.TID 0000.0001) %MON ad_dynstat_adeta_min         =   0.0000000000000E+00
(PID.TID 0000.0001) %MON ad_dynstat_adeta_mean        =   0.0000000000000E+00
(PID.TID 0000.0001) %MON ad_dynstat_adeta_sd          =   0.0000000000000E+00
(PID.TID 0000.0001) %MON ad_dynstat_adeta_del2        =   0.0000000000000E+00
(PID.TID 0000.0001) %MON ad_dynstat_aduvel_max        =   1.6170346375384E+02
(PID.TID 0000.0001) %MON ad_dynstat_aduvel_min        =  -2.1931803142620E+02
(PID.TID 0000.0001) %MON ad_dynstat_aduvel_mean       =   2.3392166770716E-01
(PID.TID 0000.0001) %MON ad_dynstat_aduvel_sd         =   8.1100995806035E+00
(PID.TID 0000.0001) %MON ad_dynstat_aduvel_del2       =   7.2359869765943E-02
(PID.TID 0000.0001) %MON ad_dynstat_advvel_max        =   1.3932316140313E+02
(PID.TID 0000.0001) %MON ad_dynstat_advvel_min        =  -1.2657717597742E+02
(PID.TID 0000.0001) %MON ad_dynstat_advvel_mean       =   1.7063532814296E-01
(PID.TID 0000.0001) %MON ad_dynstat_advvel_sd         =   7.6267481545846E+00
(PID.TID 0000.0001) %MON ad_dynstat_advvel_del2       =   5.9328550704834E-02
(PID.TID 0000.0001) %MON ad_dynstat_adwvel_max        =   2.2992600405917E+02
(PID.TID 0000.0001) %MON ad_dynstat_adwvel_min        =  -1.1305112709510E+02
(PID.TID 0000.0001) %MON ad_dynstat_adwvel_mean       =   5.0113352586409E-02
(PID.TID 0000.0001) %MON ad_dynstat_adwvel_sd         =   2.6154194190155E+00
(PID.TID 0000.0001) %MON ad_dynstat_adwvel_del2       =   3.4145913388381E-02
(PID.TID 0000.0001) %MON ad_dynstat_adtheta_max       =   9.0975033474037E+01
(PID.TID 0000.0001) %MON ad_dynstat_adtheta_min       =  -8.3352266577488E+01
(PID.TID 0000.0001) %MON ad_dynstat_adtheta_mean      =  -1.0986140526893E+00
(PID.TID 0000.0001) %MON ad_dynstat_adtheta_sd        =   2.3266733509822E+00
(PID.TID 0000.0001) %MON ad_dynstat_adtheta_del2      =   1.2468332012369E-02
(PID.TID 0000.0001) %MON ad_dynstat_adsalt_max        =   4.5165374553109E+02
(PID.TID 0000.0001) %MON ad_dynstat_adsalt_min        =  -4.5216434494075E+02
(PID.TID 0000.0001) %MON ad_dynstat_adsalt_mean       =  -1.1740551136740E-02
(PID.TID 0000.0001) %MON ad_dynstat_adsalt_sd         =   2.6756216008447E+00
(PID.TID 0000.0001) %MON ad_dynstat_adsalt_del2       =   5.0320484516834E-02
(PID.TID 0000.0001) %MON ad_forcing_adqnet_max        =   0.0000000000000E+00
(PID.TID 0000.0001) %MON ad_forcing_adqnet_min        =   0.0000000000000E+00
(PID.TID 0000.0001) %MON ad_forcing_adqnet_mean       =   0.0000000000000E+00
(PID.TID 0000.0001) %MON ad_forcing_adqnet_sd         =   0.0000000000000E+00
(PID.TID 0000.0001) %MON ad_forcing_adqnet_del2       =   0.0000000000000E+00
(PID.TID 0000.0001) %MON ad_forcing_adqsw_max         =   0.0000000000000E+00
(PID.TID 0000.0001) %MON ad_forcing_adqsw_min         =   0.0000000000000E+00
(PID.TID 0000.0001) %MON ad_forcing_adqsw_mean        =   0.0000000000000E+00
(PID.TID 0000.0001) %MON ad_forcing_adqsw_sd          =   0.0000000000000E+00
(PID.TID 0000.0001) %MON ad_forcing_adqsw_del2        =   0.0000000000000E+00
(PID.TID 0000.0001) %MON ad_forcing_adempmr_max       =   0.0000000000000E+00
(PID.TID 0000.0001) %MON ad_forcing_adempmr_min       =   0.0000000000000E+00
(PID.TID 0000.0001) %MON ad_forcing_adempmr_mean      =   0.0000000000000E+00
(PID.TID 0000.0001) %MON ad_forcing_adempmr_sd        =   0.0000000000000E+00
(PID.TID 0000.0001) %MON ad_forcing_adempmr_del2      =   0.0000000000000E+00
(PID.TID 0000.0001) %MON ad_forcing_adfu_max          =   0.0000000000000E+00
(PID.TID 0000.0001) %MON ad_forcing_adfu_min          =   0.0000000000000E+00
(PID.TID 0000.0001) %MON ad_forcing_adfu_mean         =   0.0000000000000E+00
(PID.TID 0000.0001) %MON ad_forcing_adfu_sd           =   0.0000000000000E+00
(PID.TID 0000.0001) %MON ad_forcing_adfu_del2         =   0.0000000000000E+00
(PID.TID 0000.0001) %MON ad_forcing_adfv_max          =   0.0000000000000E+00
(PID.TID 0000.0001) %MON ad_forcing_adfv_min          =   0.0000000000000E+00
(PID.TID 0000.0001) %MON ad_forcing_adfv_mean         =   0.0000000000000E+00
(PID.TID 0000.0001) %MON ad_forcing_adfv_sd           =   0.0000000000000E+00
(PID.TID 0000.0001) %MON ad_forcing_adfv_del2         =   0.0000000000000E+00
(PID.TID 0000.0001) // =======================================================
(PID.TID 0000.0001) // End MONITOR dynamic field statistics
(PID.TID 0000.0001) // =======================================================
 cg2d: Sum(rhs),rhsMax =   2.49366499671666E-18  1.07290352084106E-03
(PID.TID 0000.0001) // =======================================================
(PID.TID 0000.0001) // Begin AD_MONITOR EXF statistics for iwhen =  3
(PID.TID 0000.0001) // =======================================================
(PID.TID 0000.0001) %MON ad_exf_tsnumber              =                 72001
(PID.TID 0000.0001) %MON ad_exf_time_sec              =   6.2208864000000E+09
(PID.TID 0000.0001) %MON ad_exf_adfu_max              =   2.8688774094313E+00
(PID.TID 0000.0001) %MON ad_exf_adfu_min              =  -5.6274005701257E+00
(PID.TID 0000.0001) %MON ad_exf_adfu_mean             =   1.3534221249679E-02
(PID.TID 0000.0001) %MON ad_exf_adfu_sd               =   5.1316104575349E-01
(PID.TID 0000.0001) %MON ad_exf_adfu_del2             =   1.4342907537208E-02
(PID.TID 0000.0001) %MON ad_exf_adfv_max              =   3.9375990754336E+00
(PID.TID 0000.0001) %MON ad_exf_adfv_min              =  -2.3675756973356E+00
(PID.TID 0000.0001) %MON ad_exf_adfv_mean             =  -1.5995307879864E-02
(PID.TID 0000.0001) %MON ad_exf_adfv_sd               =   4.3936523732284E-01
(PID.TID 0000.0001) %MON ad_exf_adfv_del2             =   1.1633147494932E-02
(PID.TID 0000.0001) %MON ad_exf_adqnet_max            =   2.3751794489791E-02
(PID.TID 0000.0001) %MON ad_exf_adqnet_min            =  -8.2126170974265E-03
(PID.TID 0000.0001) %MON ad_exf_adqnet_mean           =  -4.9658633396539E-04
(PID.TID 0000.0001) %MON ad_exf_adqnet_sd             =   1.1521479594827E-03
(PID.TID 0000.0001) %MON ad_exf_adqnet_del2           =   2.9455448682894E-05
(PID.TID 0000.0001) %MON ad_exf_adempmr_max           =   1.7562533938710E+04
(PID.TID 0000.0001) %MON ad_exf_adempmr_min           =  -7.7354691226448E+03
(PID.TID 0000.0001) %MON ad_exf_adempmr_mean          =  -1.5931728177857E+01
(PID.TID 0000.0001) %MON ad_exf_adempmr_sd            =   3.8180037315715E+02
(PID.TID 0000.0001) %MON ad_exf_adempmr_del2          =   1.8203960660371E+01
(PID.TID 0000.0001) // =======================================================
(PID.TID 0000.0001) // End AD_MONITOR EXF statistics for iwhen =  3
(PID.TID 0000.0001) // =======================================================
(PID.TID 0000.0001) // =======================================================
(PID.TID 0000.0001) // Begin AD_MONITOR EXF statistics for iwhen =  1
(PID.TID 0000.0001) // =======================================================
(PID.TID 0000.0001) %MON ad_exf_tsnumber              =                 72001
(PID.TID 0000.0001) %MON ad_exf_time_sec              =   6.2208864000000E+09
(PID.TID 0000.0001) %MON ad_exf_adustress_max         =   2.8688774094313E+00
(PID.TID 0000.0001) %MON ad_exf_adustress_min         =  -5.6274005701257E+00
(PID.TID 0000.0001) %MON ad_exf_adustress_mean        =   1.3281724714272E-02
(PID.TID 0000.0001) %MON ad_exf_adustress_sd          =   5.2538053022216E-01
(PID.TID 0000.0001) %MON ad_exf_adustress_del2        =   1.4469734290326E-02
(PID.TID 0000.0001) %MON ad_exf_advstress_max         =   3.9375990754336E+00
(PID.TID 0000.0001) %MON ad_exf_advstress_min         =  -2.3675756973356E+00
(PID.TID 0000.0001) %MON ad_exf_advstress_mean        =  -2.0678621550347E-02
(PID.TID 0000.0001) %MON ad_exf_advstress_sd          =   4.5153498164697E-01
(PID.TID 0000.0001) %MON ad_exf_advstress_del2        =   1.1453172294751E-02
(PID.TID 0000.0001) %MON ad_exf_adhflux_max           =   2.3751794489791E-02
(PID.TID 0000.0001) %MON ad_exf_adhflux_min           =  -8.2126170974265E-03
(PID.TID 0000.0001) %MON ad_exf_adhflux_mean          =  -4.9658633396539E-04
(PID.TID 0000.0001) %MON ad_exf_adhflux_sd            =   1.1521479594827E-03
(PID.TID 0000.0001) %MON ad_exf_adhflux_del2          =   2.9455448682894E-05
(PID.TID 0000.0001) %MON ad_exf_adsflux_max           =   1.7562533938710E+07
(PID.TID 0000.0001) %MON ad_exf_adsflux_min           =  -7.7354691226448E+06
(PID.TID 0000.0001) %MON ad_exf_adsflux_mean          =  -1.5931728177857E+04
(PID.TID 0000.0001) %MON ad_exf_adsflux_sd            =   3.8180037315715E+05
(PID.TID 0000.0001) %MON ad_exf_adsflux_del2          =   1.8203960660371E+04
(PID.TID 0000.0001) %MON ad_exf_adwspeed_max          =   0.0000000000000E+00
(PID.TID 0000.0001) %MON ad_exf_adwspeed_min          =   0.0000000000000E+00
(PID.TID 0000.0001) %MON ad_exf_adwspeed_mean         =   0.0000000000000E+00
(PID.TID 0000.0001) %MON ad_exf_adwspeed_sd           =   0.0000000000000E+00
(PID.TID 0000.0001) %MON ad_exf_adwspeed_del2         =   0.0000000000000E+00
(PID.TID 0000.0001) // =======================================================
(PID.TID 0000.0001) // End AD_MONITOR EXF statistics for iwhen =  1
(PID.TID 0000.0001) // =======================================================
(PID.TID 0000.0001) // =======================================================
(PID.TID 0000.0001) // Begin AD_MONITOR EXF statistics for iwhen =  2
(PID.TID 0000.0001) // =======================================================
(PID.TID 0000.0001) %MON ad_exf_tsnumber              =                 72001
(PID.TID 0000.0001) %MON ad_exf_time_sec              =   6.2208864000000E+09
(PID.TID 0000.0001) %MON ad_exf_adatemp_max           =   1.7428417513586E-01
(PID.TID 0000.0001) %MON ad_exf_adatemp_min           =  -4.1116700904392E-01
(PID.TID 0000.0001) %MON ad_exf_adatemp_mean          =   5.3866007039285E-03
(PID.TID 0000.0001) %MON ad_exf_adatemp_sd            =   1.5633609103229E-02
(PID.TID 0000.0001) %MON ad_exf_adatemp_del2          =   4.8488232796943E-04
(PID.TID 0000.0001) %MON ad_exf_adaqh_max             =   5.4775561490808E+02
(PID.TID 0000.0001) %MON ad_exf_adaqh_min             =  -1.2571279776106E+03
(PID.TID 0000.0001) %MON ad_exf_adaqh_mean            =   1.2154468689518E+01
(PID.TID 0000.0001) %MON ad_exf_adaqh_sd              =   4.1351792256147E+01
(PID.TID 0000.0001) %MON ad_exf_adaqh_del2            =   1.4147931437653E+00
(PID.TID 0000.0001) %MON ad_exf_adlwflux_max          =   0.0000000000000E+00
(PID.TID 0000.0001) %MON ad_exf_adlwflux_min          =   0.0000000000000E+00
(PID.TID 0000.0001) %MON ad_exf_adlwflux_mean         =   0.0000000000000E+00
(PID.TID 0000.0001) %MON ad_exf_adlwflux_sd           =   0.0000000000000E+00
(PID.TID 0000.0001) %MON ad_exf_adlwflux_del2         =   0.0000000000000E+00
(PID.TID 0000.0001) %MON ad_exf_adprecip_max          =   7.7354691226448E+06
(PID.TID 0000.0001) %MON ad_exf_adprecip_min          =  -1.7562533938710E+07
(PID.TID 0000.0001) %MON ad_exf_adprecip_mean         =   1.6522936539249E+04
(PID.TID 0000.0001) %MON ad_exf_adprecip_sd           =   3.8675612602499E+05
(PID.TID 0000.0001) %MON ad_exf_adprecip_del2         =   1.8330084835737E+04
(PID.TID 0000.0001) %MON ad_exf_adswflux_max          =   0.0000000000000E+00
(PID.TID 0000.0001) %MON ad_exf_adswflux_min          =   0.0000000000000E+00
(PID.TID 0000.0001) %MON ad_exf_adswflux_mean         =   0.0000000000000E+00
(PID.TID 0000.0001) %MON ad_exf_adswflux_sd           =   0.0000000000000E+00
(PID.TID 0000.0001) %MON ad_exf_adswflux_del2         =   0.0000000000000E+00
(PID.TID 0000.0001) %MON ad_exf_adswdown_max          =   7.2355975322122E-03
(PID.TID 0000.0001) %MON ad_exf_adswdown_min          =  -2.0948102124723E-02
(PID.TID 0000.0001) %MON ad_exf_adswdown_mean         =   4.5923355250937E-04
(PID.TID 0000.0001) %MON ad_exf_adswdown_sd           =   1.0434291013994E-03
(PID.TID 0000.0001) %MON ad_exf_adswdown_del2         =   2.6211628394649E-05
(PID.TID 0000.0001) %MON ad_exf_adlwdown_max          =   8.2126170974265E-03
(PID.TID 0000.0001) %MON ad_exf_adlwdown_min          =  -2.3751794489791E-02
(PID.TID 0000.0001) %MON ad_exf_adlwdown_mean         =   4.9942217345951E-04
(PID.TID 0000.0001) %MON ad_exf_adlwdown_sd           =   1.1534301112780E-03
(PID.TID 0000.0001) %MON ad_exf_adlwdown_del2         =   2.9464428297134E-05
(PID.TID 0000.0001) // =======================================================
(PID.TID 0000.0001) // End AD_MONITOR EXF statistics for iwhen =  2
(PID.TID 0000.0001) // =======================================================
(PID.TID 0000.0001) SOLVE_FOR_PRESSURE: putPmEinXvector =    F
 cg2d: Sum(rhs),rhsMax =   2.21834535105376E+03  2.10925029947484E+01
 BB: not converge: i,j,it,hi=  26   9   5   1       72000    0.398435537
 BB: not converge: Tsf, dTsf=  -13.480309430606207      -0.52556488604372531     
 BB: not converge: flxNet,dFlxT=  -73.550946810577869       -27.648387772720866     
 BB: not converge: i,j,it,hi=  15   6  12   1       72000    0.976808171
 BB: not converge: Tsf, dTsf=  -4.0625086296354231        1.2219951917621812     
 BB: not converge: flxNet,dFlxT=   26.749207585963717       -22.820714164491189     
(PID.TID 0000.0001) SOLVE_FOR_PRESSURE: putPmEinXvector =    F
 cg2d: Sum(rhs),rhsMax =   2.21834535105376E+03  2.10925029947484E+01
(PID.TID 0000.0001) // =======================================================
(PID.TID 0000.0001) // Begin MONITOR dynamic field statistics
(PID.TID 0000.0001) // =======================================================
(PID.TID 0000.0001) %MON ad_time_tsnumber             =                 72001
(PID.TID 0000.0001) %MON ad_time_secondsf             =   6.2208864000000E+09
(PID.TID 0000.0001) %MON ad_dynstat_adeta_max         =   0.0000000000000E+00
(PID.TID 0000.0001) %MON ad_dynstat_adeta_min         =   0.0000000000000E+00
(PID.TID 0000.0001) %MON ad_dynstat_adeta_mean        =   0.0000000000000E+00
(PID.TID 0000.0001) %MON ad_dynstat_adeta_sd          =   0.0000000000000E+00
(PID.TID 0000.0001) %MON ad_dynstat_adeta_del2        =   0.0000000000000E+00
(PID.TID 0000.0001) %MON ad_dynstat_aduvel_max        =   1.8104660332902E+02
(PID.TID 0000.0001) %MON ad_dynstat_aduvel_min        =  -2.2894059098422E+02
(PID.TID 0000.0001) %MON ad_dynstat_aduvel_mean       =   2.6885639751001E-01
(PID.TID 0000.0001) %MON ad_dynstat_aduvel_sd         =   8.8040214465222E+00
(PID.TID 0000.0001) %MON ad_dynstat_aduvel_del2       =   7.8291578720167E-02
(PID.TID 0000.0001) %MON ad_dynstat_advvel_max        =   1.5483575704476E+02
(PID.TID 0000.0001) %MON ad_dynstat_advvel_min        =  -1.3623232781225E+02
(PID.TID 0000.0001) %MON ad_dynstat_advvel_mean       =   1.9244420195456E-01
(PID.TID 0000.0001) %MON ad_dynstat_advvel_sd         =   8.3458936067880E+00
(PID.TID 0000.0001) %MON ad_dynstat_advvel_del2       =   6.4515429236482E-02
(PID.TID 0000.0001) %MON ad_dynstat_adwvel_max        =   2.4790860063296E+02
(PID.TID 0000.0001) %MON ad_dynstat_adwvel_min        =  -1.2171851799444E+02
(PID.TID 0000.0001) %MON ad_dynstat_adwvel_mean       =   5.5396605947292E-02
(PID.TID 0000.0001) %MON ad_dynstat_adwvel_sd         =   2.8507913824767E+00
(PID.TID 0000.0001) %MON ad_dynstat_adwvel_del2       =   3.6885784182339E-02
(PID.TID 0000.0001) %MON ad_dynstat_adtheta_max       =   1.2172484486735E+02
(PID.TID 0000.0001) %MON ad_dynstat_adtheta_min       =  -1.1206079155114E+02
(PID.TID 0000.0001) %MON ad_dynstat_adtheta_mean      =  -1.0987494459730E+00
(PID.TID 0000.0001) %MON ad_dynstat_adtheta_sd        =   2.3438661303671E+00
(PID.TID 0000.0001) %MON ad_dynstat_adtheta_del2      =   1.4159249907750E-02
(PID.TID 0000.0001) %MON ad_dynstat_adsalt_max        =   6.0686536230546E+02
(PID.TID 0000.0001) %MON ad_dynstat_adsalt_min        =  -6.0672865176684E+02
(PID.TID 0000.0001) %MON ad_dynstat_adsalt_mean       =  -1.3391387112013E-02
(PID.TID 0000.0001) %MON ad_dynstat_adsalt_sd         =   3.2123387693574E+00
(PID.TID 0000.0001) %MON ad_dynstat_adsalt_del2       =   6.2142010128819E-02
(PID.TID 0000.0001) %MON ad_forcing_adqnet_max        =   0.0000000000000E+00
(PID.TID 0000.0001) %MON ad_forcing_adqnet_min        =   0.0000000000000E+00
(PID.TID 0000.0001) %MON ad_forcing_adqnet_mean       =   0.0000000000000E+00
(PID.TID 0000.0001) %MON ad_forcing_adqnet_sd         =   0.0000000000000E+00
(PID.TID 0000.0001) %MON ad_forcing_adqnet_del2       =   0.0000000000000E+00
(PID.TID 0000.0001) %MON ad_forcing_adqsw_max         =   0.0000000000000E+00
(PID.TID 0000.0001) %MON ad_forcing_adqsw_min         =   0.0000000000000E+00
(PID.TID 0000.0001) %MON ad_forcing_adqsw_mean        =   0.0000000000000E+00
(PID.TID 0000.0001) %MON ad_forcing_adqsw_sd          =   0.0000000000000E+00
(PID.TID 0000.0001) %MON ad_forcing_adqsw_del2        =   0.0000000000000E+00
(PID.TID 0000.0001) %MON ad_forcing_adempmr_max       =   0.0000000000000E+00
(PID.TID 0000.0001) %MON ad_forcing_adempmr_min       =   0.0000000000000E+00
(PID.TID 0000.0001) %MON ad_forcing_adempmr_mean      =   0.0000000000000E+00
(PID.TID 0000.0001) %MON ad_forcing_adempmr_sd        =   0.0000000000000E+00
(PID.TID 0000.0001) %MON ad_forcing_adempmr_del2      =   0.0000000000000E+00
(PID.TID 0000.0001) %MON ad_forcing_adfu_max          =   0.0000000000000E+00
(PID.TID 0000.0001) %MON ad_forcing_adfu_min          =   0.0000000000000E+00
(PID.TID 0000.0001) %MON ad_forcing_adfu_mean         =   0.0000000000000E+00
(PID.TID 0000.0001) %MON ad_forcing_adfu_sd           =   0.0000000000000E+00
(PID.TID 0000.0001) %MON ad_forcing_adfu_del2         =   0.0000000000000E+00
(PID.TID 0000.0001) %MON ad_forcing_adfv_max          =   0.0000000000000E+00
(PID.TID 0000.0001) %MON ad_forcing_adfv_min          =   0.0000000000000E+00
(PID.TID 0000.0001) %MON ad_forcing_adfv_mean         =   0.0000000000000E+00
(PID.TID 0000.0001) %MON ad_forcing_adfv_sd           =   0.0000000000000E+00
(PID.TID 0000.0001) %MON ad_forcing_adfv_del2         =   0.0000000000000E+00
(PID.TID 0000.0001) // =======================================================
(PID.TID 0000.0001) // End MONITOR dynamic field statistics
(PID.TID 0000.0001) // =======================================================
 cg2d: Sum(rhs),rhsMax =   1.65340831304039E-18  1.15834182023448E-03
 BB: not converge: i,j,it,hi=  26   9   5   1       72000    0.398435537
 BB: not converge: Tsf, dTsf=  -13.480309430606207      -0.52556488604372531     
 BB: not converge: flxNet,dFlxT=  -73.550946810577869       -27.648387772720866     
 BB: not converge: i,j,it,hi=  15   6  12   1       72000    0.976808171
 BB: not converge: Tsf, dTsf=  -4.0625086296354231        1.2219951917621812     
 BB: not converge: flxNet,dFlxT=   26.749207585963717       -22.820714164491189     
 BB: not converge: i,j,it,hi=  15   6  12   1       72000    0.976808171
 BB: not converge: Tsf, dTsf=  -4.0625086296354231        1.2219951917621812     
 BB: not converge: flxNet,dFlxT=   26.749207585963717       -22.820714164491189     
 BB: not converge: i,j,it,hi=  15   6  12   1       72000    0.976808171
 BB: not converge: Tsf, dTsf=  -4.0625086296354231        1.2219951917621812     
 BB: not converge: flxNet,dFlxT=   26.749207585963717       -22.820714164491189     
 BB: not converge: i,j,it,hi=  26   9   5   1       72000    0.398435537
 BB: not converge: Tsf, dTsf=  -13.480309430606207      -0.52556488604372531     
 BB: not converge: flxNet,dFlxT=  -73.550946810577869       -27.648387772720866     
 BB: not converge: i,j,it,hi=  26   9   5   1       72000    0.398435537
 BB: not converge: Tsf, dTsf=  -13.480309430606207      -0.52556488604372531     
 BB: not converge: flxNet,dFlxT=  -73.550946810577869       -27.648387772720866     
(PID.TID 0000.0001) // =======================================================
(PID.TID 0000.0001) // Begin AD_MONITOR EXF statistics for iwhen =  3
(PID.TID 0000.0001) // =======================================================
(PID.TID 0000.0001) %MON ad_exf_tsnumber              =                 72000
(PID.TID 0000.0001) %MON ad_exf_time_sec              =   6.2208000000000E+09
(PID.TID 0000.0001) %MON ad_exf_adfu_max              =   3.4298723698510E+00
(PID.TID 0000.0001) %MON ad_exf_adfu_min              =  -5.8031931859474E+00
(PID.TID 0000.0001) %MON ad_exf_adfu_mean             =   1.1462171471642E-02
(PID.TID 0000.0001) %MON ad_exf_adfu_sd               =   5.5280549160701E-01
(PID.TID 0000.0001) %MON ad_exf_adfu_del2             =   1.5460412829840E-02
(PID.TID 0000.0001) %MON ad_exf_adfv_max              =   4.4155124589204E+00
(PID.TID 0000.0001) %MON ad_exf_adfv_min              =  -2.6017258647052E+00
(PID.TID 0000.0001) %MON ad_exf_adfv_mean             =  -2.3664144847821E-02
(PID.TID 0000.0001) %MON ad_exf_adfv_sd               =   4.7666162732557E-01
(PID.TID 0000.0001) %MON ad_exf_adfv_del2             =   1.2404518649444E-02
(PID.TID 0000.0001) %MON ad_exf_adqnet_max            =   3.1956011098453E-02
(PID.TID 0000.0001) %MON ad_exf_adqnet_min            =  -8.4357894944435E-03
(PID.TID 0000.0001) %MON ad_exf_adqnet_mean           =  -4.9013074821831E-04
(PID.TID 0000.0001) %MON ad_exf_adqnet_sd             =   1.1779828956638E-03
(PID.TID 0000.0001) %MON ad_exf_adqnet_del2           =   3.3369096181398E-05
(PID.TID 0000.0001) %MON ad_exf_adempmr_max           =   2.3600958017060E+04
(PID.TID 0000.0001) %MON ad_exf_adempmr_min           =  -7.7521018573469E+03
(PID.TID 0000.0001) %MON ad_exf_adempmr_mean          =  -1.5584038085176E+01
(PID.TID 0000.0001) %MON ad_exf_adempmr_sd            =   4.4871369665462E+02
(PID.TID 0000.0001) %MON ad_exf_adempmr_del2          =   2.1810287351703E+01
(PID.TID 0000.0001) // =======================================================
(PID.TID 0000.0001) // End AD_MONITOR EXF statistics for iwhen =  3
(PID.TID 0000.0001) // =======================================================
(PID.TID 0000.0001) // =======================================================
(PID.TID 0000.0001) // Begin AD_MONITOR EXF statistics for iwhen =  1
(PID.TID 0000.0001) // =======================================================
(PID.TID 0000.0001) %MON ad_exf_tsnumber              =                 72000
(PID.TID 0000.0001) %MON ad_exf_time_sec              =   6.2208000000000E+09
(PID.TID 0000.0001) %MON ad_exf_adustress_max         =   3.4298723698510E+00
(PID.TID 0000.0001) %MON ad_exf_adustress_min         =  -5.8031931859474E+00
(PID.TID 0000.0001) %MON ad_exf_adustress_mean        =   1.3073609762137E-02
(PID.TID 0000.0001) %MON ad_exf_adustress_sd          =   5.6593043670900E-01
(PID.TID 0000.0001) %MON ad_exf_adustress_del2        =   1.5573171301950E-02
(PID.TID 0000.0001) %MON ad_exf_advstress_max         =   4.4155124589204E+00
(PID.TID 0000.0001) %MON ad_exf_advstress_min         =  -2.6017258647052E+00
(PID.TID 0000.0001) %MON ad_exf_advstress_mean        =  -2.4716612964669E-02
(PID.TID 0000.0001) %MON ad_exf_advstress_sd          =   4.8820486241989E-01
(PID.TID 0000.0001) %MON ad_exf_advstress_del2        =   1.2263493534354E-02
(PID.TID 0000.0001) %MON ad_exf_adhflux_max           =   3.1956011098453E-02
(PID.TID 0000.0001) %MON ad_exf_adhflux_min           =  -8.4357894944435E-03
(PID.TID 0000.0001) %MON ad_exf_adhflux_mean          =  -4.9013074821831E-04
(PID.TID 0000.0001) %MON ad_exf_adhflux_sd            =   1.1779828956638E-03
(PID.TID 0000.0001) %MON ad_exf_adhflux_del2          =   3.3369096181398E-05
(PID.TID 0000.0001) %MON ad_exf_adsflux_max           =   2.3600958017060E+07
(PID.TID 0000.0001) %MON ad_exf_adsflux_min           =  -7.7521018573469E+06
(PID.TID 0000.0001) %MON ad_exf_adsflux_mean          =  -1.5584038085176E+04
(PID.TID 0000.0001) %MON ad_exf_adsflux_sd            =   4.4871369665462E+05
(PID.TID 0000.0001) %MON ad_exf_adsflux_del2          =   2.1810287351703E+04
(PID.TID 0000.0001) %MON ad_exf_adwspeed_max          =   0.0000000000000E+00
(PID.TID 0000.0001) %MON ad_exf_adwspeed_min          =   0.0000000000000E+00
(PID.TID 0000.0001) %MON ad_exf_adwspeed_mean         =   0.0000000000000E+00
(PID.TID 0000.0001) %MON ad_exf_adwspeed_sd           =   0.0000000000000E+00
(PID.TID 0000.0001) %MON ad_exf_adwspeed_del2         =   0.0000000000000E+00
(PID.TID 0000.0001) // =======================================================
(PID.TID 0000.0001) // End AD_MONITOR EXF statistics for iwhen =  1
(PID.TID 0000.0001) // =======================================================
(PID.TID 0000.0001) // =======================================================
(PID.TID 0000.0001) // Begin AD_MONITOR EXF statistics for iwhen =  2
(PID.TID 0000.0001) // =======================================================
(PID.TID 0000.0001) %MON ad_exf_tsnumber              =                 72000
(PID.TID 0000.0001) %MON ad_exf_time_sec              =   6.2208000000000E+09
(PID.TID 0000.0001) %MON ad_exf_adatemp_max           =   1.7820250596309E-01
(PID.TID 0000.0001) %MON ad_exf_adatemp_min           =  -5.4886531124550E-01
(PID.TID 0000.0001) %MON ad_exf_adatemp_mean          =   5.3190565618064E-03
(PID.TID 0000.0001) %MON ad_exf_adatemp_sd            =   1.6342590786243E-02
(PID.TID 0000.0001) %MON ad_exf_adatemp_del2          =   5.5461448100598E-04
(PID.TID 0000.0001) %MON ad_exf_adaqh_max             =   5.6195779847555E+02
(PID.TID 0000.0001) %MON ad_exf_adaqh_min             =  -1.6751687884596E+03
(PID.TID 0000.0001) %MON ad_exf_adaqh_mean            =   1.2020930716068E+01
(PID.TID 0000.0001) %MON ad_exf_adaqh_sd              =   4.4061297638596E+01
(PID.TID 0000.0001) %MON ad_exf_adaqh_del2            =   1.6371255782177E+00
(PID.TID 0000.0001) %MON ad_exf_adlwflux_max          =   0.0000000000000E+00
(PID.TID 0000.0001) %MON ad_exf_adlwflux_min          =   0.0000000000000E+00
(PID.TID 0000.0001) %MON ad_exf_adlwflux_mean         =   0.0000000000000E+00
(PID.TID 0000.0001) %MON ad_exf_adlwflux_sd           =   0.0000000000000E+00
(PID.TID 0000.0001) %MON ad_exf_adlwflux_del2         =   0.0000000000000E+00
(PID.TID 0000.0001) %MON ad_exf_adprecip_max          =   7.7521018573469E+06
(PID.TID 0000.0001) %MON ad_exf_adprecip_min          =  -2.3600958017060E+07
(PID.TID 0000.0001) %MON ad_exf_adprecip_mean         =   1.6174522277062E+04
(PID.TID 0000.0001) %MON ad_exf_adprecip_sd           =   4.5313559025189E+05
(PID.TID 0000.0001) %MON ad_exf_adprecip_del2         =   2.1918761677448E+04
(PID.TID 0000.0001) %MON ad_exf_adswflux_max          =   0.0000000000000E+00
(PID.TID 0000.0001) %MON ad_exf_adswflux_min          =   0.0000000000000E+00
(PID.TID 0000.0001) %MON ad_exf_adswflux_mean         =   0.0000000000000E+00
(PID.TID 0000.0001) %MON ad_exf_adswflux_sd           =   0.0000000000000E+00
(PID.TID 0000.0001) %MON ad_exf_adswflux_del2         =   0.0000000000000E+00
(PID.TID 0000.0001) %MON ad_exf_adswdown_max          =   7.4261994063205E-03
(PID.TID 0000.0001) %MON ad_exf_adswdown_min          =  -2.8189258971484E-02
(PID.TID 0000.0001) %MON ad_exf_adswdown_mean         =   4.5368018086843E-04
(PID.TID 0000.0001) %MON ad_exf_adswdown_sd           =   1.0649719612087E-03
(PID.TID 0000.0001) %MON ad_exf_adswdown_del2         =   2.9628927726208E-05
(PID.TID 0000.0001) %MON ad_exf_adlwdown_max          =   8.4357894944435E-03
(PID.TID 0000.0001) %MON ad_exf_adlwdown_min          =  -3.1956011098453E-02
(PID.TID 0000.0001) %MON ad_exf_adlwdown_mean         =   4.9360091571553E-04
(PID.TID 0000.0001) %MON ad_exf_adlwdown_sd           =   1.1795754485411E-03
(PID.TID 0000.0001) %MON ad_exf_adlwdown_del2         =   3.3376519684920E-05
(PID.TID 0000.0001) // =======================================================
(PID.TID 0000.0001) // End AD_MONITOR EXF statistics for iwhen =  2
(PID.TID 0000.0001) // =======================================================
(PID.TID 0000.0001)  nRecords = 123 ; filePrec =  64 ; fileIter =     72000
(PID.TID 0000.0001)     nDims =   2 , dims:
(PID.TID 0000.0001)    1: 192   1 192
(PID.TID 0000.0001)    2:  32   1  32
(PID.TID 0000.0001)     nFlds =  11 , nFl3D =   8 , fields:
(PID.TID 0000.0001)  >Uvel    < >GuNm1   < >Vvel    < >GvNm1   < >Theta   < >GtNm1   < >Salt    < >GsNm1   < >EtaN    < >dEtaHdt < >EtaH    <
(PID.TID 0000.0001)   nTimRec =   0 , timeList:
(PID.TID 0000.0001) READ_MFLDS_3D_RL: read field: "Uvel    ", #   1 in fldList, rec=   1
(PID.TID 0000.0001) READ_MFLDS_3D_RL: read field: "Vvel    ", #   3 in fldList, rec=   3
(PID.TID 0000.0001) READ_MFLDS_3D_RL: read field: "Theta   ", #   5 in fldList, rec=   5
(PID.TID 0000.0001) READ_MFLDS_3D_RL: read field: "Salt    ", #   7 in fldList, rec=   7
(PID.TID 0000.0001) READ_MFLDS_3D_RL: read field: "GuNm1   ", #   2 in fldList, rec=   2
(PID.TID 0000.0001) READ_MFLDS_3D_RL: read field: "GvNm1   ", #   4 in fldList, rec=   4
(PID.TID 0000.0001) READ_MFLDS_3D_RL: read field: "EtaN    ", #   9 in fldList, rec= 121
(PID.TID 0000.0001) READ_MFLDS_3D_RL: read field: "dEtaHdt ", #  10 in fldList, rec= 122
(PID.TID 0000.0001) READ_MFLDS_3D_RL: read field: "EtaH    ", #  11 in fldList, rec= 123
(PID.TID 0000.0001) READ_MFLDS_CHECK: - normal end ; reset MFLDS file-name: pickup.0000072000
(PID.TID 0000.0001) // =======================================================
(PID.TID 0000.0001) // Begin MONITOR dynamic field statistics
(PID.TID 0000.0001) // =======================================================
(PID.TID 0000.0001) %MON ad_time_tsnumber             =                 72000
(PID.TID 0000.0001) %MON ad_time_secondsf             =   6.2208000000000E+09
(PID.TID 0000.0001) %MON ad_dynstat_adeta_max         =   0.0000000000000E+00
(PID.TID 0000.0001) %MON ad_dynstat_adeta_min         =   0.0000000000000E+00
(PID.TID 0000.0001) %MON ad_dynstat_adeta_mean        =   0.0000000000000E+00
(PID.TID 0000.0001) %MON ad_dynstat_adeta_sd          =   0.0000000000000E+00
(PID.TID 0000.0001) %MON ad_dynstat_adeta_del2        =   0.0000000000000E+00
(PID.TID 0000.0001) %MON ad_dynstat_aduvel_max        =   1.9939367977144E+02
(PID.TID 0000.0001) %MON ad_dynstat_aduvel_min        =  -2.3625499218818E+02
(PID.TID 0000.0001) %MON ad_dynstat_aduvel_mean       =   3.0984550244308E-01
(PID.TID 0000.0001) %MON ad_dynstat_aduvel_sd         =   9.4335019026509E+00
(PID.TID 0000.0001) %MON ad_dynstat_aduvel_del2       =   8.4046519725938E-02
(PID.TID 0000.0001) %MON ad_dynstat_advvel_max        =   1.7414210707293E+02
(PID.TID 0000.0001) %MON ad_dynstat_advvel_min        =  -1.4427774300798E+02
(PID.TID 0000.0001) %MON ad_dynstat_advvel_mean       =   2.1193706484471E-01
(PID.TID 0000.0001) %MON ad_dynstat_advvel_sd         =   9.0186245822272E+00
(PID.TID 0000.0001) %MON ad_dynstat_advvel_del2       =   6.9481068021822E-02
(PID.TID 0000.0001) %MON ad_dynstat_adwvel_max        =   2.6292354624627E+02
(PID.TID 0000.0001) %MON ad_dynstat_adwvel_min        =  -1.3040992541242E+02
(PID.TID 0000.0001) %MON ad_dynstat_adwvel_mean       =   5.9933243648172E-02
(PID.TID 0000.0001) %MON ad_dynstat_adwvel_sd         =   3.0711203051258E+00
(PID.TID 0000.0001) %MON ad_dynstat_adwvel_del2       =   3.9518678042249E-02
(PID.TID 0000.0001) %MON ad_dynstat_adtheta_max       =   1.6029322466856E+02
(PID.TID 0000.0001) %MON ad_dynstat_adtheta_min       =  -1.4794917061933E+02
(PID.TID 0000.0001) %MON ad_dynstat_adtheta_mean      =  -1.0988957040358E+00
(PID.TID 0000.0001) %MON ad_dynstat_adtheta_sd        =   2.3708400507194E+00
(PID.TID 0000.0001) %MON ad_dynstat_adtheta_del2      =   1.6734415225391E-02
(PID.TID 0000.0001) %MON ad_dynstat_adsalt_max        =   8.0036228547726E+02
(PID.TID 0000.0001) %MON ad_dynstat_adsalt_min        =  -7.9941345322248E+02
(PID.TID 0000.0001) %MON ad_dynstat_adsalt_mean       =  -1.5001314207041E-02
(PID.TID 0000.0001) %MON ad_dynstat_adsalt_sd         =   3.8260607070538E+00
(PID.TID 0000.0001) %MON ad_dynstat_adsalt_del2       =   7.7566871268860E-02
(PID.TID 0000.0001) %MON ad_forcing_adqnet_max        =   0.0000000000000E+00
(PID.TID 0000.0001) %MON ad_forcing_adqnet_min        =   0.0000000000000E+00
(PID.TID 0000.0001) %MON ad_forcing_adqnet_mean       =   0.0000000000000E+00
(PID.TID 0000.0001) %MON ad_forcing_adqnet_sd         =   0.0000000000000E+00
(PID.TID 0000.0001) %MON ad_forcing_adqnet_del2       =   0.0000000000000E+00
(PID.TID 0000.0001) %MON ad_forcing_adqsw_max         =   0.0000000000000E+00
(PID.TID 0000.0001) %MON ad_forcing_adqsw_min         =   0.0000000000000E+00
(PID.TID 0000.0001) %MON ad_forcing_adqsw_mean        =   0.0000000000000E+00
(PID.TID 0000.0001) %MON ad_forcing_adqsw_sd          =   0.0000000000000E+00
(PID.TID 0000.0001) %MON ad_forcing_adqsw_del2        =   0.0000000000000E+00
(PID.TID 0000.0001) %MON ad_forcing_adempmr_max       =   0.0000000000000E+00
(PID.TID 0000.0001) %MON ad_forcing_adempmr_min       =   0.0000000000000E+00
(PID.TID 0000.0001) %MON ad_forcing_adempmr_mean      =   0.0000000000000E+00
(PID.TID 0000.0001) %MON ad_forcing_adempmr_sd        =   0.0000000000000E+00
(PID.TID 0000.0001) %MON ad_forcing_adempmr_del2      =   0.0000000000000E+00
(PID.TID 0000.0001) %MON ad_forcing_adfu_max          =   0.0000000000000E+00
(PID.TID 0000.0001) %MON ad_forcing_adfu_min          =   0.0000000000000E+00
(PID.TID 0000.0001) %MON ad_forcing_adfu_mean         =   0.0000000000000E+00
(PID.TID 0000.0001) %MON ad_forcing_adfu_sd           =   0.0000000000000E+00
(PID.TID 0000.0001) %MON ad_forcing_adfu_del2         =   0.0000000000000E+00
(PID.TID 0000.0001) %MON ad_forcing_adfv_max          =   0.0000000000000E+00
(PID.TID 0000.0001) %MON ad_forcing_adfv_min          =   0.0000000000000E+00
(PID.TID 0000.0001) %MON ad_forcing_adfv_mean         =   0.0000000000000E+00
(PID.TID 0000.0001) %MON ad_forcing_adfv_sd           =   0.0000000000000E+00
(PID.TID 0000.0001) %MON ad_forcing_adfv_del2         =   0.0000000000000E+00
(PID.TID 0000.0001) // =======================================================
(PID.TID 0000.0001) // End MONITOR dynamic field statistics
(PID.TID 0000.0001) // =======================================================
 ph-check entering grdchk_main 
 ph-check fcref =    112080.46530050924     
grad-res -------------------------------
 grad-res  proc    #    i    j    k   bi   bj iobc               fc ref           fc + eps           fc - eps
 grad-res  proc    #    i    j    k   bi   bj iobc             adj grad            fd grad         1 - fd/adj
 ph-test icomp, ncvarcomp, ichknum            1       55522           1
 ph-grd _loc: bi, bj, icomptest, ichknum            1           1           0           1
 ph-grd -->hit<--            1           1           1           1
(PID.TID 0000.0001)  nRecords = 123 ; filePrec =  64 ; fileIter =     72000
(PID.TID 0000.0001)     nDims =   2 , dims:
(PID.TID 0000.0001)    1: 192   1 192
(PID.TID 0000.0001)    2:  32   1  32
(PID.TID 0000.0001)     nFlds =  11 , nFl3D =   8 , fields:
(PID.TID 0000.0001)  >Uvel    < >GuNm1   < >Vvel    < >GvNm1   < >Theta   < >GtNm1   < >Salt    < >GsNm1   < >EtaN    < >dEtaHdt < >EtaH    <
(PID.TID 0000.0001)   nTimRec =   0 , timeList:
(PID.TID 0000.0001) READ_MFLDS_3D_RL: read field: "Uvel    ", #   1 in fldList, rec=   1
(PID.TID 0000.0001) READ_MFLDS_3D_RL: read field: "Vvel    ", #   3 in fldList, rec=   3
(PID.TID 0000.0001) READ_MFLDS_3D_RL: read field: "Theta   ", #   5 in fldList, rec=   5
(PID.TID 0000.0001) READ_MFLDS_3D_RL: read field: "Salt    ", #   7 in fldList, rec=   7
(PID.TID 0000.0001) READ_MFLDS_3D_RL: read field: "GuNm1   ", #   2 in fldList, rec=   2
(PID.TID 0000.0001) READ_MFLDS_3D_RL: read field: "GvNm1   ", #   4 in fldList, rec=   4
(PID.TID 0000.0001) READ_MFLDS_3D_RL: read field: "EtaN    ", #   9 in fldList, rec= 121
(PID.TID 0000.0001) READ_MFLDS_3D_RL: read field: "dEtaHdt ", #  10 in fldList, rec= 122
(PID.TID 0000.0001) READ_MFLDS_3D_RL: read field: "EtaH    ", #  11 in fldList, rec= 123
(PID.TID 0000.0001) READ_MFLDS_CHECK: - normal end ; reset MFLDS file-name: pickup.0000072000
(PID.TID 0000.0001) // =======================================================
(PID.TID 0000.0001) // Model current state
(PID.TID 0000.0001) // =======================================================
(PID.TID 0000.0001) 
 BB: not converge: i,j,it,hi=  26   9   5   1       72000    0.398435537
 BB: not converge: Tsf, dTsf=  -13.480309430606207      -0.52556488604372531     
 BB: not converge: flxNet,dFlxT=  -73.550946810577869       -27.648387772720866     
 BB: not converge: i,j,it,hi=  15   6  12   1       72000    0.976808171
 BB: not converge: Tsf, dTsf=  -4.0625086296354231        1.2219951917621812     
 BB: not converge: flxNet,dFlxT=   26.749207585963717       -22.820714164491189     
(PID.TID 0000.0001) SOLVE_FOR_PRESSURE: putPmEinXvector =    F
 cg2d: Sum(rhs),rhsMax =   2.21834535118519E+03  2.10925029947484E+01
 cg2d: Sum(rhs),rhsMax =   2.21800836091079E+03  2.12029948413472E+01
 cg2d: Sum(rhs),rhsMax =   2.21766844465932E+03  2.12393113125233E+01
 cg2d: Sum(rhs),rhsMax =   2.21734622817958E+03  2.12960813116051E+01
 cg2d: Sum(rhs),rhsMax =   2.21702018273656E+03  2.13515723850835E+01
 cg2d: Sum(rhs),rhsMax =   2.21669863090078E+03  2.14042534309949E+01
 cg2d: Sum(rhs),rhsMax =   2.21637328556860E+03  2.14537629126346E+01
 cg2d: Sum(rhs),rhsMax =   2.21606587055618E+03  2.14995310139022E+01
 cg2d: Sum(rhs),rhsMax =   2.21577541390606E+03  2.15409705872215E+01
 BB: not converge: i,j,it,hi=  10  11   6   1       72009    0.200000000
 BB: not converge: Tsf, dTsf=  -7.6252266970993725       -5.8413126538716060     
 BB: not converge: flxNet,dFlxT=  -261.01644936527725       -32.148110670561827     
 cg2d: Sum(rhs),rhsMax =   2.21549436674019E+03  2.15774582001858E+01
(PID.TID 0000.0001) Did not write pickup because writePickupAtEnd = FALSE
 --> f_ice     = 0.000000000000000D+00
 --> f_smrarea = 0.000000000000000D+00
 --> f_smrarea = 0.000000000000000D+00
 --> f_smrarea = 0.000000000000000D+00
 --> objf_test(bi,bj)   =  0.997451050386654D+04
 --> objf_tracer(bi,bj) =  0.000000000000000D+00
 --> objf_atl(bi,bj)    =  0.000000000000000D+00
 --> objf_test(bi,bj)   =  0.742919495638807D+04
 --> objf_tracer(bi,bj) =  0.000000000000000D+00
 --> objf_atl(bi,bj)    =  0.000000000000000D+00
 --> objf_test(bi,bj)   =  0.939735963394170D+04
 --> objf_tracer(bi,bj) =  0.000000000000000D+00
 --> objf_atl(bi,bj)    =  0.000000000000000D+00
 --> objf_test(bi,bj)   =  0.778882104224279D+04
 --> objf_tracer(bi,bj) =  0.000000000000000D+00
 --> objf_atl(bi,bj)    =  0.000000000000000D+00
 --> objf_test(bi,bj)   =  0.632699972630231D+04
 --> objf_tracer(bi,bj) =  0.000000000000000D+00
 --> objf_atl(bi,bj)    =  0.000000000000000D+00
 --> objf_test(bi,bj)   =  0.121417770554072D+05
 --> objf_tracer(bi,bj) =  0.000000000000000D+00
 --> objf_atl(bi,bj)    =  0.000000000000000D+00
 --> objf_test(bi,bj)   =  0.130041766995186D+05
 --> objf_tracer(bi,bj) =  0.000000000000000D+00
 --> objf_atl(bi,bj)    =  0.000000000000000D+00
 --> objf_test(bi,bj)   =  0.135464983472402D+05
 --> objf_tracer(bi,bj) =  0.000000000000000D+00
 --> objf_atl(bi,bj)    =  0.000000000000000D+00
 --> objf_test(bi,bj)   =  0.714246243719130D+04
 --> objf_tracer(bi,bj) =  0.000000000000000D+00
 --> objf_atl(bi,bj)    =  0.000000000000000D+00
 --> objf_test(bi,bj)   =  0.665338265314864D+04
 --> objf_tracer(bi,bj) =  0.000000000000000D+00
 --> objf_atl(bi,bj)    =  0.000000000000000D+00
 --> objf_test(bi,bj)   =  0.100031724177070D+05
 --> objf_tracer(bi,bj) =  0.000000000000000D+00
 --> objf_atl(bi,bj)    =  0.000000000000000D+00
 --> objf_test(bi,bj)   =  0.867215189390203D+04
 --> objf_tracer(bi,bj) =  0.000000000000000D+00
 --> objf_atl(bi,bj)    =  0.000000000000000D+00
  local fc =  0.112080507366856D+06
 global fc =  0.112080507366856D+06
 ph-check fcpertplus =    112080.50736685636     
 ph-check fcpertminus =    112080.46530050924     
(PID.TID 0000.0001)  nRecords = 123 ; filePrec =  64 ; fileIter =     72000
(PID.TID 0000.0001)     nDims =   2 , dims:
(PID.TID 0000.0001)    1: 192   1 192
(PID.TID 0000.0001)    2:  32   1  32
(PID.TID 0000.0001)     nFlds =  11 , nFl3D =   8 , fields:
(PID.TID 0000.0001)  >Uvel    < >GuNm1   < >Vvel    < >GvNm1   < >Theta   < >GtNm1   < >Salt    < >GsNm1   < >EtaN    < >dEtaHdt < >EtaH    <
(PID.TID 0000.0001)   nTimRec =   0 , timeList:
(PID.TID 0000.0001) READ_MFLDS_3D_RL: read field: "Uvel    ", #   1 in fldList, rec=   1
(PID.TID 0000.0001) READ_MFLDS_3D_RL: read field: "Vvel    ", #   3 in fldList, rec=   3
(PID.TID 0000.0001) READ_MFLDS_3D_RL: read field: "Theta   ", #   5 in fldList, rec=   5
(PID.TID 0000.0001) READ_MFLDS_3D_RL: read field: "Salt    ", #   7 in fldList, rec=   7
(PID.TID 0000.0001) READ_MFLDS_3D_RL: read field: "GuNm1   ", #   2 in fldList, rec=   2
(PID.TID 0000.0001) READ_MFLDS_3D_RL: read field: "GvNm1   ", #   4 in fldList, rec=   4
(PID.TID 0000.0001) READ_MFLDS_3D_RL: read field: "EtaN    ", #   9 in fldList, rec= 121
(PID.TID 0000.0001) READ_MFLDS_3D_RL: read field: "dEtaHdt ", #  10 in fldList, rec= 122
(PID.TID 0000.0001) READ_MFLDS_3D_RL: read field: "EtaH    ", #  11 in fldList, rec= 123
(PID.TID 0000.0001) READ_MFLDS_CHECK: - normal end ; reset MFLDS file-name: pickup.0000072000
(PID.TID 0000.0001) // =======================================================
(PID.TID 0000.0001) // Model current state
(PID.TID 0000.0001) // =======================================================
(PID.TID 0000.0001) 
 BB: not converge: i,j,it,hi=  26   9   5   1       72000    0.398435537
 BB: not converge: Tsf, dTsf=  -13.480309430606207      -0.52556488604372531     
 BB: not converge: flxNet,dFlxT=  -73.550946810577869       -27.648387772720866     
 BB: not converge: i,j,it,hi=  15   6  12   1       72000    0.976808171
 BB: not converge: Tsf, dTsf=  -4.0625086296354231        1.2219951917621812     
 BB: not converge: flxNet,dFlxT=   26.749207585963717       -22.820714164491189     
(PID.TID 0000.0001) SOLVE_FOR_PRESSURE: putPmEinXvector =    F
 cg2d: Sum(rhs),rhsMax =   2.21834535092240E+03  2.10925029947484E+01
 cg2d: Sum(rhs),rhsMax =   2.21800836038716E+03  2.12029948235519E+01
 cg2d: Sum(rhs),rhsMax =   2.21766844387663E+03  2.12393112950884E+01
 cg2d: Sum(rhs),rhsMax =   2.21734622713947E+03  2.12960813081130E+01
 cg2d: Sum(rhs),rhsMax =   2.21702018144055E+03  2.13515723901518E+01
 cg2d: Sum(rhs),rhsMax =   2.21669862935034E+03  2.14042534364597E+01
 cg2d: Sum(rhs),rhsMax =   2.21637328376585E+03  2.14537629157787E+01
 cg2d: Sum(rhs),rhsMax =   2.21606586850317E+03  2.14995310152574E+01
 cg2d: Sum(rhs),rhsMax =   2.21577541160490E+03  2.15409705876180E+01
 BB: not converge: i,j,it,hi=  10  11   6   1       72009    0.200000000
 BB: not converge: Tsf, dTsf=  -7.6252266970987446       -5.8413126538714311     
 BB: not converge: flxNet,dFlxT=  -261.01644936529175       -32.148110670562239     
 cg2d: Sum(rhs),rhsMax =   2.21549436419277E+03  2.15774581998422E+01
(PID.TID 0000.0001) Did not write pickup because writePickupAtEnd = FALSE
 --> f_ice     = 0.000000000000000D+00
 --> f_smrarea = 0.000000000000000D+00
 --> f_smrarea = 0.000000000000000D+00
 --> f_smrarea = 0.000000000000000D+00
 --> objf_test(bi,bj)   =  0.997444094357492D+04
 --> objf_tracer(bi,bj) =  0.000000000000000D+00
 --> objf_atl(bi,bj)    =  0.000000000000000D+00
 --> objf_test(bi,bj)   =  0.742919495651076D+04
 --> objf_tracer(bi,bj) =  0.000000000000000D+00
 --> objf_atl(bi,bj)    =  0.000000000000000D+00
 --> objf_test(bi,bj)   =  0.939735963354409D+04
 --> objf_tracer(bi,bj) =  0.000000000000000D+00
 --> objf_atl(bi,bj)    =  0.000000000000000D+00
 --> objf_test(bi,bj)   =  0.778882104175669D+04
 --> objf_tracer(bi,bj) =  0.000000000000000D+00
 --> objf_atl(bi,bj)    =  0.000000000000000D+00
 --> objf_test(bi,bj)   =  0.632699972629339D+04
 --> objf_tracer(bi,bj) =  0.000000000000000D+00
 --> objf_atl(bi,bj)    =  0.000000000000000D+00
 --> objf_test(bi,bj)   =  0.121417770561591D+05
 --> objf_tracer(bi,bj) =  0.000000000000000D+00
 --> objf_atl(bi,bj)    =  0.000000000000000D+00
 --> objf_test(bi,bj)   =  0.130041766997531D+05
 --> objf_tracer(bi,bj) =  0.000000000000000D+00
 --> objf_atl(bi,bj)    =  0.000000000000000D+00
 --> objf_test(bi,bj)   =  0.135464983471570D+05
 --> objf_tracer(bi,bj) =  0.000000000000000D+00
 --> objf_atl(bi,bj)    =  0.000000000000000D+00
 --> objf_test(bi,bj)   =  0.714246243709192D+04
 --> objf_tracer(bi,bj) =  0.000000000000000D+00
 --> objf_atl(bi,bj)    =  0.000000000000000D+00
 --> objf_test(bi,bj)   =  0.665337671962807D+04
 --> objf_tracer(bi,bj) =  0.000000000000000D+00
 --> objf_atl(bi,bj)    =  0.000000000000000D+00
 --> objf_test(bi,bj)   =  0.100031724174600D+05
 --> objf_tracer(bi,bj) =  0.000000000000000D+00
 --> objf_atl(bi,bj)    =  0.000000000000000D+00
 --> objf_test(bi,bj)   =  0.867214331270601D+04
 --> objf_tracer(bi,bj) =  0.000000000000000D+00
 --> objf_atl(bi,bj)    =  0.000000000000000D+00
  local fc =  0.112080423291635D+06
 global fc =  0.112080423291635D+06
grad-res -------------------------------
 grad-res     0    1    1    1    1    1    1    1   1.12080465301E+05  1.12080507367E+05  1.12080423292E+05
 grad-res     0    1    1    1    0    1    1    1   4.20464017117E+00  4.20376106194E+00  2.09080728204E-04
(PID.TID 0000.0001)  ADM  ref_cost_function      =  1.12080465300509E+05
(PID.TID 0000.0001)  ADM  adjoint_gradient       =  4.20464017117336E+00
(PID.TID 0000.0001)  ADM  finite-diff_grad       =  4.20376106194453E+00
 ph-grd  ierr ---------------------------
 ph-grd  ierr =            0 , icomp =            1 , ichknum =            1
 ph-test icomp, ncvarcomp, ichknum            2       55522           2
 ph-grd _loc: bi, bj, icomptest, ichknum            1           1           1           2
 ph-grd -->hit<--            2           1           1           1
(PID.TID 0000.0001)  nRecords = 123 ; filePrec =  64 ; fileIter =     72000
(PID.TID 0000.0001)     nDims =   2 , dims:
(PID.TID 0000.0001)    1: 192   1 192
(PID.TID 0000.0001)    2:  32   1  32
(PID.TID 0000.0001)     nFlds =  11 , nFl3D =   8 , fields:
(PID.TID 0000.0001)  >Uvel    < >GuNm1   < >Vvel    < >GvNm1   < >Theta   < >GtNm1   < >Salt    < >GsNm1   < >EtaN    < >dEtaHdt < >EtaH    <
(PID.TID 0000.0001)   nTimRec =   0 , timeList:
(PID.TID 0000.0001) READ_MFLDS_3D_RL: read field: "Uvel    ", #   1 in fldList, rec=   1
(PID.TID 0000.0001) READ_MFLDS_3D_RL: read field: "Vvel    ", #   3 in fldList, rec=   3
(PID.TID 0000.0001) READ_MFLDS_3D_RL: read field: "Theta   ", #   5 in fldList, rec=   5
(PID.TID 0000.0001) READ_MFLDS_3D_RL: read field: "Salt    ", #   7 in fldList, rec=   7
(PID.TID 0000.0001) READ_MFLDS_3D_RL: read field: "GuNm1   ", #   2 in fldList, rec=   2
(PID.TID 0000.0001) READ_MFLDS_3D_RL: read field: "GvNm1   ", #   4 in fldList, rec=   4
(PID.TID 0000.0001) READ_MFLDS_3D_RL: read field: "EtaN    ", #   9 in fldList, rec= 121
(PID.TID 0000.0001) READ_MFLDS_3D_RL: read field: "dEtaHdt ", #  10 in fldList, rec= 122
(PID.TID 0000.0001) READ_MFLDS_3D_RL: read field: "EtaH    ", #  11 in fldList, rec= 123
(PID.TID 0000.0001) READ_MFLDS_CHECK: - normal end ; reset MFLDS file-name: pickup.0000072000
(PID.TID 0000.0001) // =======================================================
(PID.TID 0000.0001) // Model current state
(PID.TID 0000.0001) // =======================================================
(PID.TID 0000.0001) 
 BB: not converge: i,j,it,hi=  26   9   5   1       72000    0.398435537
 BB: not converge: Tsf, dTsf=  -13.480309430606207      -0.52556488604372531     
 BB: not converge: flxNet,dFlxT=  -73.550946810577869       -27.648387772720866     
 BB: not converge: i,j,it,hi=  15   6  12   1       72000    0.976808171
 BB: not converge: Tsf, dTsf=  -4.0625086296354231        1.2219951917621812     
 BB: not converge: flxNet,dFlxT=   26.749207585963717       -22.820714164491189     
(PID.TID 0000.0001) SOLVE_FOR_PRESSURE: putPmEinXvector =    F
 cg2d: Sum(rhs),rhsMax =   2.21834535127175E+03  2.10925029947484E+01
 cg2d: Sum(rhs),rhsMax =   2.21800836108346E+03  2.12029948475302E+01
 cg2d: Sum(rhs),rhsMax =   2.21766844491755E+03  2.12393113185868E+01
 cg2d: Sum(rhs),rhsMax =   2.21734622852279E+03  2.12960813126987E+01
 cg2d: Sum(rhs),rhsMax =   2.21702018316418E+03  2.13515723833821E+01
 cg2d: Sum(rhs),rhsMax =   2.21669863141228E+03  2.14042534292229E+01
 cg2d: Sum(rhs),rhsMax =   2.21637328616387E+03  2.14537629116212E+01
 cg2d: Sum(rhs),rhsMax =   2.21606587123514E+03  2.14995310134506E+01
 cg2d: Sum(rhs),rhsMax =   2.21577541466865E+03  2.15409705870515E+01
 BB: not converge: i,j,it,hi=  10  11   6   1       72009    0.200000000
 BB: not converge: Tsf, dTsf=  -7.6252266970995839       -5.8413126538716611     
 BB: not converge: flxNet,dFlxT=  -261.01644936527174       -32.148110670561657     
 cg2d: Sum(rhs),rhsMax =   2.21549436758546E+03  2.15774582002652E+01
(PID.TID 0000.0001) Did not write pickup because writePickupAtEnd = FALSE
 --> f_ice     = 0.000000000000000D+00
 --> f_smrarea = 0.000000000000000D+00
 --> f_smrarea = 0.000000000000000D+00
 --> f_smrarea = 0.000000000000000D+00
 --> objf_test(bi,bj)   =  0.997451543506935D+04
 --> objf_tracer(bi,bj) =  0.000000000000000D+00
 --> objf_atl(bi,bj)    =  0.000000000000000D+00
 --> objf_test(bi,bj)   =  0.742919495634632D+04
 --> objf_tracer(bi,bj) =  0.000000000000000D+00
 --> objf_atl(bi,bj)    =  0.000000000000000D+00
 --> objf_test(bi,bj)   =  0.939735963408255D+04
 --> objf_tracer(bi,bj) =  0.000000000000000D+00
 --> objf_atl(bi,bj)    =  0.000000000000000D+00
 --> objf_test(bi,bj)   =  0.778882104241477D+04
 --> objf_tracer(bi,bj) =  0.000000000000000D+00
 --> objf_atl(bi,bj)    =  0.000000000000000D+00
 --> objf_test(bi,bj)   =  0.632699972630529D+04
 --> objf_tracer(bi,bj) =  0.000000000000000D+00
 --> objf_atl(bi,bj)    =  0.000000000000000D+00
 --> objf_test(bi,bj)   =  0.121417770551415D+05
 --> objf_tracer(bi,bj) =  0.000000000000000D+00
 --> objf_atl(bi,bj)    =  0.000000000000000D+00
 --> objf_test(bi,bj)   =  0.130041766994347D+05
 --> objf_tracer(bi,bj) =  0.000000000000000D+00
 --> objf_atl(bi,bj)    =  0.000000000000000D+00
 --> objf_test(bi,bj)   =  0.135464983472701D+05
 --> objf_tracer(bi,bj) =  0.000000000000000D+00
 --> objf_atl(bi,bj)    =  0.000000000000000D+00
 --> objf_test(bi,bj)   =  0.714246243722630D+04
 --> objf_tracer(bi,bj) =  0.000000000000000D+00
 --> objf_atl(bi,bj)    =  0.000000000000000D+00
 --> objf_test(bi,bj)   =  0.665338007607850D+04
 --> objf_tracer(bi,bj) =  0.000000000000000D+00
 --> objf_atl(bi,bj)    =  0.000000000000000D+00
 --> objf_test(bi,bj)   =  0.100031724177952D+05
 --> objf_tracer(bi,bj) =  0.000000000000000D+00
 --> objf_atl(bi,bj)    =  0.000000000000000D+00
 --> objf_test(bi,bj)   =  0.867215006061603D+04
 --> objf_tracer(bi,bj) =  0.000000000000000D+00
 --> objf_atl(bi,bj)    =  0.000000000000000D+00
  local fc =  0.112080507887781D+06
 global fc =  0.112080507887781D+06
 ph-check fcpertplus =    112080.50788778062     
 ph-check fcpertminus =    112080.46530050924     
(PID.TID 0000.0001)  nRecords = 123 ; filePrec =  64 ; fileIter =     72000
(PID.TID 0000.0001)     nDims =   2 , dims:
(PID.TID 0000.0001)    1: 192   1 192
(PID.TID 0000.0001)    2:  32   1  32
(PID.TID 0000.0001)     nFlds =  11 , nFl3D =   8 , fields:
(PID.TID 0000.0001)  >Uvel    < >GuNm1   < >Vvel    < >GvNm1   < >Theta   < >GtNm1   < >Salt    < >GsNm1   < >EtaN    < >dEtaHdt < >EtaH    <
(PID.TID 0000.0001)   nTimRec =   0 , timeList:
(PID.TID 0000.0001) READ_MFLDS_3D_RL: read field: "Uvel    ", #   1 in fldList, rec=   1
(PID.TID 0000.0001) READ_MFLDS_3D_RL: read field: "Vvel    ", #   3 in fldList, rec=   3
(PID.TID 0000.0001) READ_MFLDS_3D_RL: read field: "Theta   ", #   5 in fldList, rec=   5
(PID.TID 0000.0001) READ_MFLDS_3D_RL: read field: "Salt    ", #   7 in fldList, rec=   7
(PID.TID 0000.0001) READ_MFLDS_3D_RL: read field: "GuNm1   ", #   2 in fldList, rec=   2
(PID.TID 0000.0001) READ_MFLDS_3D_RL: read field: "GvNm1   ", #   4 in fldList, rec=   4
(PID.TID 0000.0001) READ_MFLDS_3D_RL: read field: "EtaN    ", #   9 in fldList, rec= 121
(PID.TID 0000.0001) READ_MFLDS_3D_RL: read field: "dEtaHdt ", #  10 in fldList, rec= 122
(PID.TID 0000.0001) READ_MFLDS_3D_RL: read field: "EtaH    ", #  11 in fldList, rec= 123
(PID.TID 0000.0001) READ_MFLDS_CHECK: - normal end ; reset MFLDS file-name: pickup.0000072000
(PID.TID 0000.0001) // =======================================================
(PID.TID 0000.0001) // Model current state
(PID.TID 0000.0001) // =======================================================
(PID.TID 0000.0001) 
 BB: not converge: i,j,it,hi=  26   9   5   1       72000    0.398435537
 BB: not converge: Tsf, dTsf=  -13.480309430606207      -0.52556488604372531     
 BB: not converge: flxNet,dFlxT=  -73.550946810577869       -27.648387772720866     
 BB: not converge: i,j,it,hi=  15   6  12   1       72000    0.976808171
 BB: not converge: Tsf, dTsf=  -4.0625086296354231        1.2219951917621812     
 BB: not converge: flxNet,dFlxT=   26.749207585963717       -22.820714164491189     
(PID.TID 0000.0001) SOLVE_FOR_PRESSURE: putPmEinXvector =    F
 cg2d: Sum(rhs),rhsMax =   2.21834535083583E+03  2.10925029947484E+01
 cg2d: Sum(rhs),rhsMax =   2.21800836021447E+03  2.12029948173746E+01
 cg2d: Sum(rhs),rhsMax =   2.21766844361837E+03  2.12393112890179E+01
 cg2d: Sum(rhs),rhsMax =   2.21734622679623E+03  2.12960813070158E+01
 cg2d: Sum(rhs),rhsMax =   2.21702018101291E+03  2.13515723918446E+01
 cg2d: Sum(rhs),rhsMax =   2.21669862883893E+03  2.14042534382254E+01
 cg2d: Sum(rhs),rhsMax =   2.21637328317078E+03  2.14537629167847E+01
 cg2d: Sum(rhs),rhsMax =   2.21606586782453E+03  2.14995310157148E+01
 cg2d: Sum(rhs),rhsMax =   2.21577541084277E+03  2.15409705877994E+01
 BB: not converge: i,j,it,hi=  10  11   6   1       72009    0.200000000
 BB: not converge: Tsf, dTsf=  -7.6252266970985279       -5.8413126538713751     
 BB: not converge: flxNet,dFlxT=  -261.01644936529732       -32.148110670562410     
 cg2d: Sum(rhs),rhsMax =   2.21549436334810E+03  2.15774581997626E+01
(PID.TID 0000.0001) Did not write pickup because writePickupAtEnd = FALSE
 --> f_ice     = 0.000000000000000D+00
 --> f_smrarea = 0.000000000000000D+00
 --> f_smrarea = 0.000000000000000D+00
 --> f_smrarea = 0.000000000000000D+00
 --> objf_test(bi,bj)   =  0.997443606137660D+04
 --> objf_tracer(bi,bj) =  0.000000000000000D+00
 --> objf_atl(bi,bj)    =  0.000000000000000D+00
 --> objf_test(bi,bj)   =  0.742919495655247D+04
 --> objf_tracer(bi,bj) =  0.000000000000000D+00
 --> objf_atl(bi,bj)    =  0.000000000000000D+00
 --> objf_test(bi,bj)   =  0.939735963340332D+04
 --> objf_tracer(bi,bj) =  0.000000000000000D+00
 --> objf_atl(bi,bj)    =  0.000000000000000D+00
 --> objf_test(bi,bj)   =  0.778882104158476D+04
 --> objf_tracer(bi,bj) =  0.000000000000000D+00
 --> objf_atl(bi,bj)    =  0.000000000000000D+00
 --> objf_test(bi,bj)   =  0.632699972629028D+04
 --> objf_tracer(bi,bj) =  0.000000000000000D+00
 --> objf_atl(bi,bj)    =  0.000000000000000D+00
 --> objf_test(bi,bj)   =  0.121417770564246D+05
 --> objf_tracer(bi,bj) =  0.000000000000000D+00
 --> objf_atl(bi,bj)    =  0.000000000000000D+00
 --> objf_test(bi,bj)   =  0.130041766998370D+05
 --> objf_tracer(bi,bj) =  0.000000000000000D+00
 --> objf_atl(bi,bj)    =  0.000000000000000D+00
 --> objf_test(bi,bj)   =  0.135464983471272D+05
 --> objf_tracer(bi,bj) =  0.000000000000000D+00
 --> objf_atl(bi,bj)    =  0.000000000000000D+00
 --> objf_test(bi,bj)   =  0.714246243705692D+04
 --> objf_tracer(bi,bj) =  0.000000000000000D+00
 --> objf_atl(bi,bj)    =  0.000000000000000D+00
 --> objf_test(bi,bj)   =  0.665337929198073D+04
 --> objf_tracer(bi,bj) =  0.000000000000000D+00
 --> objf_atl(bi,bj)    =  0.000000000000000D+00
 --> objf_test(bi,bj)   =  0.100031724173719D+05
 --> objf_tracer(bi,bj) =  0.000000000000000D+00
 --> objf_atl(bi,bj)    =  0.000000000000000D+00
 --> objf_test(bi,bj)   =  0.867214514073087D+04
 --> objf_tracer(bi,bj) =  0.000000000000000D+00
 --> objf_atl(bi,bj)    =  0.000000000000000D+00
  local fc =  0.112080422809737D+06
 global fc =  0.112080422809737D+06
grad-res -------------------------------
 grad-res     0    2    2    1    1    1    1    1   1.12080465301E+05  1.12080507888E+05  1.12080422810E+05
 grad-res     0    2    2    2    0    1    1    1   4.25389646745E+00  4.25390220407E+00 -1.34855800882E-06
(PID.TID 0000.0001)  ADM  ref_cost_function      =  1.12080465300509E+05
(PID.TID 0000.0001)  ADM  adjoint_gradient       =  4.25389646744665E+00
(PID.TID 0000.0001)  ADM  finite-diff_grad       =  4.25390220407280E+00
 ph-grd  ierr ---------------------------
 ph-grd  ierr =            0 , icomp =            2 , ichknum =            2
 ph-test icomp, ncvarcomp, ichknum            3       55522           3
 ph-grd _loc: bi, bj, icomptest, ichknum            1           1           2           3
 ph-grd -->hit<--            3           1           1           1
(PID.TID 0000.0001)  nRecords = 123 ; filePrec =  64 ; fileIter =     72000
(PID.TID 0000.0001)     nDims =   2 , dims:
(PID.TID 0000.0001)    1: 192   1 192
(PID.TID 0000.0001)    2:  32   1  32
(PID.TID 0000.0001)     nFlds =  11 , nFl3D =   8 , fields:
(PID.TID 0000.0001)  >Uvel    < >GuNm1   < >Vvel    < >GvNm1   < >Theta   < >GtNm1   < >Salt    < >GsNm1   < >EtaN    < >dEtaHdt < >EtaH    <
(PID.TID 0000.0001)   nTimRec =   0 , timeList:
(PID.TID 0000.0001) READ_MFLDS_3D_RL: read field: "Uvel    ", #   1 in fldList, rec=   1
(PID.TID 0000.0001) READ_MFLDS_3D_RL: read field: "Vvel    ", #   3 in fldList, rec=   3
(PID.TID 0000.0001) READ_MFLDS_3D_RL: read field: "Theta   ", #   5 in fldList, rec=   5
(PID.TID 0000.0001) READ_MFLDS_3D_RL: read field: "Salt    ", #   7 in fldList, rec=   7
(PID.TID 0000.0001) READ_MFLDS_3D_RL: read field: "GuNm1   ", #   2 in fldList, rec=   2
(PID.TID 0000.0001) READ_MFLDS_3D_RL: read field: "GvNm1   ", #   4 in fldList, rec=   4
(PID.TID 0000.0001) READ_MFLDS_3D_RL: read field: "EtaN    ", #   9 in fldList, rec= 121
(PID.TID 0000.0001) READ_MFLDS_3D_RL: read field: "dEtaHdt ", #  10 in fldList, rec= 122
(PID.TID 0000.0001) READ_MFLDS_3D_RL: read field: "EtaH    ", #  11 in fldList, rec= 123
(PID.TID 0000.0001) READ_MFLDS_CHECK: - normal end ; reset MFLDS file-name: pickup.0000072000
(PID.TID 0000.0001) // =======================================================
(PID.TID 0000.0001) // Model current state
(PID.TID 0000.0001) // =======================================================
(PID.TID 0000.0001) 
 BB: not converge: i,j,it,hi=  26   9   5   1       72000    0.398435537
 BB: not converge: Tsf, dTsf=  -13.480309430606207      -0.52556488604372531     
 BB: not converge: flxNet,dFlxT=  -73.550946810577869       -27.648387772720866     
 BB: not converge: i,j,it,hi=  15   6  12   1       72000    0.976808171
 BB: not converge: Tsf, dTsf=  -4.0625086296354231        1.2219951917621812     
 BB: not converge: flxNet,dFlxT=   26.749207585963717       -22.820714164491189     
(PID.TID 0000.0001) SOLVE_FOR_PRESSURE: putPmEinXvector =    F
 cg2d: Sum(rhs),rhsMax =   2.21834535136492E+03  2.10925029947484E+01
 cg2d: Sum(rhs),rhsMax =   2.21800836126780E+03  2.12029948530065E+01
 cg2d: Sum(rhs),rhsMax =   2.21766844519117E+03  2.12393113231620E+01
 cg2d: Sum(rhs),rhsMax =   2.21734622888380E+03  2.12960813133591E+01
 cg2d: Sum(rhs),rhsMax =   2.21702018361065E+03  2.13515723820533E+01
 cg2d: Sum(rhs),rhsMax =   2.21669863194234E+03  2.14042534279466E+01
 cg2d: Sum(rhs),rhsMax =   2.21637328677555E+03  2.14537629109561E+01
 cg2d: Sum(rhs),rhsMax =   2.21606587192649E+03  2.14995310132313E+01
 cg2d: Sum(rhs),rhsMax =   2.21577541543776E+03  2.15409705870950E+01
 BB: not converge: i,j,it,hi=  10  11   6   1       72009    0.200000000
 BB: not converge: Tsf, dTsf=  -7.6252266970997766       -5.8413126538717206     
 BB: not converge: flxNet,dFlxT=  -261.01644936526776       -32.148110670561536     
 cg2d: Sum(rhs),rhsMax =   2.21549436843145E+03  2.15774582005251E+01
(PID.TID 0000.0001) Did not write pickup because writePickupAtEnd = FALSE
 --> f_ice     = 0.000000000000000D+00
 --> f_smrarea = 0.000000000000000D+00
 --> f_smrarea = 0.000000000000000D+00
 --> f_smrarea = 0.000000000000000D+00
 --> objf_test(bi,bj)   =  0.997451074729093D+04
 --> objf_tracer(bi,bj) =  0.000000000000000D+00
 --> objf_atl(bi,bj)    =  0.000000000000000D+00
 --> objf_test(bi,bj)   =  0.742919495631098D+04
 --> objf_tracer(bi,bj) =  0.000000000000000D+00
 --> objf_atl(bi,bj)    =  0.000000000000000D+00
 --> objf_test(bi,bj)   =  0.939735963419744D+04
 --> objf_tracer(bi,bj) =  0.000000000000000D+00
 --> objf_atl(bi,bj)    =  0.000000000000000D+00
 --> objf_test(bi,bj)   =  0.778882104255581D+04
 --> objf_tracer(bi,bj) =  0.000000000000000D+00
 --> objf_atl(bi,bj)    =  0.000000000000000D+00
 --> objf_test(bi,bj)   =  0.632699972630802D+04
 --> objf_tracer(bi,bj) =  0.000000000000000D+00
 --> objf_atl(bi,bj)    =  0.000000000000000D+00
 --> objf_test(bi,bj)   =  0.121417770549213D+05
 --> objf_tracer(bi,bj) =  0.000000000000000D+00
 --> objf_atl(bi,bj)    =  0.000000000000000D+00
 --> objf_test(bi,bj)   =  0.130041766993652D+05
 --> objf_tracer(bi,bj) =  0.000000000000000D+00
 --> objf_atl(bi,bj)    =  0.000000000000000D+00
 --> objf_test(bi,bj)   =  0.135464983472945D+05
 --> objf_tracer(bi,bj) =  0.000000000000000D+00
 --> objf_atl(bi,bj)    =  0.000000000000000D+00
 --> objf_test(bi,bj)   =  0.714246243725555D+04
 --> objf_tracer(bi,bj) =  0.000000000000000D+00
 --> objf_atl(bi,bj)    =  0.000000000000000D+00
 --> objf_test(bi,bj)   =  0.665337974575188D+04
 --> objf_tracer(bi,bj) =  0.000000000000000D+00
 --> objf_atl(bi,bj)    =  0.000000000000000D+00
 --> objf_test(bi,bj)   =  0.100031724178686D+05
 --> objf_tracer(bi,bj) =  0.000000000000000D+00
 --> objf_atl(bi,bj)    =  0.000000000000000D+00
 --> objf_test(bi,bj)   =  0.867214854924471D+04
 --> objf_tracer(bi,bj) =  0.000000000000000D+00
 --> objf_atl(bi,bj)    =  0.000000000000000D+00
  local fc =  0.112080501358365D+06
 global fc =  0.112080501358365D+06
 ph-check fcpertplus =    112080.50135836494     
 ph-check fcpertminus =    112080.46530050924     
(PID.TID 0000.0001)  nRecords = 123 ; filePrec =  64 ; fileIter =     72000
(PID.TID 0000.0001)     nDims =   2 , dims:
(PID.TID 0000.0001)    1: 192   1 192
(PID.TID 0000.0001)    2:  32   1  32
(PID.TID 0000.0001)     nFlds =  11 , nFl3D =   8 , fields:
(PID.TID 0000.0001)  >Uvel    < >GuNm1   < >Vvel    < >GvNm1   < >Theta   < >GtNm1   < >Salt    < >GsNm1   < >EtaN    < >dEtaHdt < >EtaH    <
(PID.TID 0000.0001)   nTimRec =   0 , timeList:
(PID.TID 0000.0001) READ_MFLDS_3D_RL: read field: "Uvel    ", #   1 in fldList, rec=   1
(PID.TID 0000.0001) READ_MFLDS_3D_RL: read field: "Vvel    ", #   3 in fldList, rec=   3
(PID.TID 0000.0001) READ_MFLDS_3D_RL: read field: "Theta   ", #   5 in fldList, rec=   5
(PID.TID 0000.0001) READ_MFLDS_3D_RL: read field: "Salt    ", #   7 in fldList, rec=   7
(PID.TID 0000.0001) READ_MFLDS_3D_RL: read field: "GuNm1   ", #   2 in fldList, rec=   2
(PID.TID 0000.0001) READ_MFLDS_3D_RL: read field: "GvNm1   ", #   4 in fldList, rec=   4
(PID.TID 0000.0001) READ_MFLDS_3D_RL: read field: "EtaN    ", #   9 in fldList, rec= 121
(PID.TID 0000.0001) READ_MFLDS_3D_RL: read field: "dEtaHdt ", #  10 in fldList, rec= 122
(PID.TID 0000.0001) READ_MFLDS_3D_RL: read field: "EtaH    ", #  11 in fldList, rec= 123
(PID.TID 0000.0001) READ_MFLDS_CHECK: - normal end ; reset MFLDS file-name: pickup.0000072000
(PID.TID 0000.0001) // =======================================================
(PID.TID 0000.0001) // Model current state
(PID.TID 0000.0001) // =======================================================
(PID.TID 0000.0001) 
 BB: not converge: i,j,it,hi=  26   9   5   1       72000    0.398435537
 BB: not converge: Tsf, dTsf=  -13.480309430606207      -0.52556488604372531     
 BB: not converge: flxNet,dFlxT=  -73.550946810577869       -27.648387772720866     
 BB: not converge: i,j,it,hi=  15   6  12   1       72000    0.976808171
 BB: not converge: Tsf, dTsf=  -4.0625086296354231        1.2219951917621812     
 BB: not converge: flxNet,dFlxT=   26.749207585963717       -22.820714164491189     
(PID.TID 0000.0001) SOLVE_FOR_PRESSURE: putPmEinXvector =    F
 cg2d: Sum(rhs),rhsMax =   2.21834535074265E+03  2.10925029947484E+01
 cg2d: Sum(rhs),rhsMax =   2.21800836003011E+03  2.12029948118983E+01
 cg2d: Sum(rhs),rhsMax =   2.21766844334472E+03  2.12393112844501E+01
 cg2d: Sum(rhs),rhsMax =   2.21734622643519E+03  2.12960813063513E+01
 cg2d: Sum(rhs),rhsMax =   2.21702018056639E+03  2.13515723931690E+01
 cg2d: Sum(rhs),rhsMax =   2.21669862830881E+03  2.14042534395072E+01
 cg2d: Sum(rhs),rhsMax =   2.21637328255903E+03  2.14537629174595E+01
 cg2d: Sum(rhs),rhsMax =   2.21606586713311E+03  2.14995310159391E+01
 cg2d: Sum(rhs),rhsMax =   2.21577541007357E+03  2.15409705877458E+01
 BB: not converge: i,j,it,hi=  10  11   6   1       72009    0.200000000
 BB: not converge: Tsf, dTsf=  -7.6252266970983307       -5.8413126538713103     
 BB: not converge: flxNet,dFlxT=  -261.01644936530079       -32.148110670562488     
 cg2d: Sum(rhs),rhsMax =   2.21549436250203E+03  2.15774581995060E+01
(PID.TID 0000.0001) Did not write pickup because writePickupAtEnd = FALSE
 --> f_ice     = 0.000000000000000D+00
 --> f_smrarea = 0.000000000000000D+00
 --> f_smrarea = 0.000000000000000D+00
 --> f_smrarea = 0.000000000000000D+00
 --> objf_test(bi,bj)   =  0.997444075186108D+04
 --> objf_tracer(bi,bj) =  0.000000000000000D+00
 --> objf_atl(bi,bj)    =  0.000000000000000D+00
 --> objf_test(bi,bj)   =  0.742919495658783D+04
 --> objf_tracer(bi,bj) =  0.000000000000000D+00
 --> objf_atl(bi,bj)    =  0.000000000000000D+00
 --> objf_test(bi,bj)   =  0.939735963328843D+04
 --> objf_tracer(bi,bj) =  0.000000000000000D+00
 --> objf_atl(bi,bj)    =  0.000000000000000D+00
 --> objf_test(bi,bj)   =  0.778882104144383D+04
 --> objf_tracer(bi,bj) =  0.000000000000000D+00
 --> objf_atl(bi,bj)    =  0.000000000000000D+00
 --> objf_test(bi,bj)   =  0.632699972628766D+04
 --> objf_tracer(bi,bj) =  0.000000000000000D+00
 --> objf_atl(bi,bj)    =  0.000000000000000D+00
 --> objf_test(bi,bj)   =  0.121417770566447D+05
 --> objf_tracer(bi,bj) =  0.000000000000000D+00
 --> objf_atl(bi,bj)    =  0.000000000000000D+00
 --> objf_test(bi,bj)   =  0.130041766999064D+05
 --> objf_tracer(bi,bj) =  0.000000000000000D+00
 --> objf_atl(bi,bj)    =  0.000000000000000D+00
 --> objf_test(bi,bj)   =  0.135464983471028D+05
 --> objf_tracer(bi,bj) =  0.000000000000000D+00
 --> objf_atl(bi,bj)    =  0.000000000000000D+00
 --> objf_test(bi,bj)   =  0.714246243702764D+04
 --> objf_tracer(bi,bj) =  0.000000000000000D+00
 --> objf_atl(bi,bj)    =  0.000000000000000D+00
 --> objf_test(bi,bj)   =  0.665337962222492D+04
 --> objf_tracer(bi,bj) =  0.000000000000000D+00
 --> objf_atl(bi,bj)    =  0.000000000000000D+00
 --> objf_test(bi,bj)   =  0.100031724172985D+05
 --> objf_tracer(bi,bj) =  0.000000000000000D+00
 --> objf_atl(bi,bj)    =  0.000000000000000D+00
 --> objf_test(bi,bj)   =  0.867214665106611D+04
 --> objf_tracer(bi,bj) =  0.000000000000000D+00
 --> objf_atl(bi,bj)    =  0.000000000000000D+00
  local fc =  0.112080429340740D+06
 global fc =  0.112080429340740D+06
grad-res -------------------------------
 grad-res     0    3    3    1    1    1    1    1   1.12080465301E+05  1.12080501358E+05  1.12080429341E+05
 grad-res     0    3    3    3    0    1    1    1   3.60085289596E+00  3.60088125162E+00 -7.87470858210E-06
(PID.TID 0000.0001)  ADM  ref_cost_function      =  1.12080465300509E+05
(PID.TID 0000.0001)  ADM  adjoint_gradient       =  3.60085289595572E+00
(PID.TID 0000.0001)  ADM  finite-diff_grad       =  3.60088125162292E+00
 ph-grd  ierr ---------------------------
 ph-grd  ierr =            0 , icomp =            3 , ichknum =            3
 ph-test icomp, ncvarcomp, ichknum            4       55522           4
 ph-grd _loc: bi, bj, icomptest, ichknum            1           1           3           4
 ph-grd -->hit<--            4           1           1           1
(PID.TID 0000.0001)  nRecords = 123 ; filePrec =  64 ; fileIter =     72000
(PID.TID 0000.0001)     nDims =   2 , dims:
(PID.TID 0000.0001)    1: 192   1 192
(PID.TID 0000.0001)    2:  32   1  32
(PID.TID 0000.0001)     nFlds =  11 , nFl3D =   8 , fields:
(PID.TID 0000.0001)  >Uvel    < >GuNm1   < >Vvel    < >GvNm1   < >Theta   < >GtNm1   < >Salt    < >GsNm1   < >EtaN    < >dEtaHdt < >EtaH    <
(PID.TID 0000.0001)   nTimRec =   0 , timeList:
(PID.TID 0000.0001) READ_MFLDS_3D_RL: read field: "Uvel    ", #   1 in fldList, rec=   1
(PID.TID 0000.0001) READ_MFLDS_3D_RL: read field: "Vvel    ", #   3 in fldList, rec=   3
(PID.TID 0000.0001) READ_MFLDS_3D_RL: read field: "Theta   ", #   5 in fldList, rec=   5
(PID.TID 0000.0001) READ_MFLDS_3D_RL: read field: "Salt    ", #   7 in fldList, rec=   7
(PID.TID 0000.0001) READ_MFLDS_3D_RL: read field: "GuNm1   ", #   2 in fldList, rec=   2
(PID.TID 0000.0001) READ_MFLDS_3D_RL: read field: "GvNm1   ", #   4 in fldList, rec=   4
(PID.TID 0000.0001) READ_MFLDS_3D_RL: read field: "EtaN    ", #   9 in fldList, rec= 121
(PID.TID 0000.0001) READ_MFLDS_3D_RL: read field: "dEtaHdt ", #  10 in fldList, rec= 122
(PID.TID 0000.0001) READ_MFLDS_3D_RL: read field: "EtaH    ", #  11 in fldList, rec= 123
(PID.TID 0000.0001) READ_MFLDS_CHECK: - normal end ; reset MFLDS file-name: pickup.0000072000
(PID.TID 0000.0001) // =======================================================
(PID.TID 0000.0001) // Model current state
(PID.TID 0000.0001) // =======================================================
(PID.TID 0000.0001) 
 BB: not converge: i,j,it,hi=  26   9   5   1       72000    0.398435537
 BB: not converge: Tsf, dTsf=  -13.480309430606207      -0.52556488604372531     
 BB: not converge: flxNet,dFlxT=  -73.550946810577869       -27.648387772720866     
 BB: not converge: i,j,it,hi=  15   6  12   1       72000    0.976808171
 BB: not converge: Tsf, dTsf=  -4.0625086296354231        1.2219951917621812     
 BB: not converge: flxNet,dFlxT=   26.749207585963717       -22.820714164491189     
(PID.TID 0000.0001) SOLVE_FOR_PRESSURE: putPmEinXvector =    F
 cg2d: Sum(rhs),rhsMax =   2.21834535147632E+03  2.10925029947484E+01
 cg2d: Sum(rhs),rhsMax =   2.21800836148867E+03  2.12029948579573E+01
 cg2d: Sum(rhs),rhsMax =   2.21766844551957E+03  2.12393113269450E+01
 cg2d: Sum(rhs),rhsMax =   2.21734622931782E+03  2.12960813137936E+01
 cg2d: Sum(rhs),rhsMax =   2.21702018414826E+03  2.13515723811330E+01
 cg2d: Sum(rhs),rhsMax =   2.21669863258161E+03  2.14042534271021E+01
 cg2d: Sum(rhs),rhsMax =   2.21637328751453E+03  2.14537629105012E+01
 cg2d: Sum(rhs),rhsMax =   2.21606587276324E+03  2.14995310130631E+01
 cg2d: Sum(rhs),rhsMax =   2.21577541637032E+03  2.15409705871168E+01
 BB: not converge: i,j,it,hi=  10  11   6   1       72009    0.200000000
 BB: not converge: Tsf, dTsf=  -7.6252266970999312       -5.8413126538717668     
 BB: not converge: flxNet,dFlxT=  -261.01644936526452       -32.148110670561451     
 cg2d: Sum(rhs),rhsMax =   2.21549436945769E+03  2.15774582007560E+01
(PID.TID 0000.0001) Did not write pickup because writePickupAtEnd = FALSE
 --> f_ice     = 0.000000000000000D+00
 --> f_smrarea = 0.000000000000000D+00
 --> f_smrarea = 0.000000000000000D+00
 --> f_smrarea = 0.000000000000000D+00
 --> objf_test(bi,bj)   =  0.997450744533087D+04
 --> objf_tracer(bi,bj) =  0.000000000000000D+00
 --> objf_atl(bi,bj)    =  0.000000000000000D+00
 --> objf_test(bi,bj)   =  0.742919495628192D+04
 --> objf_tracer(bi,bj) =  0.000000000000000D+00
 --> objf_atl(bi,bj)    =  0.000000000000000D+00
 --> objf_test(bi,bj)   =  0.939735963429896D+04
 --> objf_tracer(bi,bj) =  0.000000000000000D+00
 --> objf_atl(bi,bj)    =  0.000000000000000D+00
 --> objf_test(bi,bj)   =  0.778882104267903D+04
 --> objf_tracer(bi,bj) =  0.000000000000000D+00
 --> objf_atl(bi,bj)    =  0.000000000000000D+00
 --> objf_test(bi,bj)   =  0.632699972630915D+04
 --> objf_tracer(bi,bj) =  0.000000000000000D+00
 --> objf_atl(bi,bj)    =  0.000000000000000D+00
 --> objf_test(bi,bj)   =  0.121417770547390D+05
 --> objf_tracer(bi,bj) =  0.000000000000000D+00
 --> objf_atl(bi,bj)    =  0.000000000000000D+00
 --> objf_test(bi,bj)   =  0.130041766993034D+05
 --> objf_tracer(bi,bj) =  0.000000000000000D+00
 --> objf_atl(bi,bj)    =  0.000000000000000D+00
 --> objf_test(bi,bj)   =  0.135464983473172D+05
 --> objf_tracer(bi,bj) =  0.000000000000000D+00
 --> objf_atl(bi,bj)    =  0.000000000000000D+00
 --> objf_test(bi,bj)   =  0.714246243728126D+04
 --> objf_tracer(bi,bj) =  0.000000000000000D+00
 --> objf_atl(bi,bj)    =  0.000000000000000D+00
 --> objf_test(bi,bj)   =  0.665337969023927D+04
 --> objf_tracer(bi,bj) =  0.000000000000000D+00
 --> objf_atl(bi,bj)    =  0.000000000000000D+00
 --> objf_test(bi,bj)   =  0.100031724179356D+05
 --> objf_tracer(bi,bj) =  0.000000000000000D+00
 --> objf_atl(bi,bj)    =  0.000000000000000D+00
 --> objf_test(bi,bj)   =  0.867214765576725D+04
 --> objf_tracer(bi,bj) =  0.000000000000000D+00
 --> objf_atl(bi,bj)    =  0.000000000000000D+00
  local fc =  0.112080497107483D+06
 global fc =  0.112080497107483D+06
 ph-check fcpertplus =    112080.49710748292     
 ph-check fcpertminus =    112080.46530050924     
(PID.TID 0000.0001)  nRecords = 123 ; filePrec =  64 ; fileIter =     72000
(PID.TID 0000.0001)     nDims =   2 , dims:
(PID.TID 0000.0001)    1: 192   1 192
(PID.TID 0000.0001)    2:  32   1  32
(PID.TID 0000.0001)     nFlds =  11 , nFl3D =   8 , fields:
(PID.TID 0000.0001)  >Uvel    < >GuNm1   < >Vvel    < >GvNm1   < >Theta   < >GtNm1   < >Salt    < >GsNm1   < >EtaN    < >dEtaHdt < >EtaH    <
(PID.TID 0000.0001)   nTimRec =   0 , timeList:
(PID.TID 0000.0001) READ_MFLDS_3D_RL: read field: "Uvel    ", #   1 in fldList, rec=   1
(PID.TID 0000.0001) READ_MFLDS_3D_RL: read field: "Vvel    ", #   3 in fldList, rec=   3
(PID.TID 0000.0001) READ_MFLDS_3D_RL: read field: "Theta   ", #   5 in fldList, rec=   5
(PID.TID 0000.0001) READ_MFLDS_3D_RL: read field: "Salt    ", #   7 in fldList, rec=   7
(PID.TID 0000.0001) READ_MFLDS_3D_RL: read field: "GuNm1   ", #   2 in fldList, rec=   2
(PID.TID 0000.0001) READ_MFLDS_3D_RL: read field: "GvNm1   ", #   4 in fldList, rec=   4
(PID.TID 0000.0001) READ_MFLDS_3D_RL: read field: "EtaN    ", #   9 in fldList, rec= 121
(PID.TID 0000.0001) READ_MFLDS_3D_RL: read field: "dEtaHdt ", #  10 in fldList, rec= 122
(PID.TID 0000.0001) READ_MFLDS_3D_RL: read field: "EtaH    ", #  11 in fldList, rec= 123
(PID.TID 0000.0001) READ_MFLDS_CHECK: - normal end ; reset MFLDS file-name: pickup.0000072000
(PID.TID 0000.0001) // =======================================================
(PID.TID 0000.0001) // Model current state
(PID.TID 0000.0001) // =======================================================
(PID.TID 0000.0001) 
 BB: not converge: i,j,it,hi=  26   9   5   1       72000    0.398435537
 BB: not converge: Tsf, dTsf=  -13.480309430606207      -0.52556488604372531     
 BB: not converge: flxNet,dFlxT=  -73.550946810577869       -27.648387772720866     
 BB: not converge: i,j,it,hi=  15   6  12   1       72000    0.976808171
 BB: not converge: Tsf, dTsf=  -4.0625086296354231        1.2219951917621812     
 BB: not converge: flxNet,dFlxT=   26.749207585963717       -22.820714164491189     
(PID.TID 0000.0001) SOLVE_FOR_PRESSURE: putPmEinXvector =    F
 cg2d: Sum(rhs),rhsMax =   2.21834535063126E+03  2.10925029947484E+01
 cg2d: Sum(rhs),rhsMax =   2.21800835980924E+03  2.12029948069500E+01
 cg2d: Sum(rhs),rhsMax =   2.21766844301630E+03  2.12393112806665E+01
 cg2d: Sum(rhs),rhsMax =   2.21734622600114E+03  2.12960813059201E+01
 cg2d: Sum(rhs),rhsMax =   2.21702018002873E+03  2.13515723940924E+01
 cg2d: Sum(rhs),rhsMax =   2.21669862766948E+03  2.14042534403414E+01
 cg2d: Sum(rhs),rhsMax =   2.21637328181998E+03  2.14537629179040E+01
 cg2d: Sum(rhs),rhsMax =   2.21606586629625E+03  2.14995310161003E+01
 cg2d: Sum(rhs),rhsMax =   2.21577540914089E+03  2.15409705877211E+01
 BB: not converge: i,j,it,hi=  10  11   6   1       72009    0.200000000
 BB: not converge: Tsf, dTsf=  -7.6252266970981859       -5.8413126538712739     
 BB: not converge: flxNet,dFlxT=  -261.01644936530465       -32.148110670562616     
 cg2d: Sum(rhs),rhsMax =   2.21549436147563E+03  2.15774581992747E+01
(PID.TID 0000.0001) Did not write pickup because writePickupAtEnd = FALSE
 --> f_ice     = 0.000000000000000D+00
 --> f_smrarea = 0.000000000000000D+00
 --> f_smrarea = 0.000000000000000D+00
 --> f_smrarea = 0.000000000000000D+00
 --> objf_test(bi,bj)   =  0.997444404917633D+04
 --> objf_tracer(bi,bj) =  0.000000000000000D+00
 --> objf_atl(bi,bj)    =  0.000000000000000D+00
 --> objf_test(bi,bj)   =  0.742919495661691D+04
 --> objf_tracer(bi,bj) =  0.000000000000000D+00
 --> objf_atl(bi,bj)    =  0.000000000000000D+00
 --> objf_test(bi,bj)   =  0.939735963318690D+04
 --> objf_tracer(bi,bj) =  0.000000000000000D+00
 --> objf_atl(bi,bj)    =  0.000000000000000D+00
 --> objf_test(bi,bj)   =  0.778882104132059D+04
 --> objf_tracer(bi,bj) =  0.000000000000000D+00
 --> objf_atl(bi,bj)    =  0.000000000000000D+00
 --> objf_test(bi,bj)   =  0.632699972628639D+04
 --> objf_tracer(bi,bj) =  0.000000000000000D+00
 --> objf_atl(bi,bj)    =  0.000000000000000D+00
 --> objf_test(bi,bj)   =  0.121417770568270D+05
 --> objf_tracer(bi,bj) =  0.000000000000000D+00
 --> objf_atl(bi,bj)    =  0.000000000000000D+00
 --> objf_test(bi,bj)   =  0.130041766999681D+05
 --> objf_tracer(bi,bj) =  0.000000000000000D+00
 --> objf_atl(bi,bj)    =  0.000000000000000D+00
 --> objf_test(bi,bj)   =  0.135464983470802D+05
 --> objf_tracer(bi,bj) =  0.000000000000000D+00
 --> objf_atl(bi,bj)    =  0.000000000000000D+00
 --> objf_test(bi,bj)   =  0.714246243700193D+04
 --> objf_tracer(bi,bj) =  0.000000000000000D+00
 --> objf_atl(bi,bj)    =  0.000000000000000D+00
 --> objf_test(bi,bj)   =  0.665337967772897D+04
 --> objf_tracer(bi,bj) =  0.000000000000000D+00
 --> objf_atl(bi,bj)    =  0.000000000000000D+00
 --> objf_test(bi,bj)   =  0.100031724172315D+05
 --> objf_tracer(bi,bj) =  0.000000000000000D+00
 --> objf_atl(bi,bj)    =  0.000000000000000D+00
 --> objf_test(bi,bj)   =  0.867214754416021D+04
 --> objf_tracer(bi,bj) =  0.000000000000000D+00
 --> objf_atl(bi,bj)    =  0.000000000000000D+00
  local fc =  0.112080433586585D+06
 global fc =  0.112080433586585D+06
grad-res -------------------------------
 grad-res     0    4    4    1    1    1    1    1   1.12080465301E+05  1.12080497107E+05  1.12080433587E+05
 grad-res     0    4    4    4    0    1    1    1   3.17599337517E+00  3.17604489610E+00 -1.62219883313E-05
(PID.TID 0000.0001)  ADM  ref_cost_function      =  1.12080465300509E+05
(PID.TID 0000.0001)  ADM  adjoint_gradient       =  3.17599337517201E+00
(PID.TID 0000.0001)  ADM  finite-diff_grad       =  3.17604489609948E+00
 ph-grd  ierr ---------------------------
 ph-grd  ierr =            0 , icomp =            4 , ichknum =            4
(PID.TID 0000.0001) 
(PID.TID 0000.0001) // =======================================================
(PID.TID 0000.0001) // Gradient check results  >>> START <<<
(PID.TID 0000.0001) // =======================================================
(PID.TID 0000.0001) 
(PID.TID 0000.0001)  EPS =   1.000000E-02
(PID.TID 0000.0001) 
(PID.TID 0000.0001) grdchk output h.p:  Id Itile Jtile LAYER   bi   bj   X(Id)           X(Id)+/-EPS
(PID.TID 0000.0001) grdchk output h.c:  Id  FC                   FC1                  FC2
(PID.TID 0000.0001) grdchk output h.g:  Id     FC1-FC2/(2*EPS)      ADJ GRAD(FC)         1-FDGRD/ADGRD
(PID.TID 0000.0001) 
(PID.TID 0000.0001) grdchk output (p):   1     1     1     1    1    1   0.000000000E+00 -1.000000000E-02
(PID.TID 0000.0001) grdchk output (c):   1  1.1208046530051E+05  1.1208050736686E+05  1.1208042329164E+05
(PID.TID 0000.0001) grdchk output (g):   1     4.2037610619445E+00  4.2046401711734E+00  2.0908072820391E-04
(PID.TID 0000.0001) 
(PID.TID 0000.0001) grdchk output (p):   2     2     1     1    1    1   0.000000000E+00 -1.000000000E-02
(PID.TID 0000.0001) grdchk output (c):   2  1.1208046530051E+05  1.1208050788778E+05  1.1208042280974E+05
(PID.TID 0000.0001) grdchk output (g):   2     4.2539022040728E+00  4.2538964674467E+00 -1.3485580088179E-06
(PID.TID 0000.0001) 
(PID.TID 0000.0001) grdchk output (p):   3     3     1     1    1    1   0.000000000E+00 -1.000000000E-02
(PID.TID 0000.0001) grdchk output (c):   3  1.1208046530051E+05  1.1208050135836E+05  1.1208042934074E+05
(PID.TID 0000.0001) grdchk output (g):   3     3.6008812516229E+00  3.6008528959557E+00 -7.8747085821007E-06
(PID.TID 0000.0001) 
(PID.TID 0000.0001) grdchk output (p):   4     4     1     1    1    1   0.000000000E+00 -1.000000000E-02
(PID.TID 0000.0001) grdchk output (c):   4  1.1208046530051E+05  1.1208049710748E+05  1.1208043358659E+05
(PID.TID 0000.0001) grdchk output (g):   4     3.1760448960995E+00  3.1759933751720E+00 -1.6221988331289E-05
(PID.TID 0000.0001) 
(PID.TID 0000.0001) grdchk  summary  :  RMS of    4 ratios =  1.0493061213923E-04
(PID.TID 0000.0001) 
(PID.TID 0000.0001) // =======================================================
(PID.TID 0000.0001) // Gradient check results  >>> END <<<
(PID.TID 0000.0001) // =======================================================
(PID.TID 0000.0001) 
(PID.TID 0000.0001)   Seconds in section "ALL                    [THE_MODEL_MAIN]":
(PID.TID 0000.0001)           User time:   356.41000000000003
(PID.TID 0000.0001)         System time:  0.67000000000000004
(PID.TID 0000.0001)     Wall clock time:   358.33756208419800
(PID.TID 0000.0001)          No. starts:           1
(PID.TID 0000.0001)           No. stops:           1
(PID.TID 0000.0001)   Seconds in section "INITIALISE_FIXED       [THE_MODEL_MAIN]":
(PID.TID 0000.0001)           User time:  0.38000000000000000
(PID.TID 0000.0001)         System time:  4.00000000000000008E-002
(PID.TID 0000.0001)     Wall clock time:  0.47875404357910156
(PID.TID 0000.0001)          No. starts:           1
(PID.TID 0000.0001)           No. stops:           1
(PID.TID 0000.0001)   Seconds in section "ADTHE_MAIN_LOOP          [ADJOINT RUN]":
(PID.TID 0000.0001)           User time:   182.76000000000002
(PID.TID 0000.0001)         System time:  0.53999999999999992
(PID.TID 0000.0001)     Wall clock time:   184.06747007369995
(PID.TID 0000.0001)          No. starts:           1
(PID.TID 0000.0001)           No. stops:           1
(PID.TID 0000.0001)   Seconds in section "UPDATE_R_STAR       [FORWARD_STEP]":
(PID.TID 0000.0001)           User time:   5.9999999999996589
(PID.TID 0000.0001)         System time:   0.0000000000000000
(PID.TID 0000.0001)     Wall clock time:   6.0500550270080566
(PID.TID 0000.0001)          No. starts:         200
(PID.TID 0000.0001)           No. stops:         200
(PID.TID 0000.0001)   Seconds in section "LOAD_FIELDS_DRIVER  [FORWARD_STEP]":
(PID.TID 0000.0001)           User time:   2.5400000000000205
(PID.TID 0000.0001)         System time:  3.00000000000000266E-002
(PID.TID 0000.0001)     Wall clock time:   2.4970521926879883
(PID.TID 0000.0001)          No. starts:         100
(PID.TID 0000.0001)           No. stops:         100
(PID.TID 0000.0001)   Seconds in section "EXF_GETFORCING     [LOAD_FLDS_DRIVER]":
(PID.TID 0000.0001)           User time:   2.7800000000000296
(PID.TID 0000.0001)         System time:  3.00000000000000266E-002
(PID.TID 0000.0001)     Wall clock time:   2.7460494041442871
(PID.TID 0000.0001)          No. starts:         110
(PID.TID 0000.0001)           No. stops:         110
(PID.TID 0000.0001)   Seconds in section "I/O (WRITE)        [ADJOINT LOOP]":
(PID.TID 0000.0001)           User time:  0.50000000000000000
(PID.TID 0000.0001)         System time:  1.99999999999999067E-002
(PID.TID 0000.0001)     Wall clock time:  0.61049270629882813
(PID.TID 0000.0001)          No. starts:         412
(PID.TID 0000.0001)           No. stops:         412
(PID.TID 0000.0001)   Seconds in section "DO_ATMOSPHERIC_PHYS [FORWARD_STEP]":
(PID.TID 0000.0001)           User time:   0.0000000000000000
(PID.TID 0000.0001)         System time:   0.0000000000000000
(PID.TID 0000.0001)     Wall clock time:  9.23633575439453125E-004
(PID.TID 0000.0001)          No. starts:         100
(PID.TID 0000.0001)           No. stops:         100
(PID.TID 0000.0001)   Seconds in section "DO_OCEANIC_PHYS     [FORWARD_STEP]":
(PID.TID 0000.0001)           User time:   31.059999999999889
(PID.TID 0000.0001)         System time:   0.0000000000000000
(PID.TID 0000.0001)     Wall clock time:   31.113034009933472
(PID.TID 0000.0001)          No. starts:         100
(PID.TID 0000.0001)           No. stops:         100
(PID.TID 0000.0001)   Seconds in section "THSICE_MAIN     [DO_OCEANIC_PHYS]":
(PID.TID 0000.0001)           User time:   1.3600000000000136
(PID.TID 0000.0001)         System time:   0.0000000000000000
(PID.TID 0000.0001)     Wall clock time:   1.2989220619201660
(PID.TID 0000.0001)          No. starts:         110
(PID.TID 0000.0001)           No. stops:         110
(PID.TID 0000.0001)   Seconds in section "DYNAMICS            [FORWARD_STEP]":
(PID.TID 0000.0001)           User time:   57.370000000000289
(PID.TID 0000.0001)         System time:   0.0000000000000000
(PID.TID 0000.0001)     Wall clock time:   57.492662906646729
(PID.TID 0000.0001)          No. starts:         100
(PID.TID 0000.0001)           No. stops:         100
(PID.TID 0000.0001)   Seconds in section "SOLVE_FOR_PRESSURE  [FORWARD_STEP]":
(PID.TID 0000.0001)           User time:   20.630000000000109
(PID.TID 0000.0001)         System time:   0.0000000000000000
(PID.TID 0000.0001)     Wall clock time:   20.666376113891602
(PID.TID 0000.0001)          No. starts:         100
(PID.TID 0000.0001)           No. stops:         100
(PID.TID 0000.0001)   Seconds in section "MOM_CORRECTION_STEP [FORWARD_STEP]":
(PID.TID 0000.0001)           User time:   1.4200000000000159
(PID.TID 0000.0001)         System time:   0.0000000000000000
(PID.TID 0000.0001)     Wall clock time:   1.4869840145111084
(PID.TID 0000.0001)          No. starts:         100
(PID.TID 0000.0001)           No. stops:         100
(PID.TID 0000.0001)   Seconds in section "INTEGR_CONTINUITY   [FORWARD_STEP]":
(PID.TID 0000.0001)           User time:   3.5899999999999750
(PID.TID 0000.0001)         System time:   0.0000000000000000
(PID.TID 0000.0001)     Wall clock time:   3.5386891365051270
(PID.TID 0000.0001)          No. starts:         100
(PID.TID 0000.0001)           No. stops:         100
(PID.TID 0000.0001)   Seconds in section "CALC_R_STAR         [FORWARD_STEP]":
(PID.TID 0000.0001)           User time:  0.56999999999999318
(PID.TID 0000.0001)         System time:   0.0000000000000000
(PID.TID 0000.0001)     Wall clock time:  0.63201665878295898
(PID.TID 0000.0001)          No. starts:         100
(PID.TID 0000.0001)           No. stops:         100
(PID.TID 0000.0001)   Seconds in section "BLOCKING_EXCHANGES  [FORWARD_STEP]":
(PID.TID 0000.0001)           User time:   3.8500000000001364
(PID.TID 0000.0001)         System time:   0.0000000000000000
(PID.TID 0000.0001)     Wall clock time:   3.7043263912200928
(PID.TID 0000.0001)          No. starts:         200
(PID.TID 0000.0001)           No. stops:         200
(PID.TID 0000.0001)   Seconds in section "THERMODYNAMICS      [FORWARD_STEP]":
(PID.TID 0000.0001)           User time:   78.879999999999882
(PID.TID 0000.0001)         System time:   0.0000000000000000
(PID.TID 0000.0001)     Wall clock time:   79.073648452758789
(PID.TID 0000.0001)          No. starts:         100
(PID.TID 0000.0001)           No. stops:         100
(PID.TID 0000.0001)   Seconds in section "TRC_CORRECTION_STEP [FORWARD_STEP]":
(PID.TID 0000.0001)           User time:  0.67999999999989313
(PID.TID 0000.0001)         System time:   0.0000000000000000
(PID.TID 0000.0001)     Wall clock time:  0.77441811561584473
(PID.TID 0000.0001)          No. starts:         100
(PID.TID 0000.0001)           No. stops:         100
(PID.TID 0000.0001)   Seconds in section "MONITOR             [FORWARD_STEP]":
(PID.TID 0000.0001)           User time:   1.6000000000000227
(PID.TID 0000.0001)         System time:   0.0000000000000000
(PID.TID 0000.0001)     Wall clock time:   1.5995595455169678
(PID.TID 0000.0001)          No. starts:         100
(PID.TID 0000.0001)           No. stops:         100
(PID.TID 0000.0001)   Seconds in section "COST_TILE           [FORWARD_STEP]":
(PID.TID 0000.0001)           User time:   2.7199999999999704
(PID.TID 0000.0001)         System time:   0.0000000000000000
(PID.TID 0000.0001)     Wall clock time:   2.7357649803161621
(PID.TID 0000.0001)          No. starts:         100
(PID.TID 0000.0001)           No. stops:         100
(PID.TID 0000.0001)   Seconds in section "DO_THE_MODEL_IO     [FORWARD_STEP]":
(PID.TID 0000.0001)           User time:  0.14999999999997726
(PID.TID 0000.0001)         System time:  3.00000000000000266E-002
(PID.TID 0000.0001)     Wall clock time:  0.24791574478149414
(PID.TID 0000.0001)          No. starts:         100
(PID.TID 0000.0001)           No. stops:         100
(PID.TID 0000.0001)   Seconds in section "DO_WRITE_PICKUP     [FORWARD_STEP]":
(PID.TID 0000.0001)           User time:  4.99999999999545253E-002
(PID.TID 0000.0001)         System time:  1.00000000000000089E-002
(PID.TID 0000.0001)     Wall clock time:  5.58824539184570313E-002
(PID.TID 0000.0001)          No. starts:         100
(PID.TID 0000.0001)           No. stops:         100
(PID.TID 0000.0001)   Seconds in section "GRDCHK_MAIN         [THE_MODEL_MAIN]":
(PID.TID 0000.0001)           User time:   173.27000000000001
(PID.TID 0000.0001)         System time:  9.00000000000000799E-002
(PID.TID 0000.0001)     Wall clock time:   173.79127192497253
(PID.TID 0000.0001)          No. starts:           1
(PID.TID 0000.0001)           No. stops:           1
(PID.TID 0000.0001)   Seconds in section "INITIALISE_VARIA    [THE_MAIN_LOOP]":
(PID.TID 0000.0001)           User time:   2.9900000000000091
(PID.TID 0000.0001)         System time:  3.00000000000000266E-002
(PID.TID 0000.0001)     Wall clock time:   3.0306100845336914
(PID.TID 0000.0001)          No. starts:           8
(PID.TID 0000.0001)           No. stops:           8
(PID.TID 0000.0001)   Seconds in section "MAIN LOOP           [THE_MAIN_LOOP]":
(PID.TID 0000.0001)           User time:   170.01999999999998
(PID.TID 0000.0001)         System time:  5.00000000000000444E-002
(PID.TID 0000.0001)     Wall clock time:   170.48262834548950
(PID.TID 0000.0001)          No. starts:           8
(PID.TID 0000.0001)           No. stops:           8
(PID.TID 0000.0001)   Seconds in section "FORWARD_STEP        [THE_MAIN_LOOP]":
(PID.TID 0000.0001)           User time:   167.47000000000003
(PID.TID 0000.0001)         System time:  3.00000000000000266E-002
(PID.TID 0000.0001)     Wall clock time:   167.85522413253784
(PID.TID 0000.0001)          No. starts:          80
(PID.TID 0000.0001)           No. stops:          80
(PID.TID 0000.0001)   Seconds in section "COST_FINAL         [ADJOINT SPIN-DOWN]":
(PID.TID 0000.0001)           User time:  7.99999999999840838E-002
(PID.TID 0000.0001)         System time:  2.00000000000000178E-002
(PID.TID 0000.0001)     Wall clock time:  9.16254520416259766E-002
(PID.TID 0000.0001)          No. starts:           8
(PID.TID 0000.0001)           No. stops:           8
(PID.TID 0000.0001) // ======================================================
(PID.TID 0000.0001) // Tile <-> Tile communication statistics
(PID.TID 0000.0001) // ======================================================
(PID.TID 0000.0001) // o Tile number: 000001
(PID.TID 0000.0001) //         No. X exchanges =              0
(PID.TID 0000.0001) //            Max. X spins =              0
(PID.TID 0000.0001) //            Min. X spins =     1000000000
(PID.TID 0000.0001) //          Total. X spins =              0
(PID.TID 0000.0001) //            Avg. X spins =       0.00E+00
(PID.TID 0000.0001) //         No. Y exchanges =              0
(PID.TID 0000.0001) //            Max. Y spins =              0
(PID.TID 0000.0001) //            Min. Y spins =     1000000000
(PID.TID 0000.0001) //          Total. Y spins =              0
(PID.TID 0000.0001) //            Avg. Y spins =       0.00E+00
(PID.TID 0000.0001) // o Tile number: 000002
(PID.TID 0000.0001) //         No. X exchanges =              0
(PID.TID 0000.0001) //            Max. X spins =              0
(PID.TID 0000.0001) //            Min. X spins =     1000000000
(PID.TID 0000.0001) //          Total. X spins =              0
(PID.TID 0000.0001) //            Avg. X spins =       0.00E+00
(PID.TID 0000.0001) //         No. Y exchanges =              0
(PID.TID 0000.0001) //            Max. Y spins =              0
(PID.TID 0000.0001) //            Min. Y spins =     1000000000
(PID.TID 0000.0001) //          Total. Y spins =              0
(PID.TID 0000.0001) //            Avg. Y spins =       0.00E+00
(PID.TID 0000.0001) // o Tile number: 000003
(PID.TID 0000.0001) //         No. X exchanges =              0
(PID.TID 0000.0001) //            Max. X spins =              0
(PID.TID 0000.0001) //            Min. X spins =     1000000000
(PID.TID 0000.0001) //          Total. X spins =              0
(PID.TID 0000.0001) //            Avg. X spins =       0.00E+00
(PID.TID 0000.0001) //         No. Y exchanges =              0
(PID.TID 0000.0001) //            Max. Y spins =              0
(PID.TID 0000.0001) //            Min. Y spins =     1000000000
(PID.TID 0000.0001) //          Total. Y spins =              0
(PID.TID 0000.0001) //            Avg. Y spins =       0.00E+00
(PID.TID 0000.0001) // o Tile number: 000004
(PID.TID 0000.0001) //         No. X exchanges =              0
(PID.TID 0000.0001) //            Max. X spins =              0
(PID.TID 0000.0001) //            Min. X spins =     1000000000
(PID.TID 0000.0001) //          Total. X spins =              0
(PID.TID 0000.0001) //            Avg. X spins =       0.00E+00
(PID.TID 0000.0001) //         No. Y exchanges =              0
(PID.TID 0000.0001) //            Max. Y spins =              0
(PID.TID 0000.0001) //            Min. Y spins =     1000000000
(PID.TID 0000.0001) //          Total. Y spins =              0
(PID.TID 0000.0001) //            Avg. Y spins =       0.00E+00
(PID.TID 0000.0001) // o Tile number: 000005
(PID.TID 0000.0001) //         No. X exchanges =              0
(PID.TID 0000.0001) //            Max. X spins =              0
(PID.TID 0000.0001) //            Min. X spins =     1000000000
(PID.TID 0000.0001) //          Total. X spins =              0
(PID.TID 0000.0001) //            Avg. X spins =       0.00E+00
(PID.TID 0000.0001) //         No. Y exchanges =              0
(PID.TID 0000.0001) //            Max. Y spins =              0
(PID.TID 0000.0001) //            Min. Y spins =     1000000000
(PID.TID 0000.0001) //          Total. Y spins =              0
(PID.TID 0000.0001) //            Avg. Y spins =       0.00E+00
(PID.TID 0000.0001) // o Tile number: 000006
(PID.TID 0000.0001) //         No. X exchanges =              0
(PID.TID 0000.0001) //            Max. X spins =              0
(PID.TID 0000.0001) //            Min. X spins =     1000000000
(PID.TID 0000.0001) //          Total. X spins =              0
(PID.TID 0000.0001) //            Avg. X spins =       0.00E+00
(PID.TID 0000.0001) //         No. Y exchanges =              0
(PID.TID 0000.0001) //            Max. Y spins =              0
(PID.TID 0000.0001) //            Min. Y spins =     1000000000
(PID.TID 0000.0001) //          Total. Y spins =              0
(PID.TID 0000.0001) //            Avg. Y spins =       0.00E+00
(PID.TID 0000.0001) // o Tile number: 000007
(PID.TID 0000.0001) //         No. X exchanges =              0
(PID.TID 0000.0001) //            Max. X spins =              0
(PID.TID 0000.0001) //            Min. X spins =     1000000000
(PID.TID 0000.0001) //          Total. X spins =              0
(PID.TID 0000.0001) //            Avg. X spins =       0.00E+00
(PID.TID 0000.0001) //         No. Y exchanges =              0
(PID.TID 0000.0001) //            Max. Y spins =              0
(PID.TID 0000.0001) //            Min. Y spins =     1000000000
(PID.TID 0000.0001) //          Total. Y spins =              0
(PID.TID 0000.0001) //            Avg. Y spins =       0.00E+00
(PID.TID 0000.0001) // o Tile number: 000008
(PID.TID 0000.0001) //         No. X exchanges =              0
(PID.TID 0000.0001) //            Max. X spins =              0
(PID.TID 0000.0001) //            Min. X spins =     1000000000
(PID.TID 0000.0001) //          Total. X spins =              0
(PID.TID 0000.0001) //            Avg. X spins =       0.00E+00
(PID.TID 0000.0001) //         No. Y exchanges =              0
(PID.TID 0000.0001) //            Max. Y spins =              0
(PID.TID 0000.0001) //            Min. Y spins =     1000000000
(PID.TID 0000.0001) //          Total. Y spins =              0
(PID.TID 0000.0001) //            Avg. Y spins =       0.00E+00
(PID.TID 0000.0001) // o Tile number: 000009
(PID.TID 0000.0001) //         No. X exchanges =              0
(PID.TID 0000.0001) //            Max. X spins =              0
(PID.TID 0000.0001) //            Min. X spins =     1000000000
(PID.TID 0000.0001) //          Total. X spins =              0
(PID.TID 0000.0001) //            Avg. X spins =       0.00E+00
(PID.TID 0000.0001) //         No. Y exchanges =              0
(PID.TID 0000.0001) //            Max. Y spins =              0
(PID.TID 0000.0001) //            Min. Y spins =     1000000000
(PID.TID 0000.0001) //          Total. Y spins =              0
(PID.TID 0000.0001) //            Avg. Y spins =       0.00E+00
(PID.TID 0000.0001) // o Tile number: 000010
(PID.TID 0000.0001) //         No. X exchanges =              0
(PID.TID 0000.0001) //            Max. X spins =              0
(PID.TID 0000.0001) //            Min. X spins =     1000000000
(PID.TID 0000.0001) //          Total. X spins =              0
(PID.TID 0000.0001) //            Avg. X spins =       0.00E+00
(PID.TID 0000.0001) //         No. Y exchanges =              0
(PID.TID 0000.0001) //            Max. Y spins =              0
(PID.TID 0000.0001) //            Min. Y spins =     1000000000
(PID.TID 0000.0001) //          Total. Y spins =              0
(PID.TID 0000.0001) //            Avg. Y spins =       0.00E+00
(PID.TID 0000.0001) // o Tile number: 000011
(PID.TID 0000.0001) //         No. X exchanges =              0
(PID.TID 0000.0001) //            Max. X spins =              0
(PID.TID 0000.0001) //            Min. X spins =     1000000000
(PID.TID 0000.0001) //          Total. X spins =              0
(PID.TID 0000.0001) //            Avg. X spins =       0.00E+00
(PID.TID 0000.0001) //         No. Y exchanges =              0
(PID.TID 0000.0001) //            Max. Y spins =              0
(PID.TID 0000.0001) //            Min. Y spins =     1000000000
(PID.TID 0000.0001) //          Total. Y spins =              0
(PID.TID 0000.0001) //            Avg. Y spins =       0.00E+00
(PID.TID 0000.0001) // o Tile number: 000012
(PID.TID 0000.0001) //         No. X exchanges =              0
(PID.TID 0000.0001) //            Max. X spins =              0
(PID.TID 0000.0001) //            Min. X spins =     1000000000
(PID.TID 0000.0001) //          Total. X spins =              0
(PID.TID 0000.0001) //            Avg. X spins =       0.00E+00
(PID.TID 0000.0001) //         No. Y exchanges =              0
(PID.TID 0000.0001) //            Max. Y spins =              0
(PID.TID 0000.0001) //            Min. Y spins =     1000000000
(PID.TID 0000.0001) //          Total. Y spins =              0
(PID.TID 0000.0001) //            Avg. Y spins =       0.00E+00
(PID.TID 0000.0001) // o Thread number: 000001
(PID.TID 0000.0001) //            No. barriers =         116596
(PID.TID 0000.0001) //      Max. barrier spins =              1
(PID.TID 0000.0001) //      Min. barrier spins =              1
(PID.TID 0000.0001) //     Total barrier spins =         116596
(PID.TID 0000.0001) //      Avg. barrier spins =       1.00E+00
PROGRAM MAIN: Execution ended Normally
