(PID.TID 0000.0001) 
(PID.TID 0000.0001) // ======================================================
(PID.TID 0000.0001) //                      MITgcm UV
(PID.TID 0000.0001) //                      =========
(PID.TID 0000.0001) // ======================================================
(PID.TID 0000.0001) // execution environment starting up...
(PID.TID 0000.0001) 
(PID.TID 0000.0001) // MITgcmUV version:  checkpoint58n_post
(PID.TID 0000.0001) // Build user:        jmc
(PID.TID 0000.0001) // Build host:        faulks
(PID.TID 0000.0001) // Build date:        Wed Aug 23 11:14:36 EDT 2006
(PID.TID 0000.0001) 
(PID.TID 0000.0001) // =======================================================
(PID.TID 0000.0001) // Execution Environment parameter file "eedata"
(PID.TID 0000.0001) // =======================================================
(PID.TID 0000.0001) ># Example "eedata" file
(PID.TID 0000.0001) ># Lines beginning "#" are comments
(PID.TID 0000.0001) ># nTx - No. threads per process in X
(PID.TID 0000.0001) ># nTy - No. threads per process in Y
(PID.TID 0000.0001) > &EEPARMS
(PID.TID 0000.0001) > useCubedSphereExchange=.TRUE.,
(PID.TID 0000.0001) > nTx=1,
(PID.TID 0000.0001) > nTy=1,
(PID.TID 0000.0001) > &
(PID.TID 0000.0001) ># Note: Some systems use & as the
(PID.TID 0000.0001) ># namelist terminator. Other systems
(PID.TID 0000.0001) ># use a / character (as shown here).
(PID.TID 0000.0001) 
(PID.TID 0000.0001) // =======================================================
(PID.TID 0000.0001) // Computational Grid Specification ( see files "SIZE.h" )
(PID.TID 0000.0001) //                                  ( and "eedata"       )
(PID.TID 0000.0001) // =======================================================
(PID.TID 0000.0001)      nPx =    1 ; /* No. processes in X */
(PID.TID 0000.0001)      nPy =    1 ; /* No. processes in Y */
(PID.TID 0000.0001)      nSx =    6 ; /* No. tiles in X per process */
(PID.TID 0000.0001)      nSy =    1 ; /* No. tiles in Y per process */
(PID.TID 0000.0001)      sNx =   32 ; /* Tile size in X */
(PID.TID 0000.0001)      sNy =   32 ; /* Tile size in Y */
(PID.TID 0000.0001)      OLx =    3 ; /* Tile overlap distance in X */
(PID.TID 0000.0001)      OLy =    3 ; /* Tile overlap distance in Y */
(PID.TID 0000.0001)      nTx =    1 ; /* No. threads in X per process */
(PID.TID 0000.0001)      nTy =    1 ; /* No. threads in Y per process */
(PID.TID 0000.0001)       Nr =   15 ; /* No. levels in the vertical   */
(PID.TID 0000.0001)       nX =  192 ; /* Total domain size in X ( = nPx*nSx*sNx ) */
(PID.TID 0000.0001)       nY =   32 ; /* Total domain size in Y ( = nPy*nSy*sNy ) */
(PID.TID 0000.0001)   nTiles =    6 ; /* Total no. tiles per process ( = nSx*nSy ) */
(PID.TID 0000.0001)   nProcs =    1 ; /* Total no. processes ( = nPx*nPy ) */
(PID.TID 0000.0001) nThreads =    1 ; /* Total no. threads per process ( = nTx*nTy ) */
(PID.TID 0000.0001) usingMPI =    F ; /* Flag used to control whether MPI is in use */
(PID.TID 0000.0001)                   /*  note: To execute a program with MPI calls */
(PID.TID 0000.0001)                   /*  it must be launched appropriately e.g     */
(PID.TID 0000.0001)                   /*  "mpirun -np 64 ......"                    */
(PID.TID 0000.0001) useCoupler=   F ; /* Flag used to control communications with */
(PID.TID 0000.0001)                   /*  other model components, through a coupler */
(PID.TID 0000.0001) 
(PID.TID 0000.0001) // ======================================================
(PID.TID 0000.0001) // Mapping of tiles to threads
(PID.TID 0000.0001) // ======================================================
(PID.TID 0000.0001) // -o- Thread   1, tiles (   1:   6,   1:   1)
(PID.TID 0000.0001) 
(PID.TID 0000.0001) // ======================================================
(PID.TID 0000.0001) // Tile <-> Tile connectvity table
(PID.TID 0000.0001) // ======================================================
(PID.TID 0000.0001) // Tile number: 000001 (process no. = 000001)
(PID.TID 0000.0001) //        WEST: Tile = 000006, Process = 000001, Comm = put
(PID.TID 0000.0001) //                bi = 000006, bj = 000001
(PID.TID 0000.0001) //        EAST: Tile = 000002, Process = 000001, Comm = put
(PID.TID 0000.0001) //                bi = 000002, bj = 000001
(PID.TID 0000.0001) //       SOUTH: Tile = 000001, Process = 000001, Comm = put
(PID.TID 0000.0001) //                bi = 000001, bj = 000001
(PID.TID 0000.0001) //       NORTH: Tile = 000001, Process = 000001, Comm = put
(PID.TID 0000.0001) //                bi = 000001, bj = 000001
(PID.TID 0000.0001) // Tile number: 000002 (process no. = 000001)
(PID.TID 0000.0001) //        WEST: Tile = 000001, Process = 000001, Comm = put
(PID.TID 0000.0001) //                bi = 000001, bj = 000001
(PID.TID 0000.0001) //        EAST: Tile = 000003, Process = 000001, Comm = put
(PID.TID 0000.0001) //                bi = 000003, bj = 000001
(PID.TID 0000.0001) //       SOUTH: Tile = 000002, Process = 000001, Comm = put
(PID.TID 0000.0001) //                bi = 000002, bj = 000001
(PID.TID 0000.0001) //       NORTH: Tile = 000002, Process = 000001, Comm = put
(PID.TID 0000.0001) //                bi = 000002, bj = 000001
(PID.TID 0000.0001) // Tile number: 000003 (process no. = 000001)
(PID.TID 0000.0001) //        WEST: Tile = 000002, Process = 000001, Comm = put
(PID.TID 0000.0001) //                bi = 000002, bj = 000001
(PID.TID 0000.0001) //        EAST: Tile = 000004, Process = 000001, Comm = put
(PID.TID 0000.0001) //                bi = 000004, bj = 000001
(PID.TID 0000.0001) //       SOUTH: Tile = 000003, Process = 000001, Comm = put
(PID.TID 0000.0001) //                bi = 000003, bj = 000001
(PID.TID 0000.0001) //       NORTH: Tile = 000003, Process = 000001, Comm = put
(PID.TID 0000.0001) //                bi = 000003, bj = 000001
(PID.TID 0000.0001) // Tile number: 000004 (process no. = 000001)
(PID.TID 0000.0001) //        WEST: Tile = 000003, Process = 000001, Comm = put
(PID.TID 0000.0001) //                bi = 000003, bj = 000001
(PID.TID 0000.0001) //        EAST: Tile = 000005, Process = 000001, Comm = put
(PID.TID 0000.0001) //                bi = 000005, bj = 000001
(PID.TID 0000.0001) //       SOUTH: Tile = 000004, Process = 000001, Comm = put
(PID.TID 0000.0001) //                bi = 000004, bj = 000001
(PID.TID 0000.0001) //       NORTH: Tile = 000004, Process = 000001, Comm = put
(PID.TID 0000.0001) //                bi = 000004, bj = 000001
(PID.TID 0000.0001) // Tile number: 000005 (process no. = 000001)
(PID.TID 0000.0001) //        WEST: Tile = 000004, Process = 000001, Comm = put
(PID.TID 0000.0001) //                bi = 000004, bj = 000001
(PID.TID 0000.0001) //        EAST: Tile = 000006, Process = 000001, Comm = put
(PID.TID 0000.0001) //                bi = 000006, bj = 000001
(PID.TID 0000.0001) //       SOUTH: Tile = 000005, Process = 000001, Comm = put
(PID.TID 0000.0001) //                bi = 000005, bj = 000001
(PID.TID 0000.0001) //       NORTH: Tile = 000005, Process = 000001, Comm = put
(PID.TID 0000.0001) //                bi = 000005, bj = 000001
(PID.TID 0000.0001) // Tile number: 000006 (process no. = 000001)
(PID.TID 0000.0001) //        WEST: Tile = 000005, Process = 000001, Comm = put
(PID.TID 0000.0001) //                bi = 000005, bj = 000001
(PID.TID 0000.0001) //        EAST: Tile = 000001, Process = 000001, Comm = put
(PID.TID 0000.0001) //                bi = 000001, bj = 000001
(PID.TID 0000.0001) //       SOUTH: Tile = 000006, Process = 000001, Comm = put
(PID.TID 0000.0001) //                bi = 000006, bj = 000001
(PID.TID 0000.0001) //       NORTH: Tile = 000006, Process = 000001, Comm = put
(PID.TID 0000.0001) //                bi = 000006, bj = 000001
(PID.TID 0000.0001) 
(PID.TID 0000.0001) ===== W2 TILE TOPLOGY =====
(PID.TID 0000.0001)  TILE:    1
(PID.TID 0000.0001)       NEIGHBOUR    1 = TILE    3 Comm = PUT ( PROC =    1)
(PID.TID 0000.0001)       NEIGHBOUR    2 = TILE    6 Comm = PUT ( PROC =    1)
(PID.TID 0000.0001)       NEIGHBOUR    3 = TILE    2 Comm = PUT ( PROC =    1)
(PID.TID 0000.0001)       NEIGHBOUR    4 = TILE    5 Comm = PUT ( PROC =    1)
(PID.TID 0000.0001)  TILE:    2
(PID.TID 0000.0001)       NEIGHBOUR    1 = TILE    3 Comm = PUT ( PROC =    1)
(PID.TID 0000.0001)       NEIGHBOUR    2 = TILE    6 Comm = PUT ( PROC =    1)
(PID.TID 0000.0001)       NEIGHBOUR    3 = TILE    4 Comm = PUT ( PROC =    1)
(PID.TID 0000.0001)       NEIGHBOUR    4 = TILE    1 Comm = PUT ( PROC =    1)
(PID.TID 0000.0001)  TILE:    3
(PID.TID 0000.0001)       NEIGHBOUR    1 = TILE    5 Comm = PUT ( PROC =    1)
(PID.TID 0000.0001)       NEIGHBOUR    2 = TILE    2 Comm = PUT ( PROC =    1)
(PID.TID 0000.0001)       NEIGHBOUR    3 = TILE    4 Comm = PUT ( PROC =    1)
(PID.TID 0000.0001)       NEIGHBOUR    4 = TILE    1 Comm = PUT ( PROC =    1)
(PID.TID 0000.0001)  TILE:    4
(PID.TID 0000.0001)       NEIGHBOUR    1 = TILE    5 Comm = PUT ( PROC =    1)
(PID.TID 0000.0001)       NEIGHBOUR    2 = TILE    2 Comm = PUT ( PROC =    1)
(PID.TID 0000.0001)       NEIGHBOUR    3 = TILE    6 Comm = PUT ( PROC =    1)
(PID.TID 0000.0001)       NEIGHBOUR    4 = TILE    3 Comm = PUT ( PROC =    1)
(PID.TID 0000.0001)  TILE:    5
(PID.TID 0000.0001)       NEIGHBOUR    1 = TILE    1 Comm = PUT ( PROC =    1)
(PID.TID 0000.0001)       NEIGHBOUR    2 = TILE    4 Comm = PUT ( PROC =    1)
(PID.TID 0000.0001)       NEIGHBOUR    3 = TILE    6 Comm = PUT ( PROC =    1)
(PID.TID 0000.0001)       NEIGHBOUR    4 = TILE    3 Comm = PUT ( PROC =    1)
(PID.TID 0000.0001)  TILE:    6
(PID.TID 0000.0001)       NEIGHBOUR    1 = TILE    1 Comm = PUT ( PROC =    1)
(PID.TID 0000.0001)       NEIGHBOUR    2 = TILE    4 Comm = PUT ( PROC =    1)
(PID.TID 0000.0001)       NEIGHBOUR    3 = TILE    2 Comm = PUT ( PROC =    1)
(PID.TID 0000.0001)       NEIGHBOUR    4 = TILE    5 Comm = PUT ( PROC =    1)
(PID.TID 0000.0001) Tile    1(proc =   1) sends points i=  35:  -2, j=  30:  32
(PID.TID 0000.0001)                          to points i=  -2:   0, j=  -2:  35 in tile    3(proc =   1)
(PID.TID 0000.0001) Tile    1(proc =   1) sends points i=  -2:  35, j=   1:   3
(PID.TID 0000.0001)                          to points i=  -2:  35, j=  33:  35 in tile    6(proc =   1)
(PID.TID 0000.0001) Tile    1(proc =   1) sends points i=  30:  32, j=  -2:  35
(PID.TID 0000.0001)                          to points i=  -2:   0, j=  -2:  35 in tile    2(proc =   1)
(PID.TID 0000.0001) Tile    1(proc =   1) sends points i=   1:   3, j=  35:  -2
(PID.TID 0000.0001)                          to points i=  -2:  35, j=  33:  35 in tile    5(proc =   1)
(PID.TID 0000.0001) Tile    2(proc =   1) sends points i=  -2:  35, j=  30:  32
(PID.TID 0000.0001)                          to points i=  -2:  35, j=  -2:   0 in tile    3(proc =   1)
(PID.TID 0000.0001) Tile    2(proc =   1) sends points i=  35:  -2, j=   1:   3
(PID.TID 0000.0001)                          to points i=  33:  35, j=  -2:  35 in tile    6(proc =   1)
(PID.TID 0000.0001) Tile    2(proc =   1) sends points i=  30:  32, j=  35:  -2
(PID.TID 0000.0001)                          to points i=  -2:  35, j=  -2:   0 in tile    4(proc =   1)
(PID.TID 0000.0001) Tile    2(proc =   1) sends points i=   1:   3, j=  -2:  35
(PID.TID 0000.0001)                          to points i=  33:  35, j=  -2:  35 in tile    1(proc =   1)
(PID.TID 0000.0001) Tile    3(proc =   1) sends points i=  35:  -2, j=  30:  32
(PID.TID 0000.0001)                          to points i=  -2:   0, j=  -2:  35 in tile    5(proc =   1)
(PID.TID 0000.0001) Tile    3(proc =   1) sends points i=  -2:  35, j=   1:   3
(PID.TID 0000.0001)                          to points i=  -2:  35, j=  33:  35 in tile    2(proc =   1)
(PID.TID 0000.0001) Tile    3(proc =   1) sends points i=  30:  32, j=  -2:  35
(PID.TID 0000.0001)                          to points i=  -2:   0, j=  -2:  35 in tile    4(proc =   1)
(PID.TID 0000.0001) Tile    3(proc =   1) sends points i=   1:   3, j=  35:  -2
(PID.TID 0000.0001)                          to points i=  -2:  35, j=  33:  35 in tile    1(proc =   1)
(PID.TID 0000.0001) Tile    4(proc =   1) sends points i=  -2:  35, j=  30:  32
(PID.TID 0000.0001)                          to points i=  -2:  35, j=  -2:   0 in tile    5(proc =   1)
(PID.TID 0000.0001) Tile    4(proc =   1) sends points i=  35:  -2, j=   1:   3
(PID.TID 0000.0001)                          to points i=  33:  35, j=  -2:  35 in tile    2(proc =   1)
(PID.TID 0000.0001) Tile    4(proc =   1) sends points i=  30:  32, j=  35:  -2
(PID.TID 0000.0001)                          to points i=  -2:  35, j=  -2:   0 in tile    6(proc =   1)
(PID.TID 0000.0001) Tile    4(proc =   1) sends points i=   1:   3, j=  -2:  35
(PID.TID 0000.0001)                          to points i=  33:  35, j=  -2:  35 in tile    3(proc =   1)
(PID.TID 0000.0001) Tile    5(proc =   1) sends points i=  35:  -2, j=  30:  32
(PID.TID 0000.0001)                          to points i=  -2:   0, j=  -2:  35 in tile    1(proc =   1)
(PID.TID 0000.0001) Tile    5(proc =   1) sends points i=  -2:  35, j=   1:   3
(PID.TID 0000.0001)                          to points i=  -2:  35, j=  33:  35 in tile    4(proc =   1)
(PID.TID 0000.0001) Tile    5(proc =   1) sends points i=  30:  32, j=  -2:  35
(PID.TID 0000.0001)                          to points i=  -2:   0, j=  -2:  35 in tile    6(proc =   1)
(PID.TID 0000.0001) Tile    5(proc =   1) sends points i=   1:   3, j=  35:  -2
(PID.TID 0000.0001)                          to points i=  -2:  35, j=  33:  35 in tile    3(proc =   1)
(PID.TID 0000.0001) Tile    6(proc =   1) sends points i=  -2:  35, j=  30:  32
(PID.TID 0000.0001)                          to points i=  -2:  35, j=  -2:   0 in tile    1(proc =   1)
(PID.TID 0000.0001) Tile    6(proc =   1) sends points i=  35:  -2, j=   1:   3
(PID.TID 0000.0001)                          to points i=  33:  35, j=  -2:  35 in tile    4(proc =   1)
(PID.TID 0000.0001) Tile    6(proc =   1) sends points i=  30:  32, j=  35:  -2
(PID.TID 0000.0001)                          to points i=  -2:  35, j=  -2:   0 in tile    2(proc =   1)
(PID.TID 0000.0001) Tile    6(proc =   1) sends points i=   1:   3, j=  -2:  35
(PID.TID 0000.0001)                          to points i=  33:  35, j=  -2:  35 in tile    5(proc =   1)
(PID.TID 0000.0001) Tile    1(proc =   1)recv to points i=  -2:  35, j=  33:  35from tile   3(proc =   1)
(PID.TID 0000.0001) Tile    1(proc =   1)recv to points i=  -2:  35, j=  -2:   0from tile   6(proc =   1)
(PID.TID 0000.0001) Tile    1(proc =   1)recv to points i=  33:  35, j=  -2:  35from tile   2(proc =   1)
(PID.TID 0000.0001) Tile    1(proc =   1)recv to points i=  -2:   0, j=  -2:  35from tile   5(proc =   1)
(PID.TID 0000.0001) Tile    2(proc =   1)recv to points i=  -2:  35, j=  33:  35from tile   3(proc =   1)
(PID.TID 0000.0001) Tile    2(proc =   1)recv to points i=  -2:  35, j=  -2:   0from tile   6(proc =   1)
(PID.TID 0000.0001) Tile    2(proc =   1)recv to points i=  33:  35, j=  -2:  35from tile   4(proc =   1)
(PID.TID 0000.0001) Tile    2(proc =   1)recv to points i=  -2:   0, j=  -2:  35from tile   1(proc =   1)
(PID.TID 0000.0001) Tile    3(proc =   1)recv to points i=  -2:  35, j=  33:  35from tile   5(proc =   1)
(PID.TID 0000.0001) Tile    3(proc =   1)recv to points i=  -2:  35, j=  -2:   0from tile   2(proc =   1)
(PID.TID 0000.0001) Tile    3(proc =   1)recv to points i=  33:  35, j=  -2:  35from tile   4(proc =   1)
(PID.TID 0000.0001) Tile    3(proc =   1)recv to points i=  -2:   0, j=  -2:  35from tile   1(proc =   1)
(PID.TID 0000.0001) Tile    4(proc =   1)recv to points i=  -2:  35, j=  33:  35from tile   5(proc =   1)
(PID.TID 0000.0001) Tile    4(proc =   1)recv to points i=  -2:  35, j=  -2:   0from tile   2(proc =   1)
(PID.TID 0000.0001) Tile    4(proc =   1)recv to points i=  33:  35, j=  -2:  35from tile   6(proc =   1)
(PID.TID 0000.0001) Tile    4(proc =   1)recv to points i=  -2:   0, j=  -2:  35from tile   3(proc =   1)
(PID.TID 0000.0001) Tile    5(proc =   1)recv to points i=  -2:  35, j=  33:  35from tile   1(proc =   1)
(PID.TID 0000.0001) Tile    5(proc =   1)recv to points i=  -2:  35, j=  -2:   0from tile   4(proc =   1)
(PID.TID 0000.0001) Tile    5(proc =   1)recv to points i=  33:  35, j=  -2:  35from tile   6(proc =   1)
(PID.TID 0000.0001) Tile    5(proc =   1)recv to points i=  -2:   0, j=  -2:  35from tile   3(proc =   1)
(PID.TID 0000.0001) Tile    6(proc =   1)recv to points i=  -2:  35, j=  33:  35from tile   1(proc =   1)
(PID.TID 0000.0001) Tile    6(proc =   1)recv to points i=  -2:  35, j=  -2:   0from tile   4(proc =   1)
(PID.TID 0000.0001) Tile    6(proc =   1)recv to points i=  33:  35, j=  -2:  35from tile   2(proc =   1)
(PID.TID 0000.0001) Tile    6(proc =   1)recv to points i=  -2:   0, j=  -2:  35from tile   5(proc =   1)
(PID.TID 0000.0001) // =======================================================
(PID.TID 0000.0001) // Model parameter file "data"
(PID.TID 0000.0001) // =======================================================
(PID.TID 0000.0001) ># ====================
(PID.TID 0000.0001) ># | Model parameters |
(PID.TID 0000.0001) ># ====================
(PID.TID 0000.0001) >#
(PID.TID 0000.0001) ># Continuous equation parameters
(PID.TID 0000.0001) > &PARM01
(PID.TID 0000.0001) > tRef=15*20.,
(PID.TID 0000.0001) > sRef=15*35.,
(PID.TID 0000.0001) > viscAh =3.E5,
(PID.TID 0000.0001) > viscAr =1.E-3,
(PID.TID 0000.0001) > diffKhT=0.,
(PID.TID 0000.0001) > diffK4T=0.,
(PID.TID 0000.0001) > diffKrT=3.E-5,
(PID.TID 0000.0001) > diffKhS=0.,
(PID.TID 0000.0001) > diffK4S=0.,
(PID.TID 0000.0001) > diffKrS=3.E-5,
(PID.TID 0000.0001) > ivdc_kappa=10.,
(PID.TID 0000.0001) > implicitDiffusion=.TRUE.,
(PID.TID 0000.0001) > rotationPeriod=86400.,
(PID.TID 0000.0001) > gravity=9.81,
(PID.TID 0000.0001) > rhonil=1035.,
(PID.TID 0000.0001) > rhoConstFresh=1000.,
(PID.TID 0000.0001) > eosType='JMD95Z',
(PID.TID 0000.0001) > staggerTimeStep=.TRUE.,
(PID.TID 0000.0001) > vectorInvariantMomentum=.TRUE.,
(PID.TID 0000.0001) > implicitFreeSurface=.TRUE.,
(PID.TID 0000.0001) > exactConserv=.TRUE.,
(PID.TID 0000.0001) > select_rStar=2,
(PID.TID 0000.0001) > nonlinFreeSurf=4,
(PID.TID 0000.0001) > hFacInf=0.2,
(PID.TID 0000.0001) > hFacSup=2.0,
(PID.TID 0000.0001) > useRealFreshWaterFlux=.TRUE.,
(PID.TID 0000.0001) > hFacMin=.1,
(PID.TID 0000.0001) > hFacMinDr=20.,
(PID.TID 0000.0001) > readBinaryPrec=64,
(PID.TID 0000.0001) >#writeBinaryPrec=64,
(PID.TID 0000.0001) > &
(PID.TID 0000.0001) >
(PID.TID 0000.0001) ># Elliptic solver parameters
(PID.TID 0000.0001) > &PARM02
(PID.TID 0000.0001) > cg2dMaxIters=200,
(PID.TID 0000.0001) >#cg2dTargetResidual=1.E-9,
(PID.TID 0000.0001) > cg2dTargetResWunit=1.E-14,
(PID.TID 0000.0001) > &
(PID.TID 0000.0001) >
(PID.TID 0000.0001) ># Time stepping parameters
(PID.TID 0000.0001) > &PARM03
(PID.TID 0000.0001) > nIter0=36000,
(PID.TID 0000.0001) > nTimeSteps=20,
(PID.TID 0000.0001) > deltaTmom   =1200.,
(PID.TID 0000.0001) > deltaTtracer=86400.,
(PID.TID 0000.0001) > deltaTfreesurf=86400.,
(PID.TID 0000.0001) > deltaTClock =86400.,
(PID.TID 0000.0001) > abEps = 0.1,
(PID.TID 0000.0001) >#forcing_In_AB=.FALSE.,
(PID.TID 0000.0001) > tracForcingOutAB=1,
(PID.TID 0000.0001) > pChkptFreq  =31104000.,
(PID.TID 0000.0001) > taveFreq    =31104000.,
(PID.TID 0000.0001) > dumpFreq    =31104000.,
(PID.TID 0000.0001) > monitorFreq =2592000.,
(PID.TID 0000.0001) >#tave_lastIter=0.,
(PID.TID 0000.0001) > periodicExternalForcing=.TRUE.,
(PID.TID 0000.0001) > externForcingPeriod=2592000.,
(PID.TID 0000.0001) > externForcingCycle=31104000.,
(PID.TID 0000.0001) ># 2 months restoring timescale for temperature
(PID.TID 0000.0001) > tauThetaClimRelax = 5184000.,
(PID.TID 0000.0001) ># 6 months restoring timescale for salinity
(PID.TID 0000.0001) > tauSaltClimRelax = 15552000.,
(PID.TID 0000.0001) > latBandClimRelax=50.,
(PID.TID 0000.0001) > monitorFreq =1.,
(PID.TID 0000.0001) > &
(PID.TID 0000.0001) >
(PID.TID 0000.0001) ># Gridding parameters
(PID.TID 0000.0001) > &PARM04
(PID.TID 0000.0001) > usingCurvilinearGrid=.TRUE.,
(PID.TID 0000.0001) > horizGridFile='grid_cs32',
(PID.TID 0000.0001) > delR= 50., 70., 100., 140., 190.,
(PID.TID 0000.0001) >       240., 290., 340., 390., 440.,
(PID.TID 0000.0001) >       490., 540., 590., 640., 690.,
(PID.TID 0000.0001) > &
(PID.TID 0000.0001) >
(PID.TID 0000.0001) ># Input datasets
(PID.TID 0000.0001) > &PARM05
(PID.TID 0000.0001) > bathyFile      ='bathy_Hmin50.bin',
(PID.TID 0000.0001) > hydrogThetaFile='lev_T_cs_15k.bin',
(PID.TID 0000.0001) > hydrogSaltFile ='lev_S_cs_15k.bin',
(PID.TID 0000.0001) > zonalWindFile  ='trenberth_taux.bin',
(PID.TID 0000.0001) > meridWindFile  ='trenberth_tauy.bin',
(PID.TID 0000.0001) > thetaClimFile  ='lev_surfT_cs_12m.bin',
(PID.TID 0000.0001) > saltClimFile   ='lev_surfS_cs_12m.bin',
(PID.TID 0000.0001) > &
(PID.TID 0000.0001) 
(PID.TID 0000.0001) S/R INI_PARMS ; starts to read PARM01
(PID.TID 0000.0001) S/R INI_PARMS ; read PARM01 : OK
(PID.TID 0000.0001) S/R INI_PARMS ; starts to read PARM02
(PID.TID 0000.0001) S/R INI_PARMS ; read PARM02 : OK
(PID.TID 0000.0001) S/R INI_PARMS ; starts to read PARM03
(PID.TID 0000.0001) S/R INI_PARMS ; read PARM03 : OK
(PID.TID 0000.0001) S/R INI_PARMS ; starts to read PARM04
(PID.TID 0000.0001) S/R INI_PARMS ; read PARM04 : OK
(PID.TID 0000.0001) S/R INI_PARMS ; starts to read PARM05
(PID.TID 0000.0001) S/R INI_PARMS ; read PARM05 : OK
(PID.TID 0000.0001)  PACKAGES_BOOT: opening data.pkg
(PID.TID 0000.0001)  OPEN_COPY_DATA_FILE: opening file data.pkg
(PID.TID 0000.0001) // =======================================================
(PID.TID 0000.0001) // Parameter file "data.pkg"
(PID.TID 0000.0001) // =======================================================
(PID.TID 0000.0001) ># Packages
(PID.TID 0000.0001) > &PACKAGES
(PID.TID 0000.0001) > useGMRedi=.TRUE.,
(PID.TID 0000.0001) > useBulkforce=.TRUE.,
(PID.TID 0000.0001) > useThSIce=.TRUE.,
(PID.TID 0000.0001) > useDiagnostics=.TRUE.,
(PID.TID 0000.0001) > &
(PID.TID 0000.0001) 
(PID.TID 0000.0001)  PACKAGES_BOOT: finished reading data.pkg
(PID.TID 0000.0001)  GM_READPARMS: opening data.gmredi
(PID.TID 0000.0001)  OPEN_COPY_DATA_FILE: opening file data.gmredi
(PID.TID 0000.0001) // =======================================================
(PID.TID 0000.0001) // Parameter file "data.gmredi"
(PID.TID 0000.0001) // =======================================================
(PID.TID 0000.0001) ># GM+Redi package parameters:
(PID.TID 0000.0001) >
(PID.TID 0000.0001) >#-from MOM :
(PID.TID 0000.0001) ># GM_background_K: 	G & Mc.W  diffusion coefficient
(PID.TID 0000.0001) ># GM_maxSlope    :	max slope of isopycnals
(PID.TID 0000.0001) ># GM_Scrit       :	transition for scaling diffusion coefficient
(PID.TID 0000.0001) ># GM_Sd          :	half width scaling for diffusion coefficient
(PID.TID 0000.0001) ># GM_taper_scheme:	slope clipping or one of the tapering schemes
(PID.TID 0000.0001) ># GM_Kmin_horiz  :	horizontal diffusion minimum value
(PID.TID 0000.0001) >
(PID.TID 0000.0001) >#-Option parameters (needs to "define" options in GMREDI_OPTIONS.h")
(PID.TID 0000.0001) ># GM_isopycK     :	isopycnal diffusion coefficient (default=GM_background_K)
(PID.TID 0000.0001) ># GM_AdvForm     :	turn on GM Advective form       (default=Skew flux form)
(PID.TID 0000.0001) >
(PID.TID 0000.0001) > &GM_PARM01
(PID.TID 0000.0001) >  GM_background_K    = 800.,
(PID.TID 0000.0001) >  GM_taper_scheme    = 'gkw91',
(PID.TID 0000.0001) >  GM_maxSlope        = 1.e-2,
(PID.TID 0000.0001) >  GM_Kmin_horiz      = 50.,
(PID.TID 0000.0001) >  GM_Scrit           = 4.e-3,
(PID.TID 0000.0001) >  GM_Sd              = 1.e-3,
(PID.TID 0000.0001) ># GM_Visbeck_alpha   = 0.,
(PID.TID 0000.0001) ># GM_Visbeck_length  = 2.e+5,
(PID.TID 0000.0001) ># GM_Visbeck_depth   = 1.e+3,
(PID.TID 0000.0001) ># GM_Visbeck_maxval_K= 2.5e+3,
(PID.TID 0000.0001) > &
(PID.TID 0000.0001) >
(PID.TID 0000.0001) >
(PID.TID 0000.0001) 
(PID.TID 0000.0001)  GM_READPARMS: finished reading data.gmredi
(PID.TID 0000.0001)  OPEN_COPY_DATA_FILE: opening file data.blk
(PID.TID 0000.0001) // =======================================================
(PID.TID 0000.0001) // Parameter file "data.blk"
(PID.TID 0000.0001) // =======================================================
(PID.TID 0000.0001) > &BULKF_CONST
(PID.TID 0000.0001) > Tf0kel = 273.15,
(PID.TID 0000.0001) >#p0   = 1013.,  <- no longer in Namelist, but hard coded
(PID.TID 0000.0001) > Rgas   = 287.,
(PID.TID 0000.0001) > &
(PID.TID 0000.0001) >
(PID.TID 0000.0001) > &BULKF_PARM01
(PID.TID 0000.0001) ># set blk_nIter=0 to use the original FORMULA_LANL:
(PID.TID 0000.0001) > blk_nIter= 0,
(PID.TID 0000.0001) >#RainFile=       'ncep_precip_cs.bin',
(PID.TID 0000.0001) > RainFile=       'ncep_pr_scal_cs.bin',
(PID.TID 0000.0001) > SolarFile=      'ncep_downsolar_cs.bin',
(PID.TID 0000.0001) > AirTempFile=    'ncep_tair_cs.bin',
(PID.TID 0000.0001) > AirhumidityFile='ncep_qair_cs.bin',
(PID.TID 0000.0001) > LongwaveFile=   'ncep_downlw_cs.bin',
(PID.TID 0000.0001) > UWindFile=      ' ',
(PID.TID 0000.0001) > VWindFile=      ' ',
(PID.TID 0000.0001) > WspeedFile=     'ncep_windspeed_cs.bin',
(PID.TID 0000.0001) > RunoffFile=     ' ',
(PID.TID 0000.0001) > QnetFile=       ' ',
(PID.TID 0000.0001) > EmPFile=        ' ',
(PID.TID 0000.0001) > CloudFile=      ' ',
(PID.TID 0000.0001) >#blk_taveFreq=864000.,
(PID.TID 0000.0001) > &
(PID.TID 0000.0001) >
(PID.TID 0000.0001) > &BULKF_PARM02
(PID.TID 0000.0001) > qnet_off=0.0,
(PID.TID 0000.0001) > empmr_off=0.0,
(PID.TID 0000.0001) > conservcycle=311040000.,
(PID.TID 0000.0001) > &
(PID.TID 0000.0001) >
(PID.TID 0000.0001) 
(PID.TID 0000.0001)  BULKF_READPARMS: starts to read BULKF_CONST
(PID.TID 0000.0001)  BULKF_READPARMS: read BULKF_CONST : OK
(PID.TID 0000.0001)  BULKF_READPARMS: starts to read BULKF_PARM01
(PID.TID 0000.0001)  BULKF_READPARMS: read BULKF_PARM01 : OK
 BlkF: rhoA     =  1.3
 BlkF: rhoFW    =  1000.
 BlkF: cpAir    =  1004.
 BlkF: Lvap     =  2500000.
 BlkF: Lfresh   =  334000.
 BlkF: Tf0kel   =  273.15
 BlkF: Rgas     =  287.
 BlkF: xkar     =  0.4
 BlkF: stefan   =  5.67E-08
 BlkF: zref     =  10.
 BlkF: zwd      =  10.
 BlkF: zth      =  10.
 BlkF: cDrag_1  =  0.0027
 BlkF: cDrag_2  =  0.000142
 BlkF: cDrag_3  =  7.64E-05
 BlkF: cStantonS=  0.018
 BlkF: cStantonU=  0.0327
 BlkF: cDalton  =  0.0346
 BlkF: umin     =  1.
 BlkF: humid_fac=  0.606
 BlkF: saltQsFac=  0.98
 BlkF: gamma_blk=  0.01
 BlkF: atm_emissivity  =  0.9
 BlkF: ocean_emissivity=  0.985
 BlkF: snow_emissivity =  0.98
 BlkF: ice_emissivity  =  0.98
 BlkF: ocean_albedo    =  0.1
 BlkF: FWIND0   =  0.6
 BlkF: CHS      =  0.0008
 BlkF: VGUST    =  5.
 BlkF: DTHETA   =  3.
 BlkF: dTstab   =  1.
 BlkF: FSTAB    =  0.67
 BlkF: useFluxFormula_AIM= F
 BlkF: calcWindStress  = F
 BlkF: useQnetch       = F
 BlkF: useEmPch        = F
 BlkF: blk_nIter   = 0
 BlkF: blk_taveFreq=  31104000.
(PID.TID 0000.0001)  THSICE_READPARMS: opening data.ice
(PID.TID 0000.0001)  OPEN_COPY_DATA_FILE: opening file data.ice
(PID.TID 0000.0001) // =======================================================
(PID.TID 0000.0001) // Parameter file "data.ice"
(PID.TID 0000.0001) // =======================================================
(PID.TID 0000.0001) > &THSICE_CONST
(PID.TID 0000.0001) > Tf0kel  = 273.15,
(PID.TID 0000.0001) >#- with LANL albedo:
(PID.TID 0000.0001) >#albWarmSnow=0.75,
(PID.TID 0000.0001) >#- for full ice-fraction :
(PID.TID 0000.0001) >#icemaskmin = 1.,
(PID.TID 0000.0001) >#himin0     = 0.01,
(PID.TID 0000.0001) >#frac_energy= 0.,
(PID.TID 0000.0001) >#hihig      =100.,
(PID.TID 0000.0001) >#- with fractional ice:
(PID.TID 0000.0001) > icemaskmin = 0.05,
(PID.TID 0000.0001) > hiMax      = 10.,
(PID.TID 0000.0001) > hsMax      = 10.,
(PID.TID 0000.0001) >#albIceMax  =0.7,
(PID.TID 0000.0001) >#albIceMin  =0.7,
(PID.TID 0000.0001) > &
(PID.TID 0000.0001) >
(PID.TID 0000.0001) > &THSICE_PARM01
(PID.TID 0000.0001) >#StartIceModel=1,
(PID.TID 0000.0001) > stressReduction=0.,
(PID.TID 0000.0001) >#thSIce_taveFreq=2592000.,
(PID.TID 0000.0001) >#thSIce_diagFreq=2592000.,
(PID.TID 0000.0001) >#thSIce_monFreq=864000.,
(PID.TID 0000.0001) > &
(PID.TID 0000.0001) >
(PID.TID 0000.0001) 
(PID.TID 0000.0001)  THSICE_READPARMS: read THSICE_CONST
(PID.TID 0000.0001)  THSICE_READPARMS: read THSICE_PARM01
 ThSI: rhos    =  330.
 ThSI: rhoi    =  900.
 ThSI: rhosw   =  1035.
 ThSI: rhofw   =  1000.
 ThSI: rhoiw   =  135.
 ThSI: cpice   =  2106.
 ThSI: cpwater =  3994.
 ThSI: kice    =  2.03
 ThSI: ksnow   =  0.3
 ThSI: transcoef=  0.006
 ThSI: Lfresh  =  334000.
 ThSI: qsnow   =  334000.
 ThSI: albColdSnow=  0.85
 ThSI: albWarmSnow=  0.7
 ThSI: tempSnowAlb= -10.
 ThSI: albOldSnow =  0.55
 ThSI: hNewSnowAge=  0.002
 ThSI: snowAgTime =  4320000.
 ThSI: albIceMax =  0.65
 ThSI: albIceMin =  0.2
 ThSI: hAlbIce   =  0.5
 ThSI: hAlbSnow  =  0.3
 ThSI: i0      =  0.3
 ThSI: ksolar  =  1.5
 ThSI: saltice =  4.
 ThSI: S_winton=  1.
 ThSI: mu_Tf   =  0.054
 ThSI: Tf0kel  =  273.15
 ThSI: Tmlt1   = -0.054
 ThSI: himin   =  0.01
 ThSI: Terrmax =  0.5
 ThSI: nitMaxTsf= 20
 ThSI: hiMax   =  10.
 ThSI: hsMax   =  10.
 ThSI: iceMaskmax=  1.
 ThSI: iceMaskmin=  0.05
 ThSI: himin0  =  0.2
 ThSI: frac_energy  0.4
 ThSI: hihig   =  2.5
 ThSI: stressReduction =  0.
 ThSI: thSIce_deltaT =  86400.
 ThSI: ocean_deltaT  =  86400.
 ThSI: stepFwd_oceMxL= F
 ThSI: tauRelax_MxL  =  0.
 ThSI: hMxL_default  =  50.
 ThSI: sMxL_default  =  35.
 ThSI: vMxL_default  =  0.05
 ThSI: thSIce_taveFreq=  31104000.
 ThSI: thSIce_diagFreq=  31104000.
 ThSI: thSIce_monFreq =  1.
 ThSI: startIceModel = 0
(PID.TID 0000.0001)  DIAGNOSTICS_READPARMS: opening data.diagnostics
(PID.TID 0000.0001)  OPEN_COPY_DATA_FILE: opening file data.diagnostics
(PID.TID 0000.0001) // =======================================================
(PID.TID 0000.0001) // Parameter file "data.diagnostics"
(PID.TID 0000.0001) // =======================================================
(PID.TID 0000.0001) ># Diagnostic Package Choices
(PID.TID 0000.0001) >#-----------------
(PID.TID 0000.0001) ># for each output-stream:
(PID.TID 0000.0001) >#  filename(n) : prefix of the output file name (only 8.c long) for outp.stream n
(PID.TID 0000.0001) >#  frequency(n):< 0 : write snap-shot output every |frequency| seconds
(PID.TID 0000.0001) >#               > 0 : write time-average output every frequency seconds
(PID.TID 0000.0001) >#  timePhase(n)     : write at time = timePhase + multiple of |frequency|
(PID.TID 0000.0001) >#  averagingFreq(n) : frequency (in s) for periodic averaging interval
(PID.TID 0000.0001) >#  averagingPhase(n): phase     (in s) for periodic averaging interval
(PID.TID 0000.0001) >#  repeatCycle(n)   : number of averaging intervals in 1 cycle
(PID.TID 0000.0001) >#  levels(:,n) : list of levels to write to file (Notes: declared as REAL)
(PID.TID 0000.0001) >#                 when this entry is missing, select all common levels of this list
(PID.TID 0000.0001) >#  fields(:,n) : list of diagnostics fields (8.c) (see "available_diagnostics.log"
(PID.TID 0000.0001) >#                 file for the list of all available diag. in this particular config)
(PID.TID 0000.0001) >#-----------------
(PID.TID 0000.0001) > &DIAGNOSTICS_LIST
(PID.TID 0000.0001) ># diag_mnc     = .FALSE.,
(PID.TID 0000.0001) ># dumpAtLast   = .TRUE.,
(PID.TID 0000.0001) >   fields(1,1) = 'ETAN    ','ETANSQ  ','DETADT2 ','PHIBOT  ','PHIBOTSQ',
(PID.TID 0000.0001) >                 'oceTAUX ','oceTAUY ','TFLUX   ','SFLUX   ','oceFreez',
(PID.TID 0000.0001) >                 'TRELAX  ','SRELAX  ',
(PID.TID 0000.0001) >   levels(1,1) = 1.,
(PID.TID 0000.0001) >   filename(1) = 'surfDiag',
(PID.TID 0000.0001) >  frequency(1) = 1555200000.,
(PID.TID 0000.0001) >   fields(1,2) = 'UVEL    ','VVEL    ','WVEL    ','PHIHYD  ',
(PID.TID 0000.0001) >                 'VVELMASS','UVELMASS','WVELSQ  ',
(PID.TID 0000.0001) >                 'THETA   ','UTHMASS ','VTHMASS ','WTHMASS ',
(PID.TID 0000.0001) >                 'SALT    ','USLTMASS','VSLTMASS','WSLTMASS',
(PID.TID 0000.0001) ># do not specify levels => all levels are selected
(PID.TID 0000.0001) >   filename(2) = 'dynDiag',
(PID.TID 0000.0001) >  frequency(2) = 1555200000.,
(PID.TID 0000.0001) >   fields(1,3) = 'DRHODR  ','RHOAnoma','CONVADJ ',
(PID.TID 0000.0001) >                 'GM_PsiX ','GM_PsiY ',
(PID.TID 0000.0001) >                 'GM_Kwx  ','GM_Kwy  ','GM_Kwz  ',
(PID.TID 0000.0001) >                 'GM_Kux  ','GM_Kvy  ',
(PID.TID 0000.0001) >                 'GM_Kuz  ','GM_Kvz  ',
(PID.TID 0000.0001) >#- disable this output list by commenting out the file name
(PID.TID 0000.0001) >#  filename(3) = 'oceDiag',
(PID.TID 0000.0001) >  frequency(3) = 1555200000.,
(PID.TID 0000.0001) >   fields(1,4) = 'ADVx_TH ','ADVy_TH ','ADVr_TH ',
(PID.TID 0000.0001) >                 'DFxE_TH ','DFyE_TH ','DFrE_TH ',
(PID.TID 0000.0001) >                 'DFrI_TH ',
(PID.TID 0000.0001) >#                'ADVx_SLT',
(PID.TID 0000.0001) >#  filename(4) = 'flxDiag',
(PID.TID 0000.0001) >  frequency(4) = 1728000.,
(PID.TID 0000.0001) >   fields(1,5) = 'SI_Fract','SI_Thick','SI_SnowH',
(PID.TID 0000.0001) >                 'SI_Tsrf ','SI_Tice1','SI_Tice2',
(PID.TID 0000.0001) >                 'SI_Qice1','SI_Qice2','SIsnwAge',
(PID.TID 0000.0001) >                 'SIsnwPrc','SIalbedo',
(PID.TID 0000.0001) >                 'SIflx2oc','SIfrw2oc','SIsaltFx',
(PID.TID 0000.0001) >                 'SIflxAtm','SIfrwAtm',
(PID.TID 0000.0001) >#                'SItOcMxL','SIsOcMxL',
(PID.TID 0000.0001) >   filename(5) = 'thSIceDiag',
(PID.TID 0000.0001) >  frequency(5) = 1555200000.,
(PID.TID 0000.0001) > averagingFreq(5) = 2592000.,
(PID.TID 0000.0001) >   repeatCycle(5) = 12,
(PID.TID 0000.0001) > &
(PID.TID 0000.0001) >
(PID.TID 0000.0001) ># Parameter for Diagnostics of per level statistics:
(PID.TID 0000.0001) >#-----------------
(PID.TID 0000.0001) ># for each output-stream:
(PID.TID 0000.0001) >#  stat_fname(n) : prefix of the output file name (only 8.c long) for outp.stream n
(PID.TID 0000.0001) >#  stat_freq(n):< 0 : write snap-shot output every |stat_freq| seconds
(PID.TID 0000.0001) >#               > 0 : write time-average output every stat_freq seconds
(PID.TID 0000.0001) >#  stat_phase(n)    : write at time = stat_phase + multiple of |stat_freq|
(PID.TID 0000.0001) >#  stat_region(:,n) : list of "regions" (default: 1 region only=global)
(PID.TID 0000.0001) >#  stat_fields(:,n) : list of diagnostics fields (8.c) (see "available_diagnostics.log"
(PID.TID 0000.0001) >#                 file for the list of all available diag. in this particular config)
(PID.TID 0000.0001) >#-----------------
(PID.TID 0000.0001) > &DIAG_STATIS_PARMS
(PID.TID 0000.0001) >#- regional mask: 3 lat. band: 1 : y <= -24 ; 2 : -24<y<24 ; 3 : 24 <= y
(PID.TID 0000.0001) > diagSt_regMaskFile='regMask_lat24.bin',
(PID.TID 0000.0001) > nSetRegMskFile=1,
(PID.TID 0000.0001) > set_regMask(1)= 1,  1,  1,
(PID.TID 0000.0001) > val_regMask(1)= 1., 2., 3.,
(PID.TID 0000.0001) >#---
(PID.TID 0000.0001) > stat_fields(1,1)= 'ETAN    ','UVEL    ','VVEL    ','WVEL    ',
(PID.TID 0000.0001) >                   'THETA   ','SALT    ','CONVADJ ','DETADT2 ',
(PID.TID 0000.0001) >    stat_fname(1)= 'dynStDiag',
(PID.TID 0000.0001) >     stat_freq(1)= 864000.,
(PID.TID 0000.0001) > stat_fields(1,5)= 'SI_Fract','SI_Thick','SI_SnowH',
(PID.TID 0000.0001) >                   'SI_Tsrf ','SI_Tice1','SI_Tice2',
(PID.TID 0000.0001) >                   'SI_Qice1','SI_Qice2',
(PID.TID 0000.0001) >                   'SIsnwPrc','SIalbedo','SIsnwAge',
(PID.TID 0000.0001) >                   'SIflx2oc','SIfrw2oc','SIsaltFx',
(PID.TID 0000.0001) >                   'SIflxAtm','SIfrwAtm',
(PID.TID 0000.0001) >#                  'SItOcMxL','SIsOcMxL',
(PID.TID 0000.0001) > stat_region(1,5)= 1, 3, 0,
(PID.TID 0000.0001) >    stat_fname(5)= 'thSIceStDiag',
(PID.TID 0000.0001) >     stat_freq(5)= 864000.,
(PID.TID 0000.0001) > &
(PID.TID 0000.0001) >
(PID.TID 0000.0001) 
(PID.TID 0000.0001) S/R DIAGNOSTICS_READPARMS, read namelist "diagnostics_list": start
(PID.TID 0000.0001) S/R DIAGNOSTICS_READPARMS, read namelist "diagnostics_list": OK
(PID.TID 0000.0001) S/R DIAGNOSTICS_READPARMS, read namelist "DIAG_STATIS_PARMS": start
(PID.TID 0000.0001) S/R DIAGNOSTICS_READPARMS, read namelist "DIAG_STATIS_PARMS": OK
(PID.TID 0000.0001) -----------------------------------------------------
(PID.TID 0000.0001)  DIAGNOSTICS_READPARMS: active diagnostics summary:
(PID.TID 0000.0001) -----------------------------------------------------
(PID.TID 0000.0001) Creating Output Stream: surfDiag
(PID.TID 0000.0001) Output Frequency:1555200000.000000 ; Phase:          0.000000
(PID.TID 0000.0001)  Averaging Freq.:1555200000.000000 , Phase:          0.000000 , Cycle:  1
(PID.TID 0000.0001)  Levels:       1.
(PID.TID 0000.0001)  Fields:    ETAN     ETANSQ   DETADT2  PHIBOT   PHIBOTSQ oceTAUX  oceTAUY  TFLUX    SFLUX    oceFreez
(PID.TID 0000.0001)  Fields:    TRELAX   SRELAX
(PID.TID 0000.0001) Creating Output Stream: dynDiag
(PID.TID 0000.0001) Output Frequency:1555200000.000000 ; Phase:          0.000000
(PID.TID 0000.0001)  Averaging Freq.:1555200000.000000 , Phase:          0.000000 , Cycle:  1
(PID.TID 0000.0001)  Levels:    will be set later
(PID.TID 0000.0001)  Fields:    UVEL     VVEL     WVEL     PHIHYD   VVELMASS UVELMASS WVELSQ   THETA    UTHMASS  VTHMASS
(PID.TID 0000.0001)  Fields:    WTHMASS  SALT     USLTMASS VSLTMASS WSLTMASS
(PID.TID 0000.0001) Creating Output Stream: thSIceDiag
(PID.TID 0000.0001) Output Frequency:1555200000.000000 ; Phase:          0.000000
(PID.TID 0000.0001)  Averaging Freq.:   2592000.000000 , Phase:          0.000000 , Cycle: 12
(PID.TID 0000.0001)  Levels:    will be set later
(PID.TID 0000.0001)  Fields:    SI_Fract SI_Thick SI_SnowH SI_Tsrf  SI_Tice1 SI_Tice2 SI_Qice1 SI_Qice2 SIsnwAge SIsnwPrc
(PID.TID 0000.0001)  Fields:    SIalbedo SIflx2oc SIfrw2oc SIsaltFx SIflxAtm SIfrwAtm
(PID.TID 0000.0001) -----------------------------------------------------
(PID.TID 0000.0001)  DIAGNOSTICS_READPARMS: statistics diags. summary:
(PID.TID 0000.0001) Creating Stats. Output Stream: dynStDiag
(PID.TID 0000.0001) Output Frequency:    864000.000000 ; Phase:          0.000000
(PID.TID 0000.0001)  Regions :    0
(PID.TID 0000.0001)  Fields:    ETAN     UVEL     VVEL     WVEL     THETA    SALT     CONVADJ  DETADT2
(PID.TID 0000.0001) Creating Stats. Output Stream: thSIceStDiag
(PID.TID 0000.0001) Output Frequency:    864000.000000 ; Phase:          0.000000
(PID.TID 0000.0001)  Regions :    0  1  3
(PID.TID 0000.0001)  Fields:    SI_Fract SI_Thick SI_SnowH SI_Tsrf  SI_Tice1 SI_Tice2 SI_Qice1 SI_Qice2 SIsnwPrc SIalbedo SIsnwAge SIflx2oc SIfrw2oc SIsaltFx SIflxAtm SIfrwAtm
(PID.TID 0000.0001) -----------------------------------------------------
(PID.TID 0000.0001) 
(PID.TID 0000.0001) SET_PARMS: done
(PID.TID 0000.0001) Enter INI_VERTICAL_GRID: setInterFDr=    T ; setCenterDr=    F
(PID.TID 0000.0001) tile:   1 ; Read from file grid_cs32.face001.bin
(PID.TID 0000.0001)   => xC yC dxF dyF rA xG yG dxV dyU rAz dxC dyC rAw rAs dxG dyG AngleCS AngleSN
(PID.TID 0000.0001) tile:   2 ; Read from file grid_cs32.face002.bin
(PID.TID 0000.0001)   => xC yC dxF dyF rA xG yG dxV dyU rAz dxC dyC rAw rAs dxG dyG AngleCS AngleSN
(PID.TID 0000.0001) tile:   3 ; Read from file grid_cs32.face003.bin
(PID.TID 0000.0001)   => xC yC dxF dyF rA xG yG dxV dyU rAz dxC dyC rAw rAs dxG dyG AngleCS AngleSN
(PID.TID 0000.0001) tile:   4 ; Read from file grid_cs32.face004.bin
(PID.TID 0000.0001)   => xC yC dxF dyF rA xG yG dxV dyU rAz dxC dyC rAw rAs dxG dyG AngleCS AngleSN
(PID.TID 0000.0001) tile:   5 ; Read from file grid_cs32.face005.bin
(PID.TID 0000.0001)   => xC yC dxF dyF rA xG yG dxV dyU rAz dxC dyC rAw rAs dxG dyG AngleCS AngleSN
(PID.TID 0000.0001) tile:   6 ; Read from file grid_cs32.face006.bin
(PID.TID 0000.0001)   => xC yC dxF dyF rA xG yG dxV dyU rAz dxC dyC rAw rAs dxG dyG AngleCS AngleSN
(PID.TID 0000.0001) %MON XC_max                       =   1.7854351589505E+02
(PID.TID 0000.0001) %MON XC_min                       =  -1.7854351589505E+02
(PID.TID 0000.0001) %MON XC_mean                      =  -4.6999441375798E-15
(PID.TID 0000.0001) %MON XC_sd                        =   1.0355545336287E+02
(PID.TID 0000.0001) %MON XG_max                       =   1.8000000000000E+02
(PID.TID 0000.0001) %MON XG_min                       =  -1.7708797161002E+02
(PID.TID 0000.0001) %MON XG_mean                      =   1.8796250616675E+00
(PID.TID 0000.0001) %MON XG_sd                        =   1.0410625309932E+02
(PID.TID 0000.0001) %MON DXC_max                      =   3.2375185836900E+05
(PID.TID 0000.0001) %MON DXC_min                      =   1.1142031410131E+05
(PID.TID 0000.0001) %MON DXC_mean                     =   2.8605689051214E+05
(PID.TID 0000.0001) %MON DXC_sd                       =   3.4042087138252E+04
(PID.TID 0000.0001) %MON DXF_max                      =   3.2369947500827E+05
(PID.TID 0000.0001) %MON DXF_min                      =   1.2020820513318E+05
(PID.TID 0000.0001) %MON DXF_mean                     =   2.8605437324820E+05
(PID.TID 0000.0001) %MON DXF_sd                       =   3.4050524252539E+04
(PID.TID 0000.0001) %MON DXG_max                      =   3.2375195872773E+05
(PID.TID 0000.0001) %MON DXG_min                      =   1.0098378008791E+05
(PID.TID 0000.0001) %MON DXG_mean                     =   2.8603818508931E+05
(PID.TID 0000.0001) %MON DXG_sd                       =   3.4140406908005E+04
(PID.TID 0000.0001) %MON DXV_max                      =   3.2380418162750E+05
(PID.TID 0000.0001) %MON DXV_min                      =   8.0152299824136E+04
(PID.TID 0000.0001) %MON DXV_mean                     =   2.8603970633619E+05
(PID.TID 0000.0001) %MON DXV_sd                       =   3.4145142117723E+04
(PID.TID 0000.0001) %MON YC_max                       =   8.7940663871962E+01
(PID.TID 0000.0001) %MON YC_min                       =  -8.7940663871962E+01
(PID.TID 0000.0001) %MON YC_mean                      =   0.0000000000000E+00
(PID.TID 0000.0001) %MON YC_sd                        =   3.8676242969072E+01
(PID.TID 0000.0001) %MON YG_max                       =   9.0000000000000E+01
(PID.TID 0000.0001) %MON YG_min                       =  -9.0000000000000E+01
(PID.TID 0000.0001) %MON YG_mean                      =  -1.2094344438470E-15
(PID.TID 0000.0001) %MON YG_sd                        =   3.9086186579984E+01
(PID.TID 0000.0001) %MON DYC_max                      =   3.2375185836900E+05
(PID.TID 0000.0001) %MON DYC_min                      =   1.1142031410131E+05
(PID.TID 0000.0001) %MON DYC_mean                     =   2.8605689051214E+05
(PID.TID 0000.0001) %MON DYC_sd                       =   3.4042087138252E+04
(PID.TID 0000.0001) %MON DYF_max                      =   3.2369947500827E+05
(PID.TID 0000.0001) %MON DYF_min                      =   1.2020820513318E+05
(PID.TID 0000.0001) %MON DYF_mean                     =   2.8605437324820E+05
(PID.TID 0000.0001) %MON DYF_sd                       =   3.4050524252539E+04
(PID.TID 0000.0001) %MON DYG_max                      =   3.2375195872773E+05
(PID.TID 0000.0001) %MON DYG_min                      =   1.0098378008791E+05
(PID.TID 0000.0001) %MON DYG_mean                     =   2.8603818508931E+05
(PID.TID 0000.0001) %MON DYG_sd                       =   3.4140406908005E+04
(PID.TID 0000.0001) %MON DYU_max                      =   3.2380418162750E+05
(PID.TID 0000.0001) %MON DYU_min                      =   8.0152299824136E+04
(PID.TID 0000.0001) %MON DYU_mean                     =   2.8603970633619E+05
(PID.TID 0000.0001) %MON DYU_sd                       =   3.4145142117723E+04
(PID.TID 0000.0001) %MON RA_max                       =   1.0479260248419E+11
(PID.TID 0000.0001) %MON RA_min                       =   1.4019007022556E+10
(PID.TID 0000.0001) %MON RA_mean                      =   8.2992246709265E+10
(PID.TID 0000.0001) %MON RA_sd                        =   1.7509089299457E+10
(PID.TID 0000.0001) %MON RAW_max                      =   1.0480965274559E+11
(PID.TID 0000.0001) %MON RAW_min                      =   1.2166903467143E+10
(PID.TID 0000.0001) %MON RAW_mean                     =   8.2992246709235E+10
(PID.TID 0000.0001) %MON RAW_sd                       =   1.7481917919656E+10
(PID.TID 0000.0001) %MON RAS_max                      =   1.0480965274559E+11
(PID.TID 0000.0001) %MON RAS_min                      =   1.2166903467143E+10
(PID.TID 0000.0001) %MON RAS_mean                     =   8.2992246709235E+10
(PID.TID 0000.0001) %MON RAS_sd                       =   1.7481917919656E+10
(PID.TID 0000.0001) %MON RAZ_max                      =   1.0484349334619E+11
(PID.TID 0000.0001) %MON RAZ_min                      =   8.8317900612505E+09
(PID.TID 0000.0001) %MON RAZ_mean                     =   8.2992246709235E+10
(PID.TID 0000.0001) %MON RAZ_sd                       =   1.7482297311044E+10
(PID.TID 0000.0001) %MON AngleCS_max                  =   9.9999994756719E-01
(PID.TID 0000.0001) %MON AngleCS_min                  =  -9.9968286884824E-01
(PID.TID 0000.0001) %MON AngleCS_mean                 =   3.3078850405987E-01
(PID.TID 0000.0001) %MON AngleCS_sd                   =   6.2496317138039E-01
(PID.TID 0000.0001) %MON AngleSN_max                  =   9.9968286884824E-01
(PID.TID 0000.0001) %MON AngleSN_min                  =  -9.9999994756719E-01
(PID.TID 0000.0001) %MON AngleSN_mean                 =  -3.3078850405987E-01
(PID.TID 0000.0001) %MON AngleSN_sd                   =   6.2496317138039E-01
(PID.TID 0000.0001)  MDSREADFIELD: opening global file: bathy_Hmin50.bin
(PID.TID 0000.0001) // =======================================================
(PID.TID 0000.0001) // Field Model R_low (ini_masks_etc) at iteration          1
(PID.TID 0000.0001) // CMIN =         -5.200000000000000E+03
(PID.TID 0000.0001) // CMAX =         -5.000000000000000E+01
(PID.TID 0000.0001) // CINT =          1.907407407407407E+02
(PID.TID 0000.0001) // SYMBOLS (CMIN->CMAX): -abcdefghijklmnopqrstuvwxyz+
(PID.TID 0000.0001) //                  0.0: .
(PID.TID 0000.0001) // RANGE I (Lo:Hi:Step):(  -2: 195:   1)
(PID.TID 0000.0001) // RANGE J (Lo:Hi:Step):(  35:  -2:  -1)
(PID.TID 0000.0001) // RANGE K (Lo:Hi:Step):(   1:   1:   1)
(PID.TID 0000.0001) // =======================================================
(PID.TID 0000.0001) K =   1
(PID.TID 0000.0001) //                I=7       I=17      I=27      I=31      I=41      I=51      I=61      I=65      I=75      I=85      I=95      I=99      I=109     I=119     I=129     I=133     I=143     I=153     I=163     I=167     I=177     I=187
(PID.TID 0000.0001) // |--J--|210123456|890123456|890123456|890123450|234567890|234567890|234567890|234567234|678901234|678901234|678901234|678945678|012345678|012345678|012345678|016789012|456789012|456789012|456789012|890123456|890123456|890123456|89012345
(PID.TID 0000.0001) //     35 cac--cbbeefjkfefw+..........zpu......................................kqnzrqq-b-da----bbbbfu..............fdddccaaddccaadcdddcbbbbcdddcccdffffghgffffddefligfiljfba---aafddehy...pwvlhfffcbagfccbagfcceeffffjlkjgaa---bfvheeln-aesaaa
(PID.TID 0000.0001) //     34 --ba-abcehjnldcclz+........spps.....................................vkqn+xnnabbcbba--aabfu+..............hcbaaaaacaaaaaccdccbaaabbddddccdffffghfeeeeedefiffefilhfcaaaacgceei.......zomggfcaecbfcaecbbccddefilihecbaacbaajfega-aesfee
(PID.TID 0000.0001) //     33 -abbbccceiomkfdbbc+.......+s........................................xsrxzz+zdcddb-----adu+...............hcbaa--acaa--accddba--bbbddddccdfffhhgfeeddccedfeddfgikhfffdfgccffw........zohhgebbaagebbaaaaaccdfhlhfefdcccaabjefbaaafooss
(PID.TID 0000.0001) //     32 -bddefhhkqqlgfaakqz..v.+..+.......................................++..u+....gfdba----adu+................kdcaaa-acaaa-accdcb---bbbcdddddefffggfeeedccccccbbdcdfgghhiihcbeiw.........+ynjgebaaagebaaaa-aacccfikkhecccbbbaaabaadfklnqp
(PID.TID 0000.0001) //     31 bbcffijnpnqneaaat..umrr+s.z.......................................+++++.ztsvifeb--dfdfu+................+lkdca--abca--abcccb---bbbbddddeffflhfeeeecbbbbaa-abbacbcdceffbbfw+..........++ujfbaaajfbaaa----aacffiljgfffcca--adfikkiihhh
(PID.TID 0000.0001) //     30 -adgillkkkifcadcx.ymmqzqikvnnps...................................+++++wmegtlifcacdlqx+++...............mligea---aea---abbbb---abaaddddeedkmeddefdbbbaaac---b--aaaaabaabm..............+viba--viba-------acdefinmlgiieb-chnnnmlmlgff
(PID.TID 0000.0001) //     29 -cfiljigfjd--efdozy...+ximpnnuz....................................+++yqddhpljhcbbchz+......++.........+mmhffc----fc----aaba------acdddcbcineddgdbaaa---dd--a------aa-bfz...............+qe---+qe---aa---aedeegknmlgiigcdfhpokkimlfd
(PID.TID 0000.0001) //     28 abgkhfcccea-bdei........t..........................................++zwgfcfkknhccbbhwwy.....+++........+njfeed----ed-----aa-------abddcabcnfddegcaaa----lf------------dk+................+ja--.+ja------bffdddehfd--bedaacfhpnligiih
(PID.TID 0000.0001) //     27 acghfbaaaa-achmy............................+++....................++vnbbbclkpkeeecflmqxy....++........+lhfeecc---ecc------------aaadcbabcfhddccba------qd-----------irw.................++e--.++e-----mhmijddda--------ahhfiokhedeg
(PID.TID 0000.0001) //     26 adhfca-----bfiv.............................++sy...................+tq-fdbblknqiheddefhiksz++++........zkhfdccb---ccb------------aabdcaaaacfddbca-------xfa-abb-----vvv...................+wa-..+wa---mlmkijhc----------cjjffiheb-aa
(PID.TID 0000.0001) //     25 achfa------ch+..................w.....w.......njo+................+x-----bcgiqqojfefiiiijmy.++.........zkhfdbaa---baa-------daa---acccaaaacccca--------a+udaabbb----tei...................++qd..++qdeqnghiljcaaaaidaa----beedeeca--b
(PID.TID 0000.0001) //     24 aeifa--acbcei...................w.....w.......likn+.....++.....++znpa----bbdfnlmnjhinlksssw............qhfeca-----a--------addc--aeffaaaaaaccb-a----a--b++udbbaba---ven....................++x...++xywnfgllcbbabegkecba----ddddcaacd
(PID.TID 0000.0001) //     23 bfida-aabchjk...................zz....zz.....nhhijz....tqq.....+ujgzgd---abccegklkkknols..xuu..........zgfdba-----a--------bcd---affaaadffabbb-----aa-bc+.+ufb-----l.gx...........s.........++....++zzkfilfccccoz..ulkcd---bccnfdddd
(PID.TID 0000.0001) //     22 afhfaa---bfgi....................zz..r.zz..rnjffggm...nlmn+....+sffzya--aabcaaffdfhimrmp...yuu.++.......zudba-----a--------adc---dda-adffe-aa--------aaa...+ufc-baaqvhh..........dcfeeh......+.....++zggqvifefhz......zobbaccfwuffee
(PID.TID 0000.0001) //     21 abcgca----abe.....................ysst..ysstlgeeeeoz..ijklt+....lfjzzf---adfdaadcehllotq....yy+++zzs.....+zcba----ba-------cdd--aaa----df------------aaa....+upjdcy.vohq.......+idcdfeeefwz...fwz....+hhn.vklox.........gdccfjwrigff
(PID.TID 0000.0001) //     20 bbbcgfcaa-aae+.......................l.....lcgfdddhq.+hiilnz++.+oquxyz--adgkcaabcfmtooyxz......+yuiiy....++gb-----b--------ddcca-a-----acbaa------bbaaaa.......ywxy.lulo.lv...kcdgddffefffilyxffilyx+fffk.+xyyy.........mgeimvskjkll
(PID.TID 0000.0001) //     19 mfeccdghfeegcbt......................a.....aafifccgnrzgghjry.+++sr+lq.--edfkxtkblwnnsp.vv......skhggt...+++t---------------bdaf---------edd-------adlaaa..........vnhzy.tllqiedccdhggfggffiiggffiiggfcbdgy..yz..........xigqophijkki
(PID.TID 0000.0001) //     18 .wifedfkhfegbbcivlqfoz..............ja....jaacfihggokeeffgt..++++..hhlfdeddk..qcz+.zwxtsttz..ysrkhot++++++zig-----g--------b--f---------egqqqaa----frb--........+kkrhw.vqmlnieddcdehgggffgigedfgigedbaaceiy.............zilrddefikkh
(PID.TID 0000.0001) //     17 .+wfeefikhgcbbccaaacgn.............ica...icaaccfihfoedddeedy..++...nnqwgfeeky.z++..+zsjjllllljllpjos+++.+zhhi-----i-----e-----ea--------foqqoqqo--hlwgea........+nk+..xiioonhfefddegihhghigfdbhigfdbaaabdgx..............nheddefiklh
(PID.TID 0000.0001) //     16 ...wiheddeccdfhfbabdfl............jdba..jdbaddddgifkccccdccd+.++..++ynvz.tkkmu....++zyslllllkhggkmpy++...ihhi-----i-----ea---feb-----a-acnoohfghknvmwnuc.........qhu..hhhkojgffgeefghihhiieedbiieedbaaabcdy..............ygddeghiljg
(PID.TID 0000.0001) //     15 .....ylea--acfihebcbbes..........sfcbb.sfcbbngfffigcaaabdbcac+.+++++zgmpx...mm....++..zslwz.yhhhhnz+++...rhgc----ac----ab----ige----acaaalllkddfiy..yswx.........thk.xgghiligfghfefhhhhiiheedciheedcdbbabdmz.............zfdeghikkif
(PID.TID 0000.0001) //     14 .......c---acgkhdcc--di..........ofddc.ofddchohffikaaaaabaaa-aw+.+ysnggox++.qrv..........yzzzzrjil+++....qhgd-----d-----a-----i---cccdeabkklldinqssy..xx..........+y.uhghikihgfghefgihhhgeeeeegeeeeeddbaadhw.............nedeghjjhfe
(PID.TID 0000.0001) //     13 ......+b----cfkhec---afz.........nhfdf.nhfdffholghkaaaaaba-a---flkkuswyy++++zr...........zzzzz++ry++......yd--------------------aeecdeidfkkqnqlmqquukqqm.............iihiijjhfefgefhjihiffgggfffgggffecaabelx...........zjecehijhfec
(PID.TID 0000.0001) //     12 ......ec----chjhec---ag..........skiqd.skiqddeiiiifaaabae--a---dd--iu+++.+++q++..........+z+++++.+++....++.s------------------a-ceccdejhlllkqlkklssiccde............wjkkkjjjigeefffgjiiighiiihghiiihhhdaabdffghtxx......mfccehjiffdb
(PID.TID 0000.0001) //     11 .....pdca--achlheba--ai..........nkn.f.nkn.fdemijidaaaabi-------a--q+....++.is...........+++++..........+yyza----ba----b-----a--ccccddkhieekkossssfbbbbc...........njjijhhihijhgggggjjjjijkkkkijkkkkjjhcaacddeegpy.....xfdccdhjgfdda
(PID.TID 0000.0001) //     10 .....wfdb--achlhea---an.........uos..duos..dcemikkfdcaabi-------equ+........k...........................zyvuq----cq----cc----a---dcfhkopqjeissrnpfbbcccd.........zslihhigghgijjihhhhkllkkkkkkjkkkkkjkkkedccdeeeeipz..zwhccbcdhgfddca
(PID.TID 0000.0001) //      9 .....vgec---bfikca--cjl+.......+nnv.+cnnv.+ccffhkkiddaadha-----as++.........vz++........................zxuuk-----k------a---a----djmqrrnlllsoiddcccccdj........+zjijhfgfggffhjkkkiillljihhghgihhghgihighdeeffgghimnnjgecbbcdgfeccba
(PID.TID 0000.0001) //      8 ....zleca---afjfca--hdfz.......vkky.jckky.jceddefijffdddhb--a-afv...........n..ss.........................+yku----ku--------------ejnpqqnninnritqdccchkm.......wihgghgeffffeefhijkjkljiigeeffegeeffefffhjhhikkklljklmhffeeeggfdcbaay
(PID.TID 0000.0001) //      7 ..+zohec--abcfkhecbchbdx.......qiht.faiht.faaaabdgijgfededcdcb-f+...........n...pz.........................+zu----zu--------------edefqgqddsz+......+yudm+....tiggfggfeeeefeeefiiiijkiihheddddheddddddddjjllliijhfkmmkkjjhijgdcba--q
(PID.TID 0000.0001) //      6 .+yomfddcaabefkifdchaadt......uqdeisc-deisc----dfefgifffkklldc--v...........p...pp.........................v.x----.x---------a----fbbpqgzenx+........zdbllkhhfffffffgfeeeeeeeefhhhhijihhffddcbffddcbbbbdhhiihedddb-cfhhhjjjieca----+
(PID.TID 0000.0001) //      5 .+nhgffkghccfhkhffgdaackz....uoibcimlabcimlaaacfbddfjjhijeehf-a-c...........s...su.........................qk.yi--k.yi-------gha-fjddqs+xkrz.........q-bikdccdeeeeeeedddedddddgghhhhjhhgffcbbaffcbbaaaaddfegecca----dfeefhfgdb-----+
(PID.TID 0000.0001) //      4 +ujhgfllfhdffhkfffca-aady...llnabdopfcbdopfcbdgdbcdehlihgfddc--ms..........................................okn.zd-kn.zd---eciiiicfkeeqy.ysz..........n-agdcbbdeddedcdcccdddcddffggghiggfffdbaaffdbaa---acdcccba--abvfedeffdcca----b+
(PID.TID 0000.0001) //      3 vjggfcceeffffjlkjgaa---bfvheeln-aesphfaesphfdhgabddeflihhgfecbaaayq+++++...................................kqnz.vtqnz.vtpkllgdccfkkkkk..++..........+g--ecaaadcdddcbbbbcdddcccdffffghgffffdcaaffdcaa----abcaaaa-acxxmecdjmdbba----r+
(PID.TID 0000.0001) //      2 ifeecbbccddefilihecbaacbaajfega-aesqhfaesqhffiea-cdeflkkljifeddcba---bry+.................................vkqn+.sgqn+.sghfcbcbbbdgfdek.++++.........+l--aaaaaccdccbaaabbddddccdffffghfeeeeecbaeeecba------baaaa-euwxqdbcdkud-----sy+
(PID.TID 0000.0001) //      1 bbbbaaaaaccdfhlhfefdcccaabjefbaaafonhgafonhglid--adfgkkkklkhffddca-----s++++..............................xsrxz.terxz.tedcbbbbaaadddet.++++.........+l----a-accddba--bbbddddccdfffhhgfeeddccbaddccba-------aaaabgns.qcbcchyzqngll++.
(PID.TID 0000.0001) //      0 aaaaaaa-aacccfikkhecccbbbaaabaadfkllilfkllilmgebaadfijjiiikjhffdcba-----lllg............................++..u+..zmu+..zmdfbd---a-aeef.xx+..........+++s-----accdcb---bbbcdddddefffggfeeedcccbbdcccbba----aa--alrwwy.kcbccc+...++++..
(PID.TID 0000.0001) //     -1 -aaaaa----aacffiljgfffcca--adfikkiikimkiikimiiheccfurkiffhijjigfecb-----l---............................+++++.z+.w+.z+.wqgbf-------dgzpoy+........+ys+yr-aa-abcccb---bbbbddddeffflhfeeeecbbcbbcbbcbbaa----a--bdflm.yuibbcc.......+..
(PID.TID 0000.0001) //     -2 -aaa-------acdefinmlgiieb-chnnnmlmlfkllmlfklklkhednwwsheeghhijjgfdca----g---............................+++++wmu+++wmu++ywn--------fwvmgy+........+r-.++abc--abbbb---abaaddddeedkmeddefdbbbdcbbbbdcbaa-------ba-hv.susfbcc.......+..
(PID.TID 0000.0001) // =======================================================
(PID.TID 0000.0001) // END OF FIELD                                          =
(PID.TID 0000.0001) // =======================================================
(PID.TID 0000.0001) 
(PID.TID 0000.0001) // =======================================================
(PID.TID 0000.0001) // Field Model Ro_surf (ini_masks_etc) at iteration          1
(PID.TID 0000.0001) // CMIN =         -7.105427357601002E-15
(PID.TID 0000.0001) // CMAX =         -7.105427357601002E-15
(PID.TID 0000.0001) // CINT =          0.000000000000000E+00
(PID.TID 0000.0001) // SYMBOLS (CMIN->CMAX): -abcdefghijklmnopqrstuvwxyz+
(PID.TID 0000.0001) //                  0.0: .
(PID.TID 0000.0001) // RANGE I (Lo:Hi:Step):(  -2: 195:   1)
(PID.TID 0000.0001) // RANGE J (Lo:Hi:Step):(  35:  -2:  -1)
(PID.TID 0000.0001) // RANGE K (Lo:Hi:Step):(   1:   1:   1)
(PID.TID 0000.0001) // =======================================================
(PID.TID 0000.0001) // =======================================================
(PID.TID 0000.0001) // END OF FIELD                                          =
(PID.TID 0000.0001) // =======================================================
(PID.TID 0000.0001) 
(PID.TID 0000.0001) // =======================================================
(PID.TID 0000.0001) // Field hFacC at iteration          1
(PID.TID 0000.0001) // CMIN =          1.000000000000000E+00
(PID.TID 0000.0001) // CMAX =          1.000000000000000E+00
(PID.TID 0000.0001) // CINT =          0.000000000000000E+00
(PID.TID 0000.0001) // SYMBOLS (CMIN->CMAX): -abcdefghijklmnopqrstuvwxyz+
(PID.TID 0000.0001) //                  0.0: .
(PID.TID 0000.0001) // RANGE I (Lo:Hi:Step):(  -2: 195:   1)
(PID.TID 0000.0001) // RANGE J (Lo:Hi:Step):(  35:  -2:  -1)
(PID.TID 0000.0001) // RANGE K (Lo:Hi:Step):(   1:   1:   1)
(PID.TID 0000.0001) // =======================================================
(PID.TID 0000.0001) // =======================================================
(PID.TID 0000.0001) // END OF FIELD                                          =
(PID.TID 0000.0001) // =======================================================
(PID.TID 0000.0001) 
(PID.TID 0000.0001) // =======================================================
(PID.TID 0000.0001) // Field hFacW at iteration          1
(PID.TID 0000.0001) // CMIN =          1.000000000000000E+00
(PID.TID 0000.0001) // CMAX =          1.000000000000000E+00
(PID.TID 0000.0001) // CINT =          0.000000000000000E+00
(PID.TID 0000.0001) // SYMBOLS (CMIN->CMAX): -abcdefghijklmnopqrstuvwxyz+
(PID.TID 0000.0001) //                  0.0: .
(PID.TID 0000.0001) // RANGE I (Lo:Hi:Step):(  -2: 195:   1)
(PID.TID 0000.0001) // RANGE J (Lo:Hi:Step):(  35:  -2:  -1)
(PID.TID 0000.0001) // RANGE K (Lo:Hi:Step):(   1:   1:   1)
(PID.TID 0000.0001) // =======================================================
(PID.TID 0000.0001) // =======================================================
(PID.TID 0000.0001) // END OF FIELD                                          =
(PID.TID 0000.0001) // =======================================================
(PID.TID 0000.0001) 
(PID.TID 0000.0001) // =======================================================
(PID.TID 0000.0001) // Field hFacS at iteration          1
(PID.TID 0000.0001) // CMIN =          1.000000000000000E+00
(PID.TID 0000.0001) // CMAX =          1.000000000000000E+00
(PID.TID 0000.0001) // CINT =          0.000000000000000E+00
(PID.TID 0000.0001) // SYMBOLS (CMIN->CMAX): -abcdefghijklmnopqrstuvwxyz+
(PID.TID 0000.0001) //                  0.0: .
(PID.TID 0000.0001) // RANGE I (Lo:Hi:Step):(  -2: 195:   1)
(PID.TID 0000.0001) // RANGE J (Lo:Hi:Step):(  35:  -2:  -1)
(PID.TID 0000.0001) // RANGE K (Lo:Hi:Step):(   1:   1:   1)
(PID.TID 0000.0001) // =======================================================
(PID.TID 0000.0001) // =======================================================
(PID.TID 0000.0001) // END OF FIELD                                          =
(PID.TID 0000.0001) // =======================================================
(PID.TID 0000.0001) 
(PID.TID 0000.0001) 
(PID.TID 0000.0001) // ===================================
(PID.TID 0000.0001) // GAD parameters :
(PID.TID 0000.0001) // ===================================
(PID.TID 0000.0001) tempAdvScheme =   /* Temp. Horiz.Advection scheme selector */
(PID.TID 0000.0001)                       2
(PID.TID 0000.0001)     ;
(PID.TID 0000.0001) tempVertAdvScheme =   /* Temp. Vert. Advection scheme selector */
(PID.TID 0000.0001)                       2
(PID.TID 0000.0001)     ;
(PID.TID 0000.0001) tempMultiDimAdvec =   /* use Muti-Dim Advec method for Temp */
(PID.TID 0000.0001)                   F
(PID.TID 0000.0001)     ;
(PID.TID 0000.0001) AdamsBashforthGt =   /* apply Adams-Bashforth extrapolation on Gt */
(PID.TID 0000.0001)                   T
(PID.TID 0000.0001)     ;
(PID.TID 0000.0001) AdamsBashforth_T =   /* apply Adams-Bashforth extrapolation on Temp */
(PID.TID 0000.0001)                   F
(PID.TID 0000.0001)     ;
(PID.TID 0000.0001) saltAdvScheme =   /* Salt. Horiz.advection scheme selector */
(PID.TID 0000.0001)                       2
(PID.TID 0000.0001)     ;
(PID.TID 0000.0001) saltVertAdvScheme =   /* Salt. Vert. Advection scheme selector */
(PID.TID 0000.0001)                       2
(PID.TID 0000.0001)     ;
(PID.TID 0000.0001) saltMultiDimAdvec =   /* use Muti-Dim Advec method for Salt */
(PID.TID 0000.0001)                   F
(PID.TID 0000.0001)     ;
(PID.TID 0000.0001) AdamsBashforthGs =   /* apply Adams-Bashforth extrapolation on Gs */
(PID.TID 0000.0001)                   T
(PID.TID 0000.0001)     ;
(PID.TID 0000.0001) AdamsBashforth_S =   /* apply Adams-Bashforth extrapolation on Salt */
(PID.TID 0000.0001)                   F
(PID.TID 0000.0001)     ;
(PID.TID 0000.0001) // ===================================
(PID.TID 0000.0001) ------------------------------------------------------------
(PID.TID 0000.0001) DIAGNOSTICS_SET_LEVELS: done
(PID.TID 0000.0001)  Total Nb of available Diagnostics: ndiagt= 198
(PID.TID 0000.0001)  write list of available Diagnostics to file: available_diagnostics.log
(PID.TID 0000.0001) SETDIAG: Allocate  1 x  1 Levels for Diagnostic #  23 ETAN
(PID.TID 0000.0001) SETDIAG: Allocate  1 x  1 Levels for Diagnostic #  24 ETANSQ
(PID.TID 0000.0001) SETDIAG: Allocate  1 x  1 Levels for Diagnostic #  25 DETADT2
(PID.TID 0000.0001) SETDIAG: Allocate  1 x  1 Levels for Diagnostic #  67 PHIBOT
(PID.TID 0000.0001) SETDIAG: Allocate  1 x  1 Levels for Diagnostic #  68 PHIBOTSQ
(PID.TID 0000.0001) SETDIAG: Allocate  1 x  1 Levels for Diagnostic #  71 oceTAUX
(PID.TID 0000.0001) SETDIAG: Allocate  1 x  1 Levels for Diagnostic #  72 oceTAUY
(PID.TID 0000.0001) SETDIAG: Allocate  1 x  1 Levels for Diagnostic #  84 TFLUX
(PID.TID 0000.0001) SETDIAG: Allocate  1 x  1 Levels for Diagnostic #  85 SFLUX
(PID.TID 0000.0001) SETDIAG: Allocate  1 x  1 Levels for Diagnostic #  79 oceFreez
(PID.TID 0000.0001) SETDIAG: Allocate  1 x  1 Levels for Diagnostic #  80 TRELAX
(PID.TID 0000.0001) SETDIAG: Allocate  1 x  1 Levels for Diagnostic #  81 SRELAX
(PID.TID 0000.0001) SETDIAG: Allocate 15 x  1 Levels for Diagnostic #  30 UVEL
(PID.TID 0000.0001) SETDIAG: Allocate 15 x  1 Levels for Diagnostic #  31 VVEL
(PID.TID 0000.0001) SETDIAG: Allocate 15 x  1 Levels for Diagnostic #  32 WVEL
(PID.TID 0000.0001) SETDIAG: Allocate 15 x  1 Levels for Diagnostic #  65 PHIHYD
(PID.TID 0000.0001) SETDIAG: Allocate 15 x  1 Levels for Diagnostic #  44 VVELMASS
(PID.TID 0000.0001) SETDIAG: Allocate 15 x  1 Levels for Diagnostic #  43 UVELMASS
(PID.TID 0000.0001) SETDIAG: Allocate 15 x  1 Levels for Diagnostic #  38 WVELSQ
(PID.TID 0000.0001) SETDIAG: Allocate 15 x  1 Levels for Diagnostic #  26 THETA
(PID.TID 0000.0001) SETDIAG: Allocate 15 x  1 Levels for Diagnostic #  46 UTHMASS
(PID.TID 0000.0001) SETDIAG: Allocate 15 x  1 Levels for Diagnostic #  47 VTHMASS
(PID.TID 0000.0001) SETDIAG: Allocate 15 x  1 Levels for Diagnostic #  48 WTHMASS
(PID.TID 0000.0001) SETDIAG: Allocate 15 x  1 Levels for Diagnostic #  27 SALT
(PID.TID 0000.0001) SETDIAG: Allocate 15 x  1 Levels for Diagnostic #  49 USLTMASS
(PID.TID 0000.0001) SETDIAG: Allocate 15 x  1 Levels for Diagnostic #  50 VSLTMASS
(PID.TID 0000.0001) SETDIAG: Allocate 15 x  1 Levels for Diagnostic #  51 WSLTMASS
(PID.TID 0000.0001) SETDIAG: Allocate  1 x 12 Levels for Diagnostic # 181 SI_Fract
(PID.TID 0000.0001) SETDIAG: Allocate  1 x 12 Levels for Diagnostic # 182 SI_Thick
(PID.TID 0000.0001) - NOTE - SETDIAG: Counter Diagnostic # 181 SI_Fract has already been set
(PID.TID 0000.0001) SETDIAG: Allocate  1 x 12 Levels for Diagnostic # 183 SI_SnowH
(PID.TID 0000.0001) - NOTE - SETDIAG: Counter Diagnostic # 181 SI_Fract has already been set
(PID.TID 0000.0001) SETDIAG: Allocate  1 x 12 Levels for Diagnostic # 184 SI_Tsrf
(PID.TID 0000.0001) - NOTE - SETDIAG: Counter Diagnostic # 181 SI_Fract has already been set
(PID.TID 0000.0001) SETDIAG: Allocate  1 x 12 Levels for Diagnostic # 185 SI_Tice1
(PID.TID 0000.0001) - NOTE - SETDIAG: Counter Diagnostic # 181 SI_Fract has already been set
(PID.TID 0000.0001) SETDIAG: Allocate  1 x 12 Levels for Diagnostic # 186 SI_Tice2
(PID.TID 0000.0001) - NOTE - SETDIAG: Counter Diagnostic # 181 SI_Fract has already been set
(PID.TID 0000.0001) SETDIAG: Allocate  1 x 12 Levels for Diagnostic # 187 SI_Qice1
(PID.TID 0000.0001) - NOTE - SETDIAG: Counter Diagnostic # 182 SI_Thick has already been set
(PID.TID 0000.0001) SETDIAG: Allocate  1 x 12 Levels for Diagnostic # 188 SI_Qice2
(PID.TID 0000.0001) - NOTE - SETDIAG: Counter Diagnostic # 182 SI_Thick has already been set
(PID.TID 0000.0001) SETDIAG: Allocate  1 x 12 Levels for Diagnostic # 190 SIsnwAge
(PID.TID 0000.0001) SETDIAG: Allocate  1 x 12 Levels for Diagnostic # 191 SIsnwPrc
(PID.TID 0000.0001) - NOTE - SETDIAG: Counter Diagnostic # 181 SI_Fract has already been set
(PID.TID 0000.0001) SETDIAG: Allocate  1 x 12 Levels for Diagnostic # 189 SIalbedo
(PID.TID 0000.0001) - NOTE - SETDIAG: Counter Diagnostic # 181 SI_Fract has already been set
(PID.TID 0000.0001) SETDIAG: Allocate  1 x 12 Levels for Diagnostic # 194 SIflx2oc
(PID.TID 0000.0001) SETDIAG: Allocate  1 x 12 Levels for Diagnostic # 195 SIfrw2oc
(PID.TID 0000.0001) SETDIAG: Allocate  1 x 12 Levels for Diagnostic # 196 SIsaltFx
(PID.TID 0000.0001) SETDIAG: Allocate  1 x 12 Levels for Diagnostic # 192 SIflxAtm
(PID.TID 0000.0001) SETDIAG: Allocate  1 x 12 Levels for Diagnostic # 193 SIfrwAtm
(PID.TID 0000.0001)   space allocated for all diagnostics:   429 levels
(PID.TID 0000.0001)   set mate pointer for diag #  30  UVEL     , Parms: UU   031MR
(PID.TID 0000.0001)   set mate pointer for diag #  31  VVEL     , Parms: VV   030MR
(PID.TID 0000.0001)   set mate pointer for diag #  44  VVELMASS , Parms: VV   043MR
(PID.TID 0000.0001)   set mate pointer for diag #  43  UVELMASS , Parms: UU   044MR
(PID.TID 0000.0001)   set mate pointer for diag #  46  UTHMASS  , Parms: UU   047MR
(PID.TID 0000.0001)   set mate pointer for diag #  47  VTHMASS  , Parms: VV   046MR
(PID.TID 0000.0001)   set mate pointer for diag #  49  USLTMASS , Parms: UU   050MR
(PID.TID 0000.0001)   set mate pointer for diag #  50  VSLTMASS , Parms: VV   049MR
(PID.TID 0000.0001) DIAGNOSTICS_SET_POINTERS: Set levels for Outp.Stream: dynDiag
(PID.TID 0000.0001)  Levels:       1.   2.   3.   4.   5.   6.   7.   8.   9.  10.  11.  12.  13.  14.  15.
(PID.TID 0000.0001) DIAGNOSTICS_SET_POINTERS: Set levels for Outp.Stream: thSIceDiag
(PID.TID 0000.0001)  Levels:       1.
(PID.TID 0000.0001) DIAGNOSTICS_SET_POINTERS: done
(PID.TID 0000.0001) ------------------------------------------------------------
 DIAGSTATS_SET_REGIONS: start reading region-mask file: regMask_lat24.bin
 DIAGSTATS_SET_REGIONS:  reading set k=  1
(PID.TID 0000.0001)  MDSREADFIELD: opening global file: regMask_lat24.bin
 DIAGSTATS_SET_REGIONS:          set k=  1 <= done
(PID.TID 0000.0001) DIAGSTATS_SET_REGIONS: define   3 regions:  1  2  3
(PID.TID 0000.0001) ------------------------------------------------------------
(PID.TID 0000.0001) SETDIAG: Allocate  1 Levels for Stats-Diag #  23 ETAN
(PID.TID 0000.0001) SETDIAG: Allocate 15 Levels for Stats-Diag #  30 UVEL
(PID.TID 0000.0001) SETDIAG: Allocate 15 Levels for Stats-Diag #  31 VVEL
(PID.TID 0000.0001) SETDIAG: Allocate 15 Levels for Stats-Diag #  32 WVEL
(PID.TID 0000.0001) SETDIAG: Allocate 15 Levels for Stats-Diag #  26 THETA
(PID.TID 0000.0001) SETDIAG: Allocate 15 Levels for Stats-Diag #  27 SALT
(PID.TID 0000.0001) SETDIAG: Allocate 15 Levels for Stats-Diag #  70 CONVADJ
(PID.TID 0000.0001) SETDIAG: Allocate  1 Levels for Stats-Diag #  25 DETADT2
(PID.TID 0000.0001) SETDIAG: Allocate  1 Levels for Stats-Diag # 181 SI_Fract
(PID.TID 0000.0001) SETDIAG: Allocate  1 Levels for Stats-Diag # 182 SI_Thick
(PID.TID 0000.0001) - NOTE - SETDIAG: Counter Diagnostic # 181 SI_Fract has already been set
(PID.TID 0000.0001) SETDIAG: Allocate  1 Levels for Stats-Diag # 183 SI_SnowH
(PID.TID 0000.0001) - NOTE - SETDIAG: Counter Diagnostic # 181 SI_Fract has already been set
(PID.TID 0000.0001) SETDIAG: Allocate  1 Levels for Stats-Diag # 184 SI_Tsrf
(PID.TID 0000.0001) - NOTE - SETDIAG: Counter Diagnostic # 181 SI_Fract has already been set
(PID.TID 0000.0001) SETDIAG: Allocate  1 Levels for Stats-Diag # 185 SI_Tice1
(PID.TID 0000.0001) - NOTE - SETDIAG: Counter Diagnostic # 181 SI_Fract has already been set
(PID.TID 0000.0001) SETDIAG: Allocate  1 Levels for Stats-Diag # 186 SI_Tice2
(PID.TID 0000.0001) - NOTE - SETDIAG: Counter Diagnostic # 181 SI_Fract has already been set
(PID.TID 0000.0001) SETDIAG: Allocate  1 Levels for Stats-Diag # 187 SI_Qice1
(PID.TID 0000.0001) - NOTE - SETDIAG: Counter Diagnostic # 182 SI_Thick has already been set
(PID.TID 0000.0001) SETDIAG: Allocate  1 Levels for Stats-Diag # 188 SI_Qice2
(PID.TID 0000.0001) - NOTE - SETDIAG: Counter Diagnostic # 182 SI_Thick has already been set
(PID.TID 0000.0001) SETDIAG: Allocate  1 Levels for Stats-Diag # 191 SIsnwPrc
(PID.TID 0000.0001) - NOTE - SETDIAG: Counter Diagnostic # 181 SI_Fract has already been set
(PID.TID 0000.0001) SETDIAG: Allocate  1 Levels for Stats-Diag # 189 SIalbedo
(PID.TID 0000.0001) - NOTE - SETDIAG: Counter Diagnostic # 181 SI_Fract has already been set
(PID.TID 0000.0001) SETDIAG: Allocate  1 Levels for Stats-Diag # 190 SIsnwAge
(PID.TID 0000.0001) SETDIAG: Allocate  1 Levels for Stats-Diag # 194 SIflx2oc
(PID.TID 0000.0001) SETDIAG: Allocate  1 Levels for Stats-Diag # 195 SIfrw2oc
(PID.TID 0000.0001) SETDIAG: Allocate  1 Levels for Stats-Diag # 196 SIsaltFx
(PID.TID 0000.0001) SETDIAG: Allocate  1 Levels for Stats-Diag # 192 SIflxAtm
(PID.TID 0000.0001) SETDIAG: Allocate  1 Levels for Stats-Diag # 193 SIfrwAtm
(PID.TID 0000.0001)   space allocated for all stats-diags:   108 levels
(PID.TID 0000.0001) DIAGSTATS_SET_POINTERS: done
(PID.TID 0000.0001) ------------------------------------------------------------
(PID.TID 0000.0001) DIAGSTATS_INI_IO: open file: dynStDiag.0000036000.txt , unit=     9
(PID.TID 0000.0001) DIAGSTATS_INI_IO: open file: thSIceStDiag.0000036000.txt , unit=    10
(PID.TID 0000.0001) GMREDI_CHECK: #define GMREDI
(PID.TID 0000.0001) GM_AdvForm =  /* if FALSE => use SkewFlux Form */
(PID.TID 0000.0001)                   F
(PID.TID 0000.0001)     ;
(PID.TID 0000.0001) GM_AdvSeparate = /* Calc Bolus & Euler Adv. separately */
(PID.TID 0000.0001)                   F
(PID.TID 0000.0001)     ;
(PID.TID 0000.0001) GM_ExtraDiag =  /* Tensor Extra Diag (line 1&2) non 0 */
(PID.TID 0000.0001)                   F
(PID.TID 0000.0001)     ;
(PID.TID 0000.0001) GM_isopycK =   /* Background Isopyc. Diffusivity ( m^2/s ) */
(PID.TID 0000.0001)                 8.000000000000000E+02
(PID.TID 0000.0001)     ;
(PID.TID 0000.0001)  GM_skewflx*K =   /* Background GM_SkewFlx Diffusivity ( m^2/s ) */
(PID.TID 0000.0001)                 8.000000000000000E+02
(PID.TID 0000.0001)     ;
(PID.TID 0000.0001)  GM_advec*K =   /* Backg. GM-Advec(=Bolus) Diffusivity ( m^2/s ) */
(PID.TID 0000.0001)                 0.000000000000000E+00
(PID.TID 0000.0001)     ;
(PID.TID 0000.0001)  GM_Visbeck_alpha =   /* Visbeck alpha coeff. ( ) */
(PID.TID 0000.0001)                 0.000000000000000E+00
(PID.TID 0000.0001)     ;
(PID.TID 0000.0001)  Tapering/Cliping : gkw91
(PID.TID 0000.0001)  GM_Small_Number =  /* epsilon used in slope calc */
(PID.TID 0000.0001)                 1.000000000000000E-12
(PID.TID 0000.0001)     ;
(PID.TID 0000.0001)  GM_slopeSqCutoff =  /* Slope^2 cut-off value */
(PID.TID 0000.0001)                 1.000000000000000E+48
(PID.TID 0000.0001)     ;
(PID.TID 0000.0001) %MON fCori_max                    =   1.4535016908525E-04
(PID.TID 0000.0001) %MON fCori_min                    =  -1.4535016908525E-04
(PID.TID 0000.0001) %MON fCori_mean                   =   0.0000000000000E+00
(PID.TID 0000.0001) %MON fCori_sd                     =   8.3972192788621E-05
(PID.TID 0000.0001) %MON fCoriG_max                   =   1.4544410433286E-04
(PID.TID 0000.0001) %MON fCoriG_min                   =  -1.4544410433286E-04
(PID.TID 0000.0001) %MON fCoriG_mean                  =   0.0000000000000E+00
(PID.TID 0000.0001) %MON fCoriG_sd                    =   8.4860812167727E-05
(PID.TID 0000.0001) %MON fCoriCos_max                 =   1.4540341538469E-04
(PID.TID 0000.0001) %MON fCoriCos_min                 =   5.2264550201501E-06
(PID.TID 0000.0001) %MON fCoriCos_mean                =   1.1482595466044E-04
(PID.TID 0000.0001) %MON fCoriCos_sd                  =   3.0292878037194E-05
(PID.TID 0000.0001) INI_CG2D: CG2D normalisation factor =  1.9156564154949553E-04
(PID.TID 0000.0001) INI_CG2D: cg2dTolerance = 5.809016360175293E-07 (Area=3.6388673751E+14)
(PID.TID 0000.0001) 
(PID.TID 0000.0001) CONFIG_CHECK: OK
(PID.TID 0000.0001) // =======================================================
(PID.TID 0000.0001) // Model configuration
(PID.TID 0000.0001) // =======================================================
(PID.TID 0000.0001) //
(PID.TID 0000.0001) // "Physical" paramters ( PARM01 in namelist )
(PID.TID 0000.0001) //
(PID.TID 0000.0001) buoyancyRelation = OCEANIC
(PID.TID 0000.0001) fluidIsAir  =  /* fluid major constituent is Air */
(PID.TID 0000.0001)                   F
(PID.TID 0000.0001)     ;
(PID.TID 0000.0001) fluidIsWater=  /* fluid major constituent is Water */
(PID.TID 0000.0001)                   T
(PID.TID 0000.0001)     ;
(PID.TID 0000.0001) usingPCoords =  /* use p (or p*) vertical coordinate */
(PID.TID 0000.0001)                   F
(PID.TID 0000.0001)     ;
(PID.TID 0000.0001) usingZCoords =  /* use z (or z*) vertical coordinate */
(PID.TID 0000.0001)                   T
(PID.TID 0000.0001)     ;
(PID.TID 0000.0001) tRef =   /* Reference temperature profile ( oC or K ) */
(PID.TID 0000.0001)    15 @  2.000000000000000E+01              /* K =  1: 15 */
(PID.TID 0000.0001)     ;
(PID.TID 0000.0001) sRef =   /* Reference salinity profile ( psu ) */
(PID.TID 0000.0001)    15 @  3.500000000000000E+01              /* K =  1: 15 */
(PID.TID 0000.0001)     ;
(PID.TID 0000.0001) viscAh =   /* Lateral eddy viscosity ( m^2/s ) */
(PID.TID 0000.0001)                 3.000000000000000E+05
(PID.TID 0000.0001)     ;
(PID.TID 0000.0001) viscAhMax =   /* Maximum lateral eddy viscosity ( m^2/s ) */
(PID.TID 0000.0001)                 1.000000000000000E+21
(PID.TID 0000.0001)     ;
(PID.TID 0000.0001) viscAhGrid =   /* Grid dependent lateral eddy viscosity ( non-dim. ) */
(PID.TID 0000.0001)                 0.000000000000000E+00
(PID.TID 0000.0001)     ;
(PID.TID 0000.0001) useFullLeith =   /* Use Full Form of Leith Viscosity on/off flag*/
(PID.TID 0000.0001)                   F
(PID.TID 0000.0001)     ;
(PID.TID 0000.0001) useStrainTensionVisc =   /* Use StrainTension Form of Viscous Operator on/off flag*/
(PID.TID 0000.0001)                   F
(PID.TID 0000.0001)     ;
(PID.TID 0000.0001) useAreaViscLength =   /* Use area for visc length instead of geom. mean*/
(PID.TID 0000.0001)                   F
(PID.TID 0000.0001)     ;
(PID.TID 0000.0001) viscC2leith = /* Leith harmonic visc. factor (on grad(vort),non-dim.) */
(PID.TID 0000.0001)                 0.000000000000000E+00
(PID.TID 0000.0001)     ;
(PID.TID 0000.0001) viscC2leithD = /* Leith harmonic viscosity factor (on grad(div),non-dim.) */
(PID.TID 0000.0001)                 0.000000000000000E+00
(PID.TID 0000.0001)     ;
(PID.TID 0000.0001) viscC2smag =   /* Smagorinsky harmonic viscosity factor (non-dim.) */
(PID.TID 0000.0001)                 0.000000000000000E+00
(PID.TID 0000.0001)     ;
(PID.TID 0000.0001) viscA4 =   /* Lateral biharmonic viscosity ( m^4/s ) */
(PID.TID 0000.0001)                 0.000000000000000E+00
(PID.TID 0000.0001)     ;
(PID.TID 0000.0001) viscA4Max =   /* Maximum biharmonic viscosity ( m^2/s ) */
(PID.TID 0000.0001)                 1.000000000000000E+21
(PID.TID 0000.0001)     ;
(PID.TID 0000.0001) viscA4Grid =   /* Grid dependent biharmonic viscosity ( non-dim. ) */
(PID.TID 0000.0001)                 0.000000000000000E+00
(PID.TID 0000.0001)     ;
(PID.TID 0000.0001) viscC4leith = /* Leith biharm viscosity factor (on grad(vort), non-dim.) */
(PID.TID 0000.0001)                 0.000000000000000E+00
(PID.TID 0000.0001)     ;
(PID.TID 0000.0001) viscC4leithD = /* Leith biharm viscosity factor (on grad(div), non-dim.) */
(PID.TID 0000.0001)                 0.000000000000000E+00
(PID.TID 0000.0001)     ;
(PID.TID 0000.0001) viscC4Smag = /* Smagorinsky biharm viscosity factor (non-dim) */
(PID.TID 0000.0001)                 0.000000000000000E+00
(PID.TID 0000.0001)     ;
(PID.TID 0000.0001) no_slip_sides =  /* Viscous BCs: No-slip sides */
(PID.TID 0000.0001)                   T
(PID.TID 0000.0001)     ;
(PID.TID 0000.0001) sideDragFactor = /* side-drag scaling factor (non-dim) */
(PID.TID 0000.0001)                 2.000000000000000E+00
(PID.TID 0000.0001)     ;
(PID.TID 0000.0001) viscAr =   /* Vertical eddy viscosity ( units of r^2/s ) */
(PID.TID 0000.0001)                 1.000000000000000E-03
(PID.TID 0000.0001)     ;
(PID.TID 0000.0001) no_slip_bottom =  /* Viscous BCs: No-slip bottom */
(PID.TID 0000.0001)                   T
(PID.TID 0000.0001)     ;
(PID.TID 0000.0001) bottomDragLinear = /* linear bottom-drag coefficient ( 1/s ) */
(PID.TID 0000.0001)                 0.000000000000000E+00
(PID.TID 0000.0001)     ;
(PID.TID 0000.0001) bottomDragQuadratic = /* quadratic bottom-drag coeff. ( 1/m ) */
(PID.TID 0000.0001)                 0.000000000000000E+00
(PID.TID 0000.0001)     ;
(PID.TID 0000.0001) diffKhT =   /* Laplacian diffusion of heat laterally ( m^2/s ) */
(PID.TID 0000.0001)                 0.000000000000000E+00
(PID.TID 0000.0001)     ;
(PID.TID 0000.0001) diffK4T =   /* Bihaarmonic diffusion of heat laterally ( m^4/s ) */
(PID.TID 0000.0001)                 0.000000000000000E+00
(PID.TID 0000.0001)     ;
(PID.TID 0000.0001) diffKhS =   /* Laplacian diffusion of salt laterally ( m^2/s ) */
(PID.TID 0000.0001)                 0.000000000000000E+00
(PID.TID 0000.0001)     ;
(PID.TID 0000.0001) diffK4S =   /* Bihaarmonic diffusion of salt laterally ( m^4/s ) */
(PID.TID 0000.0001)                 0.000000000000000E+00
(PID.TID 0000.0001)     ;
(PID.TID 0000.0001) diffKrNrT = /* vertical profile of vertical diffusion of Temp ( m^2/s )*/
(PID.TID 0000.0001)    15 @  3.000000000000000E-05              /* K =  1: 15 */
(PID.TID 0000.0001)     ;
(PID.TID 0000.0001) diffKrNrS = /* vertical profile of vertical diffusion of Salt ( m^2/s )*/
(PID.TID 0000.0001)    15 @  3.000000000000000E-05              /* K =  1: 15 */
(PID.TID 0000.0001)     ;
(PID.TID 0000.0001) diffKrBL79surf =   /* Surface diffusion for Bryan and Lewis 1979 ( m^2/s ) */
(PID.TID 0000.0001)                 0.000000000000000E+00
(PID.TID 0000.0001)     ;
(PID.TID 0000.0001) diffKrBL79deep =   /* Deep diffusion for Bryan and Lewis 1979 ( m^2/s ) */
(PID.TID 0000.0001)                 0.000000000000000E+00
(PID.TID 0000.0001)     ;
(PID.TID 0000.0001) diffKrBL79scl =   /* Depth scale for Bryan and Lewis 1979 ( m ) */
(PID.TID 0000.0001)                 2.000000000000000E+02
(PID.TID 0000.0001)     ;
(PID.TID 0000.0001) diffKrBL79Ho =   /* Turning depth for Bryan and Lewis 1979 ( m ) */
(PID.TID 0000.0001)                -2.000000000000000E+03
(PID.TID 0000.0001)     ;
(PID.TID 0000.0001) Equation of State : eosType = JMD95Z ;
(PID.TID 0000.0001) tAlpha =   /* Linear EOS thermal expansion coefficient ( 1/oC ) */
(PID.TID 0000.0001)                 1.234567000000000E+05
(PID.TID 0000.0001)     ;
(PID.TID 0000.0001) sBeta =   /* Linear EOS haline contraction coefficient ( 1/psu ) */
(PID.TID 0000.0001)                 1.234567000000000E+05
(PID.TID 0000.0001)     ;
(PID.TID 0000.0001) rhonil =   /* Reference density ( kg/m^3 ) */
(PID.TID 0000.0001)                 1.035000000000000E+03
(PID.TID 0000.0001)     ;
(PID.TID 0000.0001) rhoConst =   /* Reference density ( kg/m^3 ) */
(PID.TID 0000.0001)                 1.035000000000000E+03
(PID.TID 0000.0001)     ;
(PID.TID 0000.0001) rhoFacC = /* normalized Reference density @ cell-Center (-) */
(PID.TID 0000.0001)    15 @  1.000000000000000E+00              /* K =  1: 15 */
(PID.TID 0000.0001)     ;
(PID.TID 0000.0001) rhoFacF = /* normalized Reference density @ W-Interface (-) */
(PID.TID 0000.0001)    16 @  1.000000000000000E+00              /* K =  1: 16 */
(PID.TID 0000.0001)     ;
(PID.TID 0000.0001) rhoConstFresh =   /* Reference density ( kg/m^3 ) */
(PID.TID 0000.0001)                 1.000000000000000E+03
(PID.TID 0000.0001)     ;
(PID.TID 0000.0001) gravity =   /* Gravitational acceleration ( m/s^2 ) */
(PID.TID 0000.0001)                 9.810000000000000E+00
(PID.TID 0000.0001)     ;
(PID.TID 0000.0001) gBaro =   /* Barotropic gravity ( m/s^2 ) */
(PID.TID 0000.0001)                 9.810000000000000E+00
(PID.TID 0000.0001)     ;
(PID.TID 0000.0001) rotationPeriod =   /* Rotation Period ( s ) */
(PID.TID 0000.0001)                 8.640000000000000E+04
(PID.TID 0000.0001)     ;
(PID.TID 0000.0001) omega =   /* Angular velocity ( rad/s ) */
(PID.TID 0000.0001)                 7.272205216643040E-05
(PID.TID 0000.0001)     ;
(PID.TID 0000.0001) f0 =   /* Reference coriolis parameter ( 1/s ) */
(PID.TID 0000.0001)                 1.000000000000000E-04
(PID.TID 0000.0001)     ;
(PID.TID 0000.0001) beta =   /* Beta ( 1/(m.s) ) */
(PID.TID 0000.0001)                 9.999999999999999E-12
(PID.TID 0000.0001)     ;
(PID.TID 0000.0001) freeSurfFac =   /* Implicit free surface factor */
(PID.TID 0000.0001)                 1.000000000000000E+00
(PID.TID 0000.0001)     ;
(PID.TID 0000.0001) implicitFreeSurface =   /* Implicit free surface on/off flag */
(PID.TID 0000.0001)                   T
(PID.TID 0000.0001)     ;
(PID.TID 0000.0001) rigidLid =   /* Rigid lid on/off flag */
(PID.TID 0000.0001)                   F
(PID.TID 0000.0001)     ;
(PID.TID 0000.0001) implicSurfPress =   /* Surface Pressure implicit factor (0-1)*/
(PID.TID 0000.0001)                 1.000000000000000E+00
(PID.TID 0000.0001)     ;
(PID.TID 0000.0001) implicDiv2Dflow =   /* Barot. Flow Div. implicit factor (0-1)*/
(PID.TID 0000.0001)                 1.000000000000000E+00
(PID.TID 0000.0001)     ;
(PID.TID 0000.0001) exactConserv =   /* Exact Volume Conservation on/off flag*/
(PID.TID 0000.0001)                   T
(PID.TID 0000.0001)     ;
(PID.TID 0000.0001) uniformLin_PhiSurf =   /* use uniform Bo_surf on/off flag*/
(PID.TID 0000.0001)                   T
(PID.TID 0000.0001)     ;
(PID.TID 0000.0001) nonlinFreeSurf =   /* Non-linear Free Surf. options (-1,0,1,2,3)*/
(PID.TID 0000.0001)                       4
(PID.TID 0000.0001)     ;
(PID.TID 0000.0001)      -1,0= Off ; 1,2,3= On, 2=+rescale gU,gV, 3=+update cg2d solv.
(PID.TID 0000.0001) hFacInf =   /* lower threshold for hFac (nonlinFreeSurf only)*/
(PID.TID 0000.0001)                 2.000000000000000E-01
(PID.TID 0000.0001)     ;
(PID.TID 0000.0001) hFacSup =   /* upper threshold for hFac (nonlinFreeSurf only)*/
(PID.TID 0000.0001)                 2.000000000000000E+00
(PID.TID 0000.0001)     ;
(PID.TID 0000.0001) select_rStar =   /* r* Coordinate options (not yet implemented)*/
(PID.TID 0000.0001)                       2
(PID.TID 0000.0001)     ;
(PID.TID 0000.0001) useRealFreshWaterFlux =   /* Real Fresh Water Flux on/off flag*/
(PID.TID 0000.0001)                   T
(PID.TID 0000.0001)     ;
(PID.TID 0000.0001) temp_EvPrRn = /* Temp. of Evap/Prec/R (UNSET=use local T)(oC)*/
(PID.TID 0000.0001)                 1.234567000000000E+05
(PID.TID 0000.0001)     ;
(PID.TID 0000.0001) salt_EvPrRn = /* Salin. of Evap/Prec/R (UNSET=use local S)(ppt)*/
(PID.TID 0000.0001)                 0.000000000000000E+00
(PID.TID 0000.0001)     ;
(PID.TID 0000.0001) use3Dsolver = /* use 3-D pressure solver on/off flag */
(PID.TID 0000.0001)                   F
(PID.TID 0000.0001)     ;
(PID.TID 0000.0001) nonHydrostatic =  /* Non-Hydrostatic on/off flag */
(PID.TID 0000.0001)                   F
(PID.TID 0000.0001)     ;
(PID.TID 0000.0001) nh_Am2 = /* Non-Hydrostatic terms scaling factor */
(PID.TID 0000.0001)                 1.000000000000000E+00
(PID.TID 0000.0001)     ;
(PID.TID 0000.0001) quasiHydrostatic = /* Quasi-Hydrostatic on/off flag */
(PID.TID 0000.0001)                   F
(PID.TID 0000.0001)     ;
(PID.TID 0000.0001) momStepping =  /* Momentum equation on/off flag */
(PID.TID 0000.0001)                   T
(PID.TID 0000.0001)     ;
(PID.TID 0000.0001) vectorInvariantMomentum= /* Vector-Invariant Momentum on/off */
(PID.TID 0000.0001)                   T
(PID.TID 0000.0001)     ;
(PID.TID 0000.0001) momAdvection =  /* Momentum advection on/off flag */
(PID.TID 0000.0001)                   T
(PID.TID 0000.0001)     ;
(PID.TID 0000.0001) momViscosity =  /* Momentum viscosity on/off flag */
(PID.TID 0000.0001)                   T
(PID.TID 0000.0001)     ;
(PID.TID 0000.0001) momImplVertAdv =/* Momentum implicit vert. advection on/off*/
(PID.TID 0000.0001)                   F
(PID.TID 0000.0001)     ;
(PID.TID 0000.0001) implicitViscosity = /* Implicit viscosity on/off flag */
(PID.TID 0000.0001)                   F
(PID.TID 0000.0001)     ;
(PID.TID 0000.0001) metricTerms =  /* metric-Terms on/off flag */
(PID.TID 0000.0001)                   F
(PID.TID 0000.0001)     ;
(PID.TID 0000.0001) useNHMTerms = /* Non-Hydrostatic Metric-Terms on/off */
(PID.TID 0000.0001)                   F
(PID.TID 0000.0001)     ;
(PID.TID 0000.0001) useConstantF =  /* use Constant f0 Coriolis flag */
(PID.TID 0000.0001)                   F
(PID.TID 0000.0001)     ;
(PID.TID 0000.0001) useBetaPlaneF = /* use Beta-Plane Coriolis flag */
(PID.TID 0000.0001)                   F
(PID.TID 0000.0001)     ;
(PID.TID 0000.0001) useSphereF  =   /* use Spherical Coriolis flag */
(PID.TID 0000.0001)                   T
(PID.TID 0000.0001)     ;
(PID.TID 0000.0001) use3dCoriolis = /* 3-D Coriolis on/off flag */
(PID.TID 0000.0001)                   F
(PID.TID 0000.0001)     ;
(PID.TID 0000.0001) useCoriolis =  /* Coriolis on/off flag */
(PID.TID 0000.0001)                   T
(PID.TID 0000.0001)     ;
(PID.TID 0000.0001) useCDscheme =  /* CD scheme on/off flag */
(PID.TID 0000.0001)                   F
(PID.TID 0000.0001)     ;
(PID.TID 0000.0001) useJamartWetPoints= /* Coriolis WetPoints method flag */
(PID.TID 0000.0001)                   F
(PID.TID 0000.0001)     ;
(PID.TID 0000.0001) useJamartMomAdv= /* V.I. Non-linear terms Jamart flag */
(PID.TID 0000.0001)                   F
(PID.TID 0000.0001)     ;
(PID.TID 0000.0001) SadournyCoriolis= /* Sadourny Coriolis discr. flag */
(PID.TID 0000.0001)                   F
(PID.TID 0000.0001)     ;
(PID.TID 0000.0001) upwindVorticity= /* Upwind bias vorticity flag */
(PID.TID 0000.0001)                   F
(PID.TID 0000.0001)     ;
(PID.TID 0000.0001) useAbsVorticity= /* Work with f+zeta in Coriolis */
(PID.TID 0000.0001)                   F
(PID.TID 0000.0001)     ;
(PID.TID 0000.0001) highOrderVorticity= /* High order interp. of vort. flag */
(PID.TID 0000.0001)                   F
(PID.TID 0000.0001)     ;
(PID.TID 0000.0001) upwindShear= /* Upwind vertical Shear advection flag */
(PID.TID 0000.0001)                   F
(PID.TID 0000.0001)     ;
(PID.TID 0000.0001) selectKEscheme= /* Kinetic Energy scheme selector */
(PID.TID 0000.0001)                       0
(PID.TID 0000.0001)     ;
(PID.TID 0000.0001) momForcing =  /* Momentum forcing on/off flag */
(PID.TID 0000.0001)                   T
(PID.TID 0000.0001)     ;
(PID.TID 0000.0001) momPressureForcing =  /* Momentum pressure term on/off flag */
(PID.TID 0000.0001)                   T
(PID.TID 0000.0001)     ;
(PID.TID 0000.0001) implicitIntGravWave= /* Implicit Internal Gravity Wave flag */
(PID.TID 0000.0001)                   F
(PID.TID 0000.0001)     ;
(PID.TID 0000.0001) staggerTimeStep =   /* Stagger time stepping on/off flag */
(PID.TID 0000.0001)                   T
(PID.TID 0000.0001)     ;
(PID.TID 0000.0001) multiDimAdvection =   /* enable/disable Multi-Dim Advection */
(PID.TID 0000.0001)                   T
(PID.TID 0000.0001)     ;
(PID.TID 0000.0001) useMultiDimAdvec =   /* Multi-Dim Advection is/is-not used */
(PID.TID 0000.0001)                   F
(PID.TID 0000.0001)     ;
(PID.TID 0000.0001) implicitDiffusion =/* Implicit Diffusion on/off flag */
(PID.TID 0000.0001)                   T
(PID.TID 0000.0001)     ;
(PID.TID 0000.0001) tempStepping =  /* Temperature equation on/off flag */
(PID.TID 0000.0001)                   T
(PID.TID 0000.0001)     ;
(PID.TID 0000.0001) tempAdvection=  /* Temperature advection on/off flag */
(PID.TID 0000.0001)                   T
(PID.TID 0000.0001)     ;
(PID.TID 0000.0001) tempImplVertAdv =/* Temp. implicit vert. advection on/off */
(PID.TID 0000.0001)                   F
(PID.TID 0000.0001)     ;
(PID.TID 0000.0001) tempForcing  =  /* Temperature forcing on/off flag */
(PID.TID 0000.0001)                   T
(PID.TID 0000.0001)     ;
(PID.TID 0000.0001) saltStepping =  /* Salinity equation on/off flag */
(PID.TID 0000.0001)                   T
(PID.TID 0000.0001)     ;
(PID.TID 0000.0001) saltAdvection=  /* Salinity advection on/off flag */
(PID.TID 0000.0001)                   T
(PID.TID 0000.0001)     ;
(PID.TID 0000.0001) saltImplVertAdv =/* Sali. implicit vert. advection on/off */
(PID.TID 0000.0001)                   F
(PID.TID 0000.0001)     ;
(PID.TID 0000.0001) saltForcing  =  /* Salinity forcing on/off flag */
(PID.TID 0000.0001)                   T
(PID.TID 0000.0001)     ;
(PID.TID 0000.0001)  readBinaryPrec = /* Precision used for reading binary files */
(PID.TID 0000.0001)                      64
(PID.TID 0000.0001)     ;
(PID.TID 0000.0001) writeBinaryPrec = /* Precision used for writing binary files */
(PID.TID 0000.0001)                      32
(PID.TID 0000.0001)     ;
(PID.TID 0000.0001)  globalFiles = /* write "global" (=not per tile) files */
(PID.TID 0000.0001)                   F
(PID.TID 0000.0001)     ;
(PID.TID 0000.0001)  useSingleCpuIO = /* only master MPI process does I/O */
(PID.TID 0000.0001)                   F
(PID.TID 0000.0001)     ;
(PID.TID 0000.0001)  debugMode  =  /* Debug Mode on/off flag */
(PID.TID 0000.0001)                   F
(PID.TID 0000.0001)     ;
(PID.TID 0000.0001)    debLevA  =  /* 1rst level of debugging */
(PID.TID 0000.0001)                       1
(PID.TID 0000.0001)     ;
(PID.TID 0000.0001)    debLevB  =  /* 2nd  level of debugging */
(PID.TID 0000.0001)                       2
(PID.TID 0000.0001)     ;
(PID.TID 0000.0001)  debugLevel =  /* select debugging level */
(PID.TID 0000.0001)                       1
(PID.TID 0000.0001)     ;
(PID.TID 0000.0001) //
(PID.TID 0000.0001) // Elliptic solver(s) paramters ( PARM02 in namelist )
(PID.TID 0000.0001) //
(PID.TID 0000.0001) cg2dMaxIters =   /* Upper limit on 2d con. grad iterations  */
(PID.TID 0000.0001)                     200
(PID.TID 0000.0001)     ;
(PID.TID 0000.0001) cg2dChkResFreq =   /* 2d con. grad convergence test frequency */
(PID.TID 0000.0001)                       1
(PID.TID 0000.0001)     ;
(PID.TID 0000.0001) cg2dTargetResidual =   /* 2d con. grad target residual  */
(PID.TID 0000.0001)                 1.000000000000000E-07
(PID.TID 0000.0001)     ;
(PID.TID 0000.0001) cg2dTargetResWunit =   /* CG2d target residual [W units] */
(PID.TID 0000.0001)                 1.000000000000000E-14
(PID.TID 0000.0001)     ;
(PID.TID 0000.0001) cg2dPreCondFreq =   /* Freq. for updating cg2d preconditioner */
(PID.TID 0000.0001)                       1
(PID.TID 0000.0001)     ;
(PID.TID 0000.0001) //
(PID.TID 0000.0001) // Time stepping paramters ( PARM03 in namelist )
(PID.TID 0000.0001) //
(PID.TID 0000.0001) nIter0 =   /* Run starting timestep number  */
(PID.TID 0000.0001)                   36000
(PID.TID 0000.0001)     ;
(PID.TID 0000.0001) nTimeSteps =   /* Number of timesteps */
(PID.TID 0000.0001)                      20
(PID.TID 0000.0001)     ;
(PID.TID 0000.0001) deltaTmom =   /* Momentum equation timestep ( s ) */
(PID.TID 0000.0001)                 1.200000000000000E+03
(PID.TID 0000.0001)     ;
(PID.TID 0000.0001) deltaTfreesurf =   /* FreeSurface equation timestep ( s ) */
(PID.TID 0000.0001)                 8.640000000000000E+04
(PID.TID 0000.0001)     ;
(PID.TID 0000.0001) dTtracerLev =   /* Tracer equation timestep ( s ) */
(PID.TID 0000.0001)    15 @  8.640000000000000E+04              /* K =  1: 15 */
(PID.TID 0000.0001)     ;
(PID.TID 0000.0001) deltaTClock  =   /* Model clock timestep ( s ) */
(PID.TID 0000.0001)                 8.640000000000000E+04
(PID.TID 0000.0001)     ;
(PID.TID 0000.0001) cAdjFreq =   /* Convective adjustment interval ( s ) */
(PID.TID 0000.0001)                 0.000000000000000E+00
(PID.TID 0000.0001)     ;
(PID.TID 0000.0001) momForcingOutAB = /* =1: take Momentum Forcing out of Adams-Bash. stepping */
(PID.TID 0000.0001)                       0
(PID.TID 0000.0001)     ;
(PID.TID 0000.0001) tracForcingOutAB = /* =1: take T,S,pTr Forcing out of Adams-Bash. stepping */
(PID.TID 0000.0001)                       1
(PID.TID 0000.0001)     ;
(PID.TID 0000.0001) momDissip_In_AB = /* put Dissipation Tendency in Adams-Bash. stepping */
(PID.TID 0000.0001)                   T
(PID.TID 0000.0001)     ;
(PID.TID 0000.0001) doAB_onGtGs = /* apply AB on Tendencies (rather than on T,S)*/
(PID.TID 0000.0001)                   T
(PID.TID 0000.0001)     ;
(PID.TID 0000.0001) abEps =   /* Adams-Bashforth-2 stabilizing weight */
(PID.TID 0000.0001)                 1.000000000000000E-01
(PID.TID 0000.0001)     ;
(PID.TID 0000.0001) baseTime =   /* Model base time ( s ). */
(PID.TID 0000.0001)                 0.000000000000000E+00
(PID.TID 0000.0001)     ;
(PID.TID 0000.0001) startTime =   /* Run start time ( s ). */
(PID.TID 0000.0001)                 3.110400000000000E+09
(PID.TID 0000.0001)     ;
(PID.TID 0000.0001) endTime =   /* Integration ending time ( s ). */
(PID.TID 0000.0001)                 3.112128000000000E+09
(PID.TID 0000.0001)     ;
(PID.TID 0000.0001) pChkPtFreq =   /* Permanent restart/checkpoint file interval ( s ). */
(PID.TID 0000.0001)                 3.110400000000000E+07
(PID.TID 0000.0001)     ;
(PID.TID 0000.0001) chkPtFreq =   /* Rolling restart/checkpoint file interval ( s ). */
(PID.TID 0000.0001)                 0.000000000000000E+00
(PID.TID 0000.0001)     ;
(PID.TID 0000.0001) pickup_write_mdsio =   /* Model IO flag. */
(PID.TID 0000.0001)                   T
(PID.TID 0000.0001)     ;
(PID.TID 0000.0001) pickup_read_mdsio =   /* Model IO flag. */
(PID.TID 0000.0001)                   T
(PID.TID 0000.0001)     ;
(PID.TID 0000.0001) pickup_write_immed =   /* Model IO flag. */
(PID.TID 0000.0001)                   F
(PID.TID 0000.0001)     ;
(PID.TID 0000.0001) dumpFreq =   /* Model state write out interval ( s ). */
(PID.TID 0000.0001)                 3.110400000000000E+07
(PID.TID 0000.0001)     ;
(PID.TID 0000.0001) dumpInitAndLast= /* write out Initial & Last iter. model state */
(PID.TID 0000.0001)                   T
(PID.TID 0000.0001)     ;
(PID.TID 0000.0001) snapshot_mdsio =   /* Model IO flag. */
(PID.TID 0000.0001)                   T
(PID.TID 0000.0001)     ;
(PID.TID 0000.0001) monitorFreq =   /* Monitor output interval ( s ). */
(PID.TID 0000.0001)                 1.000000000000000E+00
(PID.TID 0000.0001)     ;
(PID.TID 0000.0001) monitor_stdio =   /* Model IO flag. */
(PID.TID 0000.0001)                   T
(PID.TID 0000.0001)     ;
(PID.TID 0000.0001) externForcingPeriod =   /* forcing period (s) */
(PID.TID 0000.0001)                 2.592000000000000E+06
(PID.TID 0000.0001)     ;
(PID.TID 0000.0001) externForcingCycle =   /* period of the cyle (s). */
(PID.TID 0000.0001)                 3.110400000000000E+07
(PID.TID 0000.0001)     ;
(PID.TID 0000.0001) tauThetaClimRelax =   /* relaxation time scale (s) */
(PID.TID 0000.0001)                 5.184000000000000E+06
(PID.TID 0000.0001)     ;
(PID.TID 0000.0001) tauSaltClimRelax =   /* relaxation time scale (s) */
(PID.TID 0000.0001)                 1.555200000000000E+07
(PID.TID 0000.0001)     ;
(PID.TID 0000.0001) latBandClimRelax =   /* max. Lat. where relaxation */
(PID.TID 0000.0001)                 5.000000000000000E+01
(PID.TID 0000.0001)     ;
(PID.TID 0000.0001) //
(PID.TID 0000.0001) // Gridding paramters ( PARM04 in namelist )
(PID.TID 0000.0001) //
(PID.TID 0000.0001) usingCartesianGrid = /* Cartesian coordinates flag ( True/False ) */
(PID.TID 0000.0001)                   F
(PID.TID 0000.0001)     ;
(PID.TID 0000.0001) usingCylindricalGrid = /* Cylindrical coordinates flag ( True/False ) */
(PID.TID 0000.0001)                   F
(PID.TID 0000.0001)     ;
(PID.TID 0000.0001) usingSphericalPolarGrid = /* Spherical coordinates flag ( True/False ) */
(PID.TID 0000.0001)                   F
(PID.TID 0000.0001)     ;
(PID.TID 0000.0001) usingCurvilinearGrid = /* Curvilinear coordinates flag ( True/False ) */
(PID.TID 0000.0001)                   T
(PID.TID 0000.0001)     ;
(PID.TID 0000.0001) Ro_SeaLevel = /* r(1) ( units of r ) */
(PID.TID 0000.0001)                 0.000000000000000E+00
(PID.TID 0000.0001)     ;
(PID.TID 0000.0001) rkSign =   /* index orientation relative to vertical coordinate */
(PID.TID 0000.0001)                -1.000000000000000E+00
(PID.TID 0000.0001)     ;
(PID.TID 0000.0001) gravitySign = /* gravity orientation relative to vertical coordinate */
(PID.TID 0000.0001)                -1.000000000000000E+00
(PID.TID 0000.0001)     ;
(PID.TID 0000.0001) horiVertRatio =   /* Ratio on units : Horiz - Vertical */
(PID.TID 0000.0001)                 1.000000000000000E+00
(PID.TID 0000.0001)     ;
(PID.TID 0000.0001) drC =   /* C spacing ( units of r ) */
(PID.TID 0000.0001)                 2.500000000000000E+01,      /* K =  1 */
(PID.TID 0000.0001)                 6.000000000000000E+01,      /* K =  2 */
(PID.TID 0000.0001)                 8.500000000000000E+01,      /* K =  3 */
(PID.TID 0000.0001)                 1.200000000000000E+02,      /* K =  4 */
(PID.TID 0000.0001)                 1.650000000000000E+02,      /* K =  5 */
(PID.TID 0000.0001)                 2.150000000000000E+02,      /* K =  6 */
(PID.TID 0000.0001)                 2.650000000000000E+02,      /* K =  7 */
(PID.TID 0000.0001)                 3.150000000000000E+02,      /* K =  8 */
(PID.TID 0000.0001)                 3.650000000000000E+02,      /* K =  9 */
(PID.TID 0000.0001)                 4.150000000000000E+02,      /* K = 10 */
(PID.TID 0000.0001)                 4.650000000000000E+02,      /* K = 11 */
(PID.TID 0000.0001)                 5.150000000000000E+02,      /* K = 12 */
(PID.TID 0000.0001)                 5.650000000000000E+02,      /* K = 13 */
(PID.TID 0000.0001)                 6.150000000000000E+02,      /* K = 14 */
(PID.TID 0000.0001)                 6.650000000000000E+02       /* K = 15 */
(PID.TID 0000.0001)     ;
(PID.TID 0000.0001) drF =   /* W spacing ( units of r ) */
(PID.TID 0000.0001)                 5.000000000000000E+01,      /* K =  1 */
(PID.TID 0000.0001)                 7.000000000000000E+01,      /* K =  2 */
(PID.TID 0000.0001)                 1.000000000000000E+02,      /* K =  3 */
(PID.TID 0000.0001)                 1.400000000000000E+02,      /* K =  4 */
(PID.TID 0000.0001)                 1.900000000000000E+02,      /* K =  5 */
(PID.TID 0000.0001)                 2.400000000000000E+02,      /* K =  6 */
(PID.TID 0000.0001)                 2.900000000000000E+02,      /* K =  7 */
(PID.TID 0000.0001)                 3.400000000000000E+02,      /* K =  8 */
(PID.TID 0000.0001)                 3.900000000000000E+02,      /* K =  9 */
(PID.TID 0000.0001)                 4.400000000000000E+02,      /* K = 10 */
(PID.TID 0000.0001)                 4.900000000000000E+02,      /* K = 11 */
(PID.TID 0000.0001)                 5.400000000000000E+02,      /* K = 12 */
(PID.TID 0000.0001)                 5.900000000000000E+02,      /* K = 13 */
(PID.TID 0000.0001)                 6.400000000000000E+02,      /* K = 14 */
(PID.TID 0000.0001)                 6.900000000000000E+02       /* K = 15 */
(PID.TID 0000.0001)     ;
(PID.TID 0000.0001) delX =   /* U spacing ( m - cartesian, degrees - spherical ) */
(PID.TID 0000.0001)   192 @  1.234567000000000E+05              /* I =  1:192 */
(PID.TID 0000.0001)     ;
(PID.TID 0000.0001) delY =   /* V spacing ( m - cartesian, degrees - spherical ) */
(PID.TID 0000.0001)    32 @  1.234567000000000E+05              /* J =  1: 32 */
(PID.TID 0000.0001)     ;
(PID.TID 0000.0001) phiMin =    /* South edge (ignored - cartesian, degrees - spherical ) */
(PID.TID 0000.0001)                 0.000000000000000E+00
(PID.TID 0000.0001)     ;
(PID.TID 0000.0001) thetaMin =    /* West edge ( ignored - cartesian, degrees - spherical ) */
(PID.TID 0000.0001)                 0.000000000000000E+00
(PID.TID 0000.0001)     ;
(PID.TID 0000.0001) rSphere =  /* Radius ( ignored - cartesian, m - spherical ) */
(PID.TID 0000.0001)                 6.370000000000000E+06
(PID.TID 0000.0001)     ;
(PID.TID 0000.0001) deepAtmosphere = /* Deep/Shallow Atmosphere flag (True/False) */
(PID.TID 0000.0001)                   F
(PID.TID 0000.0001)     ;
(PID.TID 0000.0001) xcoord =   /* P-point X coord ( m - cartesian, degrees - spherical ) */
(PID.TID 0000.0001)                -4.439521994760536E+01,      /* I =  1 */
(PID.TID 0000.0001)                -4.295641272275883E+01,      /* I =  2 */
(PID.TID 0000.0001)                -4.122055553388957E+01,      /* I =  3 */
(PID.TID 0000.0001)                -3.923446288487304E+01,      /* I =  4 */
(PID.TID 0000.0001)                -3.702585158682200E+01,      /* I =  5 */
(PID.TID 0000.0001)                -3.461179367094151E+01,      /* I =  6 */
(PID.TID 0000.0001)                -3.200434569041793E+01,      /* I =  7 */
(PID.TID 0000.0001)                -2.921355965632675E+01,      /* I =  8 */
(PID.TID 0000.0001)                -2.624932223028290E+01,      /* I =  9 */
(PID.TID 0000.0001)                -2.312261250426344E+01,      /* I = 10 */
(PID.TID 0000.0001)                -1.984640717127058E+01,      /* I = 11 */
(PID.TID 0000.0001)                -1.643630800555134E+01,      /* I = 12 */
(PID.TID 0000.0001)                -1.291089806302069E+01,      /* I = 13 */
(PID.TID 0000.0001)                -9.291807802719402E+00,      /* I = 14 */
(PID.TID 0000.0001)                -5.603475335822332E+00,      /* I = 15 */
(PID.TID 0000.0001)                -1.872608513033445E+00,      /* I = 16 */
(PID.TID 0000.0001)                 1.872608513033445E+00,      /* I = 17 */
(PID.TID 0000.0001)                 5.603475335822332E+00,      /* I = 18 */
(PID.TID 0000.0001)                 9.291807802719402E+00,      /* I = 19 */
(PID.TID 0000.0001)                 1.291089806302069E+01,      /* I = 20 */
(PID.TID 0000.0001)                 1.643630800555134E+01,      /* I = 21 */
(PID.TID 0000.0001)                 1.984640717127058E+01,      /* I = 22 */
(PID.TID 0000.0001)                 2.312261250426344E+01,      /* I = 23 */
(PID.TID 0000.0001)                 2.624932223028290E+01,      /* I = 24 */
(PID.TID 0000.0001)                 2.921355965632675E+01,      /* I = 25 */
(PID.TID 0000.0001)                 3.200434569041793E+01,      /* I = 26 */
(PID.TID 0000.0001)                 3.461179367094151E+01,      /* I = 27 */
(PID.TID 0000.0001)                 3.702585158682200E+01,      /* I = 28 */
(PID.TID 0000.0001)                 3.923446288487304E+01,      /* I = 29 */
(PID.TID 0000.0001)                 4.122055553388957E+01,      /* I = 30 */
(PID.TID 0000.0001)                 4.295641272275883E+01,      /* I = 31 */
(PID.TID 0000.0001)                 4.439521994760536E+01,      /* I = 32 */
(PID.TID 0000.0001)                 4.560478005239464E+01,      /* I = 33 */
(PID.TID 0000.0001)                 4.704358727724117E+01,      /* I = 34 */
(PID.TID 0000.0001)                 4.877944446611043E+01,      /* I = 35 */
(PID.TID 0000.0001)                 5.076553711512697E+01,      /* I = 36 */
(PID.TID 0000.0001)                 5.297414841317801E+01,      /* I = 37 */
(PID.TID 0000.0001)                 5.538820632905850E+01,      /* I = 38 */
(PID.TID 0000.0001)                 5.799565430958209E+01,      /* I = 39 */
(PID.TID 0000.0001)                 6.078644034367325E+01,      /* I = 40 */
(PID.TID 0000.0001)                 6.375067776971711E+01,      /* I = 41 */
(PID.TID 0000.0001)                 6.687738749573657E+01,      /* I = 42 */
(PID.TID 0000.0001)                 7.015359282872943E+01,      /* I = 43 */
(PID.TID 0000.0001)                 7.356369199444866E+01,      /* I = 44 */
(PID.TID 0000.0001)                 7.708910193697932E+01,      /* I = 45 */
(PID.TID 0000.0001)                 8.070819219728060E+01,      /* I = 46 */
(PID.TID 0000.0001)                 8.439652466417766E+01,      /* I = 47 */
(PID.TID 0000.0001)                 8.812739148696656E+01,      /* I = 48 */
(PID.TID 0000.0001)                 9.187260851303344E+01,      /* I = 49 */
(PID.TID 0000.0001)                 9.560347533582234E+01,      /* I = 50 */
(PID.TID 0000.0001)                 9.929180780271940E+01,      /* I = 51 */
(PID.TID 0000.0001)                 1.029108980630207E+02,      /* I = 52 */
(PID.TID 0000.0001)                 1.064363080055513E+02,      /* I = 53 */
(PID.TID 0000.0001)                 1.098464071712706E+02,      /* I = 54 */
(PID.TID 0000.0001)                 1.131226125042634E+02,      /* I = 55 */
(PID.TID 0000.0001)                 1.162493222302829E+02,      /* I = 56 */
(PID.TID 0000.0001)                 1.192135596563268E+02,      /* I = 57 */
(PID.TID 0000.0001)                 1.220043456904179E+02,      /* I = 58 */
(PID.TID 0000.0001)                 1.246117936709415E+02,      /* I = 59 */
(PID.TID 0000.0001)                 1.270258515868220E+02,      /* I = 60 */
(PID.TID 0000.0001)                 1.292344628848730E+02,      /* I = 61 */
(PID.TID 0000.0001)                 1.312205555338896E+02,      /* I = 62 */
(PID.TID 0000.0001)                 1.329564127227588E+02,      /* I = 63 */
(PID.TID 0000.0001)                 1.343952199476053E+02,      /* I = 64 */
(PID.TID 0000.0001)                 4.500000000000000E+01,      /* I = 65 */
(PID.TID 0000.0001)                 4.620805468796297E+01,      /* I = 66 */
(PID.TID 0000.0001)                 4.781369642513039E+01,      /* I = 67 */
(PID.TID 0000.0001)                 4.971767671143929E+01,      /* I = 68 */
(PID.TID 0000.0001)                 5.187738319787235E+01,      /* I = 69 */
(PID.TID 0000.0001)                 5.427004371478710E+01,      /* I = 70 */
(PID.TID 0000.0001)                 5.688128325334060E+01,      /* I = 71 */
(PID.TID 0000.0001)                 5.970018167786760E+01,      /* I = 72 */
(PID.TID 0000.0001)                 6.271654991792347E+01,      /* I = 73 */
(PID.TID 0000.0001)                 6.591914604853015E+01,      /* I = 74 */
(PID.TID 0000.0001)                 6.929439270484148E+01,      /* I = 75 */
(PID.TID 0000.0001)                 7.282545807616151E+01,      /* I = 76 */
(PID.TID 0000.0001)                 7.649168830618933E+01,      /* I = 77 */
(PID.TID 0000.0001)                 8.026842803787176E+01,      /* I = 78 */
(PID.TID 0000.0001)                 8.412726743124185E+01,      /* I = 79 */
(PID.TID 0000.0001)                 8.803672008547504E+01,      /* I = 80 */
(PID.TID 0000.0001)                 9.196327991452496E+01,      /* I = 81 */
(PID.TID 0000.0001)                 9.587273256875815E+01,      /* I = 82 */
(PID.TID 0000.0001)                 9.973157196212824E+01,      /* I = 83 */
(PID.TID 0000.0001)                 1.035083116938107E+02,      /* I = 84 */
(PID.TID 0000.0001)                 1.071745419238385E+02,      /* I = 85 */
(PID.TID 0000.0001)                 1.107056072951585E+02,      /* I = 86 */
(PID.TID 0000.0001)                 1.140808539514698E+02,      /* I = 87 */
(PID.TID 0000.0001)                 1.172834500820765E+02,      /* I = 88 */
(PID.TID 0000.0001)                 1.202998183221324E+02,      /* I = 89 */
(PID.TID 0000.0001)                 1.231187167466594E+02,      /* I = 90 */
(PID.TID 0000.0001)                 1.257299562852129E+02,      /* I = 91 */
(PID.TID 0000.0001)                 1.281226168021277E+02,      /* I = 92 */
(PID.TID 0000.0001)                 1.302823232885607E+02,      /* I = 93 */
(PID.TID 0000.0001)                 1.321863035748696E+02,      /* I = 94 */
(PID.TID 0000.0001)                 1.337919453120370E+02,      /* I = 95 */
(PID.TID 0000.0001)                 1.350000000000000E+02,      /* I = 96 */
(PID.TID 0000.0001)                 1.356047800523947E+02,      /* I = 97 */
(PID.TID 0000.0001)                 1.358367907661329E+02,      /* I = 98 */
(PID.TID 0000.0001)                 1.359720382181193E+02,      /* I = 99 */
(PID.TID 0000.0001)                 1.360654656901789E+02,      /* I =100 */
(PID.TID 0000.0001)                 1.361344533147042E+02,      /* I =101 */
(PID.TID 0000.0001)                 1.361871219420981E+02,      /* I =102 */
(PID.TID 0000.0001)                 1.362280794509603E+02,      /* I =103 */
(PID.TID 0000.0001)                 1.362602511071934E+02,      /* I =104 */
(PID.TID 0000.0001)                 1.362856280326734E+02,      /* I =105 */
(PID.TID 0000.0001)                 1.363056266270901E+02,      /* I =106 */
(PID.TID 0000.0001)                 1.363212817739446E+02,      /* I =107 */
(PID.TID 0000.0001)                 1.363333595910255E+02,      /* I =108 */
(PID.TID 0000.0001)                 1.363424272425760E+02,      /* I =109 */
(PID.TID 0000.0001)                 1.363488978790713E+02,      /* I =110 */
(PID.TID 0000.0001)                 1.363530600590580E+02,      /* I =111 */
(PID.TID 0000.0001)     2 @  1.363550967500717E+02,             /* I =112:113 */
(PID.TID 0000.0001)                 1.363530600590580E+02,      /* I =114 */
(PID.TID 0000.0001)                 1.363488978790713E+02,      /* I =115 */
(PID.TID 0000.0001)                 1.363424272425760E+02,      /* I =116 */
(PID.TID 0000.0001)                 1.363333595910255E+02,      /* I =117 */
(PID.TID 0000.0001)                 1.363212817739446E+02,      /* I =118 */
(PID.TID 0000.0001)                 1.363056266270901E+02,      /* I =119 */
(PID.TID 0000.0001)                 1.362856280326734E+02,      /* I =120 */
(PID.TID 0000.0001)                 1.362602511071934E+02,      /* I =121 */
(PID.TID 0000.0001)                 1.362280794509603E+02,      /* I =122 */
(PID.TID 0000.0001)                 1.361871219420981E+02,      /* I =123 */
(PID.TID 0000.0001)                 1.361344533147042E+02,      /* I =124 */
(PID.TID 0000.0001)                 1.360654656901789E+02,      /* I =125 */
(PID.TID 0000.0001)                 1.359720382181193E+02,      /* I =126 */
(PID.TID 0000.0001)                 1.358367907661329E+02,      /* I =127 */
(PID.TID 0000.0001)                 1.356047800523947E+02,      /* I =128 */
(PID.TID 0000.0001)                -1.343952199476053E+02,      /* I =129 */
(PID.TID 0000.0001)                -1.341632092338671E+02,      /* I =130 */
(PID.TID 0000.0001)                -1.340279617818807E+02,      /* I =131 */
(PID.TID 0000.0001)                -1.339345343098211E+02,      /* I =132 */
(PID.TID 0000.0001)                -1.338655466852958E+02,      /* I =133 */
(PID.TID 0000.0001)                -1.338128780579019E+02,      /* I =134 */
(PID.TID 0000.0001)                -1.337719205490397E+02,      /* I =135 */
(PID.TID 0000.0001)                -1.337397488928066E+02,      /* I =136 */
(PID.TID 0000.0001)                -1.337143719673266E+02,      /* I =137 */
(PID.TID 0000.0001)                -1.336943733729099E+02,      /* I =138 */
(PID.TID 0000.0001)                -1.336787182260554E+02,      /* I =139 */
(PID.TID 0000.0001)                -1.336666404089745E+02,      /* I =140 */
(PID.TID 0000.0001)                -1.336575727574240E+02,      /* I =141 */
(PID.TID 0000.0001)                -1.336511021209287E+02,      /* I =142 */
(PID.TID 0000.0001)                -1.336469399409420E+02,      /* I =143 */
(PID.TID 0000.0001)     2 @ -1.336449032499283E+02,             /* I =144:145 */
(PID.TID 0000.0001)                -1.336469399409420E+02,      /* I =146 */
(PID.TID 0000.0001)                -1.336511021209287E+02,      /* I =147 */
(PID.TID 0000.0001)                -1.336575727574240E+02,      /* I =148 */
(PID.TID 0000.0001)                -1.336666404089745E+02,      /* I =149 */
(PID.TID 0000.0001)                -1.336787182260554E+02,      /* I =150 */
(PID.TID 0000.0001)                -1.336943733729099E+02,      /* I =151 */
(PID.TID 0000.0001)                -1.337143719673266E+02,      /* I =152 */
(PID.TID 0000.0001)                -1.337397488928066E+02,      /* I =153 */
(PID.TID 0000.0001)                -1.337719205490397E+02,      /* I =154 */
(PID.TID 0000.0001)                -1.338128780579019E+02,      /* I =155 */
(PID.TID 0000.0001)                -1.338655466852958E+02,      /* I =156 */
(PID.TID 0000.0001)                -1.339345343098211E+02,      /* I =157 */
(PID.TID 0000.0001)                -1.340279617818807E+02,      /* I =158 */
(PID.TID 0000.0001)                -1.341632092338671E+02,      /* I =159 */
(PID.TID 0000.0001)                -1.343952199476053E+02,      /* I =160 */
(PID.TID 0000.0001)                -1.350000000000000E+02,      /* I =161 */
(PID.TID 0000.0001)                -1.362080546879630E+02,      /* I =162 */
(PID.TID 0000.0001)                -1.378136964251304E+02,      /* I =163 */
(PID.TID 0000.0001)                -1.397176767114393E+02,      /* I =164 */
(PID.TID 0000.0001)                -1.418773831978723E+02,      /* I =165 */
(PID.TID 0000.0001)                -1.442700437147871E+02,      /* I =166 */
(PID.TID 0000.0001)                -1.468812832533406E+02,      /* I =167 */
(PID.TID 0000.0001)                -1.497001816778676E+02,      /* I =168 */
(PID.TID 0000.0001)                -1.527165499179235E+02,      /* I =169 */
(PID.TID 0000.0001)                -1.559191460485302E+02,      /* I =170 */
(PID.TID 0000.0001)                -1.592943927048415E+02,      /* I =171 */
(PID.TID 0000.0001)                -1.628254580761615E+02,      /* I =172 */
(PID.TID 0000.0001)                -1.664916883061893E+02,      /* I =173 */
(PID.TID 0000.0001)                -1.702684280378718E+02,      /* I =174 */
(PID.TID 0000.0001)                -1.741272674312418E+02,      /* I =175 */
(PID.TID 0000.0001)                -1.780367200854751E+02,      /* I =176 */
(PID.TID 0000.0001)                 1.780367200854751E+02,      /* I =177 */
(PID.TID 0000.0001)                 1.741272674312418E+02,      /* I =178 */
(PID.TID 0000.0001)                 1.702684280378718E+02,      /* I =179 */
(PID.TID 0000.0001)                 1.664916883061893E+02,      /* I =180 */
(PID.TID 0000.0001)                 1.628254580761615E+02,      /* I =181 */
(PID.TID 0000.0001)                 1.592943927048415E+02,      /* I =182 */
(PID.TID 0000.0001)                 1.559191460485302E+02,      /* I =183 */
(PID.TID 0000.0001)                 1.527165499179235E+02,      /* I =184 */
(PID.TID 0000.0001)                 1.497001816778676E+02,      /* I =185 */
(PID.TID 0000.0001)                 1.468812832533406E+02,      /* I =186 */
(PID.TID 0000.0001)                 1.442700437147871E+02,      /* I =187 */
(PID.TID 0000.0001)                 1.418773831978723E+02,      /* I =188 */
(PID.TID 0000.0001)                 1.397176767114393E+02,      /* I =189 */
(PID.TID 0000.0001)                 1.378136964251304E+02,      /* I =190 */
(PID.TID 0000.0001)                 1.362080546879630E+02,      /* I =191 */
(PID.TID 0000.0001)                 1.350000000000000E+02       /* I =192 */
(PID.TID 0000.0001)     ;
(PID.TID 0000.0001) ycoord =   /* P-point Y coord ( m - cartesian, degrees - spherical ) */
(PID.TID 0000.0001)                -3.497677942598243E+01,      /* J =  1 */
(PID.TID 0000.0001)                -3.374005967394886E+01,      /* J =  2 */
(PID.TID 0000.0001)                -3.220655175667454E+01,      /* J =  3 */
(PID.TID 0000.0001)                -3.045756348838641E+01,      /* J =  4 */
(PID.TID 0000.0001)                -2.853728129852918E+01,      /* J =  5 */
(PID.TID 0000.0001)                -2.647426640173173E+01,      /* J =  6 */
(PID.TID 0000.0001)                -2.428936657094636E+01,      /* J =  7 */
(PID.TID 0000.0001)                -2.199915808312262E+01,      /* J =  8 */
(PID.TID 0000.0001)                -1.961768597440146E+01,      /* J =  9 */
(PID.TID 0000.0001)                -1.715743888281371E+01,      /* J = 10 */
(PID.TID 0000.0001)                -1.462993396899330E+01,      /* J = 11 */
(PID.TID 0000.0001)                -1.204608340464756E+01,      /* J = 12 */
(PID.TID 0000.0001)                -9.416429130284818E+00,      /* J = 13 */
(PID.TID 0000.0001)                -6.751293662992216E+00,      /* J = 14 */
(PID.TID 0000.0001)                -4.060875511835959E+00,      /* J = 15 */
(PID.TID 0000.0001)                -1.355307764409121E+00,      /* J = 16 */
(PID.TID 0000.0001)                 1.355307764409121E+00,      /* J = 17 */
(PID.TID 0000.0001)                 4.060875511835959E+00,      /* J = 18 */
(PID.TID 0000.0001)                 6.751293662992216E+00,      /* J = 19 */
(PID.TID 0000.0001)                 9.416429130284818E+00,      /* J = 20 */
(PID.TID 0000.0001)                 1.204608340464756E+01,      /* J = 21 */
(PID.TID 0000.0001)                 1.462993396899330E+01,      /* J = 22 */
(PID.TID 0000.0001)                 1.715743888281371E+01,      /* J = 23 */
(PID.TID 0000.0001)                 1.961768597440146E+01,      /* J = 24 */
(PID.TID 0000.0001)                 2.199915808312262E+01,      /* J = 25 */
(PID.TID 0000.0001)                 2.428936657094636E+01,      /* J = 26 */
(PID.TID 0000.0001)                 2.647426640173173E+01,      /* J = 27 */
(PID.TID 0000.0001)                 2.853728129852918E+01,      /* J = 28 */
(PID.TID 0000.0001)                 3.045756348838641E+01,      /* J = 29 */
(PID.TID 0000.0001)                 3.220655175667454E+01,      /* J = 30 */
(PID.TID 0000.0001)                 3.374005967394886E+01,      /* J = 31 */
(PID.TID 0000.0001)                 3.497677942598243E+01       /* J = 32 */
(PID.TID 0000.0001)     ;
(PID.TID 0000.0001) rcoord =   /* P-point R coordinate (  units of r ) */
(PID.TID 0000.0001)                -2.500000000000000E+01,      /* K =  1 */
(PID.TID 0000.0001)                -8.500000000000000E+01,      /* K =  2 */
(PID.TID 0000.0001)                -1.700000000000000E+02,      /* K =  3 */
(PID.TID 0000.0001)                -2.900000000000000E+02,      /* K =  4 */
(PID.TID 0000.0001)                -4.550000000000000E+02,      /* K =  5 */
(PID.TID 0000.0001)                -6.700000000000000E+02,      /* K =  6 */
(PID.TID 0000.0001)                -9.350000000000000E+02,      /* K =  7 */
(PID.TID 0000.0001)                -1.250000000000000E+03,      /* K =  8 */
(PID.TID 0000.0001)                -1.615000000000000E+03,      /* K =  9 */
(PID.TID 0000.0001)                -2.030000000000000E+03,      /* K = 10 */
(PID.TID 0000.0001)                -2.495000000000000E+03,      /* K = 11 */
(PID.TID 0000.0001)                -3.010000000000000E+03,      /* K = 12 */
(PID.TID 0000.0001)                -3.575000000000000E+03,      /* K = 13 */
(PID.TID 0000.0001)                -4.190000000000000E+03,      /* K = 14 */
(PID.TID 0000.0001)                -4.855000000000000E+03       /* K = 15 */
(PID.TID 0000.0001)     ;
(PID.TID 0000.0001) rF =   /* W-Interf. R coordinate (  units of r ) */
(PID.TID 0000.0001)                 0.000000000000000E+00,      /* K =  1 */
(PID.TID 0000.0001)                -5.000000000000000E+01,      /* K =  2 */
(PID.TID 0000.0001)                -1.200000000000000E+02,      /* K =  3 */
(PID.TID 0000.0001)                -2.200000000000000E+02,      /* K =  4 */
(PID.TID 0000.0001)                -3.600000000000000E+02,      /* K =  5 */
(PID.TID 0000.0001)                -5.500000000000000E+02,      /* K =  6 */
(PID.TID 0000.0001)                -7.900000000000000E+02,      /* K =  7 */
(PID.TID 0000.0001)                -1.080000000000000E+03,      /* K =  8 */
(PID.TID 0000.0001)                -1.420000000000000E+03,      /* K =  9 */
(PID.TID 0000.0001)                -1.810000000000000E+03,      /* K = 10 */
(PID.TID 0000.0001)                -2.250000000000000E+03,      /* K = 11 */
(PID.TID 0000.0001)                -2.740000000000000E+03,      /* K = 12 */
(PID.TID 0000.0001)                -3.280000000000000E+03,      /* K = 13 */
(PID.TID 0000.0001)                -3.870000000000000E+03,      /* K = 14 */
(PID.TID 0000.0001)                -4.510000000000000E+03,      /* K = 15 */
(PID.TID 0000.0001)                -5.200000000000000E+03       /* K = 16 */
(PID.TID 0000.0001)     ;
(PID.TID 0000.0001) deepFacC = /* deep-model grid factor @ cell-Center (-) */
(PID.TID 0000.0001)    15 @  1.000000000000000E+00              /* K =  1: 15 */
(PID.TID 0000.0001)     ;
(PID.TID 0000.0001) deepFacF = /* deep-model grid factor @ W-Interface (-) */
(PID.TID 0000.0001)    16 @  1.000000000000000E+00              /* K =  1: 16 */
(PID.TID 0000.0001)     ;
(PID.TID 0000.0001) dBdrRef = /* Vertical gradient of reference boyancy [(m/s/r)^2)] */
(PID.TID 0000.0001)    15 @  0.000000000000000E+00              /* K =  1: 15 */
(PID.TID 0000.0001)     ;
(PID.TID 0000.0001) dxF =  /* dxF(:,1,:,1) ( units: m ) */
(PID.TID 0000.0001)                 1.202082051331828E+05,      /* I =  1 */
(PID.TID 0000.0001)                 1.563594089971120E+05,      /* I =  2 */
(PID.TID 0000.0001)                 1.835530058121492E+05,      /* I =  3 */
(PID.TID 0000.0001)                 2.045883481718707E+05,      /* I =  4 */
(PID.TID 0000.0001)                 2.218350349844185E+05,      /* I =  5 */
(PID.TID 0000.0001)                 2.364352994647058E+05,      /* I =  6 */
(PID.TID 0000.0001)                 2.490022710862746E+05,      /* I =  7 */
(PID.TID 0000.0001)                 2.598919724358304E+05,      /* I =  8 */
(PID.TID 0000.0001)                 2.693210245495156E+05,      /* I =  9 */
(PID.TID 0000.0001)                 2.774243179696503E+05,      /* I = 10 */
(PID.TID 0000.0001)                 2.842862532064524E+05,      /* I = 11 */
(PID.TID 0000.0001)                 2.899590699694043E+05,      /* I = 12 */
(PID.TID 0000.0001)                 2.944742915095688E+05,      /* I = 13 */
(PID.TID 0000.0001)                 2.978501920522794E+05,      /* I = 14 */
(PID.TID 0000.0001)                 3.000967749619962E+05,      /* I = 15 */
(PID.TID 0000.0001)     2 @  3.012190981969055E+05,             /* I = 16: 17 */
(PID.TID 0000.0001)                 3.000967749619962E+05,      /* I = 18 */
(PID.TID 0000.0001)                 2.978501920522794E+05,      /* I = 19 */
(PID.TID 0000.0001)                 2.944742915095688E+05,      /* I = 20 */
(PID.TID 0000.0001)                 2.899590699694043E+05,      /* I = 21 */
(PID.TID 0000.0001)                 2.842862532064524E+05,      /* I = 22 */
(PID.TID 0000.0001)                 2.774243179696503E+05,      /* I = 23 */
(PID.TID 0000.0001)                 2.693210245495156E+05,      /* I = 24 */
(PID.TID 0000.0001)                 2.598919724358304E+05,      /* I = 25 */
(PID.TID 0000.0001)                 2.490022710862746E+05,      /* I = 26 */
(PID.TID 0000.0001)                 2.364352994647058E+05,      /* I = 27 */
(PID.TID 0000.0001)                 2.218350349844185E+05,      /* I = 28 */
(PID.TID 0000.0001)                 2.045883481718707E+05,      /* I = 29 */
(PID.TID 0000.0001)                 1.835530058121492E+05,      /* I = 30 */
(PID.TID 0000.0001)                 1.563594089971120E+05,      /* I = 31 */
(PID.TID 0000.0001)     2 @  1.202082051331828E+05,             /* I = 32: 33 */
(PID.TID 0000.0001)                 1.563594089971120E+05,      /* I = 34 */
(PID.TID 0000.0001)                 1.835530058121492E+05,      /* I = 35 */
(PID.TID 0000.0001)                 2.045883481718707E+05,      /* I = 36 */
(PID.TID 0000.0001)                 2.218350349844185E+05,      /* I = 37 */
(PID.TID 0000.0001)                 2.364352994647058E+05,      /* I = 38 */
(PID.TID 0000.0001)                 2.490022710862746E+05,      /* I = 39 */
(PID.TID 0000.0001)                 2.598919724358304E+05,      /* I = 40 */
(PID.TID 0000.0001)                 2.693210245495156E+05,      /* I = 41 */
(PID.TID 0000.0001)                 2.774243179696503E+05,      /* I = 42 */
(PID.TID 0000.0001)                 2.842862532064524E+05,      /* I = 43 */
(PID.TID 0000.0001)                 2.899590699694043E+05,      /* I = 44 */
(PID.TID 0000.0001)                 2.944742915095688E+05,      /* I = 45 */
(PID.TID 0000.0001)                 2.978501920522794E+05,      /* I = 46 */
(PID.TID 0000.0001)                 3.000967749619962E+05,      /* I = 47 */
(PID.TID 0000.0001)     2 @  3.012190981969055E+05,             /* I = 48: 49 */
(PID.TID 0000.0001)                 3.000967749619962E+05,      /* I = 50 */
(PID.TID 0000.0001)                 2.978501920522794E+05,      /* I = 51 */
(PID.TID 0000.0001)                 2.944742915095688E+05,      /* I = 52 */
(PID.TID 0000.0001)                 2.899590699694043E+05,      /* I = 53 */
(PID.TID 0000.0001)                 2.842862532064524E+05,      /* I = 54 */
(PID.TID 0000.0001)                 2.774243179696503E+05,      /* I = 55 */
(PID.TID 0000.0001)                 2.693210245495156E+05,      /* I = 56 */
(PID.TID 0000.0001)                 2.598919724358304E+05,      /* I = 57 */
(PID.TID 0000.0001)                 2.490022710862746E+05,      /* I = 58 */
(PID.TID 0000.0001)                 2.364352994647058E+05,      /* I = 59 */
(PID.TID 0000.0001)                 2.218350349844185E+05,      /* I = 60 */
(PID.TID 0000.0001)                 2.045883481718707E+05,      /* I = 61 */
(PID.TID 0000.0001)                 1.835530058121492E+05,      /* I = 62 */
(PID.TID 0000.0001)                 1.563594089971120E+05,      /* I = 63 */
(PID.TID 0000.0001)     2 @  1.202082051331828E+05,             /* I = 64: 65 */
(PID.TID 0000.0001)                 1.563594089971120E+05,      /* I = 66 */
(PID.TID 0000.0001)                 1.835530058121492E+05,      /* I = 67 */
(PID.TID 0000.0001)                 2.045883481718707E+05,      /* I = 68 */
(PID.TID 0000.0001)                 2.218350349844185E+05,      /* I = 69 */
(PID.TID 0000.0001)                 2.364352994647058E+05,      /* I = 70 */
(PID.TID 0000.0001)                 2.490022710862746E+05,      /* I = 71 */
(PID.TID 0000.0001)                 2.598919724358304E+05,      /* I = 72 */
(PID.TID 0000.0001)                 2.693210245495156E+05,      /* I = 73 */
(PID.TID 0000.0001)                 2.774243179696503E+05,      /* I = 74 */
(PID.TID 0000.0001)                 2.842862532064524E+05,      /* I = 75 */
(PID.TID 0000.0001)                 2.899590699694043E+05,      /* I = 76 */
(PID.TID 0000.0001)                 2.944742915095688E+05,      /* I = 77 */
(PID.TID 0000.0001)                 2.978501920522794E+05,      /* I = 78 */
(PID.TID 0000.0001)                 3.000967749619962E+05,      /* I = 79 */
(PID.TID 0000.0001)     2 @  3.012190981969055E+05,             /* I = 80: 81 */
(PID.TID 0000.0001)                 3.000967749619962E+05,      /* I = 82 */
(PID.TID 0000.0001)                 2.978501920522794E+05,      /* I = 83 */
(PID.TID 0000.0001)                 2.944742915095688E+05,      /* I = 84 */
(PID.TID 0000.0001)                 2.899590699694043E+05,      /* I = 85 */
(PID.TID 0000.0001)                 2.842862532064524E+05,      /* I = 86 */
(PID.TID 0000.0001)                 2.774243179696503E+05,      /* I = 87 */
(PID.TID 0000.0001)                 2.693210245495156E+05,      /* I = 88 */
(PID.TID 0000.0001)                 2.598919724358304E+05,      /* I = 89 */
(PID.TID 0000.0001)                 2.490022710862746E+05,      /* I = 90 */
(PID.TID 0000.0001)                 2.364352994647058E+05,      /* I = 91 */
(PID.TID 0000.0001)                 2.218350349844185E+05,      /* I = 92 */
(PID.TID 0000.0001)                 2.045883481718707E+05,      /* I = 93 */
(PID.TID 0000.0001)                 1.835530058121492E+05,      /* I = 94 */
(PID.TID 0000.0001)                 1.563594089971120E+05,      /* I = 95 */
(PID.TID 0000.0001)     2 @  1.202082051331828E+05,             /* I = 96: 97 */
(PID.TID 0000.0001)                 1.563594089971120E+05,      /* I = 98 */
(PID.TID 0000.0001)                 1.835530058121492E+05,      /* I = 99 */
(PID.TID 0000.0001)                 2.045883481718707E+05,      /* I =100 */
(PID.TID 0000.0001)                 2.218350349844185E+05,      /* I =101 */
(PID.TID 0000.0001)                 2.364352994647058E+05,      /* I =102 */
(PID.TID 0000.0001)                 2.490022710862746E+05,      /* I =103 */
(PID.TID 0000.0001)                 2.598919724358304E+05,      /* I =104 */
(PID.TID 0000.0001)                 2.693210245495156E+05,      /* I =105 */
(PID.TID 0000.0001)                 2.774243179696503E+05,      /* I =106 */
(PID.TID 0000.0001)                 2.842862532064524E+05,      /* I =107 */
(PID.TID 0000.0001)                 2.899590699694043E+05,      /* I =108 */
(PID.TID 0000.0001)                 2.944742915095688E+05,      /* I =109 */
(PID.TID 0000.0001)                 2.978501920522794E+05,      /* I =110 */
(PID.TID 0000.0001)                 3.000967749619962E+05,      /* I =111 */
(PID.TID 0000.0001)     2 @  3.012190981969055E+05,             /* I =112:113 */
(PID.TID 0000.0001)                 3.000967749619962E+05,      /* I =114 */
(PID.TID 0000.0001)                 2.978501920522794E+05,      /* I =115 */
(PID.TID 0000.0001)                 2.944742915095688E+05,      /* I =116 */
(PID.TID 0000.0001)                 2.899590699694043E+05,      /* I =117 */
(PID.TID 0000.0001)                 2.842862532064524E+05,      /* I =118 */
(PID.TID 0000.0001)                 2.774243179696503E+05,      /* I =119 */
(PID.TID 0000.0001)                 2.693210245495156E+05,      /* I =120 */
(PID.TID 0000.0001)                 2.598919724358304E+05,      /* I =121 */
(PID.TID 0000.0001)                 2.490022710862746E+05,      /* I =122 */
(PID.TID 0000.0001)                 2.364352994647058E+05,      /* I =123 */
(PID.TID 0000.0001)                 2.218350349844185E+05,      /* I =124 */
(PID.TID 0000.0001)                 2.045883481718707E+05,      /* I =125 */
(PID.TID 0000.0001)                 1.835530058121492E+05,      /* I =126 */
(PID.TID 0000.0001)                 1.563594089971120E+05,      /* I =127 */
(PID.TID 0000.0001)     2 @  1.202082051331828E+05,             /* I =128:129 */
(PID.TID 0000.0001)                 1.563594089971120E+05,      /* I =130 */
(PID.TID 0000.0001)                 1.835530058121492E+05,      /* I =131 */
(PID.TID 0000.0001)                 2.045883481718707E+05,      /* I =132 */
(PID.TID 0000.0001)                 2.218350349844185E+05,      /* I =133 */
(PID.TID 0000.0001)                 2.364352994647058E+05,      /* I =134 */
(PID.TID 0000.0001)                 2.490022710862746E+05,      /* I =135 */
(PID.TID 0000.0001)                 2.598919724358304E+05,      /* I =136 */
(PID.TID 0000.0001)                 2.693210245495156E+05,      /* I =137 */
(PID.TID 0000.0001)                 2.774243179696503E+05,      /* I =138 */
(PID.TID 0000.0001)                 2.842862532064524E+05,      /* I =139 */
(PID.TID 0000.0001)                 2.899590699694043E+05,      /* I =140 */
(PID.TID 0000.0001)                 2.944742915095688E+05,      /* I =141 */
(PID.TID 0000.0001)                 2.978501920522794E+05,      /* I =142 */
(PID.TID 0000.0001)                 3.000967749619962E+05,      /* I =143 */
(PID.TID 0000.0001)     2 @  3.012190981969055E+05,             /* I =144:145 */
(PID.TID 0000.0001)                 3.000967749619962E+05,      /* I =146 */
(PID.TID 0000.0001)                 2.978501920522794E+05,      /* I =147 */
(PID.TID 0000.0001)                 2.944742915095688E+05,      /* I =148 */
(PID.TID 0000.0001)                 2.899590699694043E+05,      /* I =149 */
(PID.TID 0000.0001)                 2.842862532064524E+05,      /* I =150 */
(PID.TID 0000.0001)                 2.774243179696503E+05,      /* I =151 */
(PID.TID 0000.0001)                 2.693210245495156E+05,      /* I =152 */
(PID.TID 0000.0001)                 2.598919724358304E+05,      /* I =153 */
(PID.TID 0000.0001)                 2.490022710862746E+05,      /* I =154 */
(PID.TID 0000.0001)                 2.364352994647058E+05,      /* I =155 */
(PID.TID 0000.0001)                 2.218350349844185E+05,      /* I =156 */
(PID.TID 0000.0001)                 2.045883481718707E+05,      /* I =157 */
(PID.TID 0000.0001)                 1.835530058121492E+05,      /* I =158 */
(PID.TID 0000.0001)                 1.563594089971120E+05,      /* I =159 */
(PID.TID 0000.0001)     2 @  1.202082051331828E+05,             /* I =160:161 */
(PID.TID 0000.0001)                 1.563594089971120E+05,      /* I =162 */
(PID.TID 0000.0001)                 1.835530058121492E+05,      /* I =163 */
(PID.TID 0000.0001)                 2.045883481718707E+05,      /* I =164 */
(PID.TID 0000.0001)                 2.218350349844185E+05,      /* I =165 */
(PID.TID 0000.0001)                 2.364352994647058E+05,      /* I =166 */
(PID.TID 0000.0001)                 2.490022710862746E+05,      /* I =167 */
(PID.TID 0000.0001)                 2.598919724358304E+05,      /* I =168 */
(PID.TID 0000.0001)                 2.693210245495156E+05,      /* I =169 */
(PID.TID 0000.0001)                 2.774243179696503E+05,      /* I =170 */
(PID.TID 0000.0001)                 2.842862532064524E+05,      /* I =171 */
(PID.TID 0000.0001)                 2.899590699694043E+05,      /* I =172 */
(PID.TID 0000.0001)                 2.944742915095688E+05,      /* I =173 */
(PID.TID 0000.0001)                 2.978501920522794E+05,      /* I =174 */
(PID.TID 0000.0001)                 3.000967749619962E+05,      /* I =175 */
(PID.TID 0000.0001)     2 @  3.012190981969055E+05,             /* I =176:177 */
(PID.TID 0000.0001)                 3.000967749619962E+05,      /* I =178 */
(PID.TID 0000.0001)                 2.978501920522794E+05,      /* I =179 */
(PID.TID 0000.0001)                 2.944742915095688E+05,      /* I =180 */
(PID.TID 0000.0001)                 2.899590699694043E+05,      /* I =181 */
(PID.TID 0000.0001)                 2.842862532064524E+05,      /* I =182 */
(PID.TID 0000.0001)                 2.774243179696503E+05,      /* I =183 */
(PID.TID 0000.0001)                 2.693210245495156E+05,      /* I =184 */
(PID.TID 0000.0001)                 2.598919724358304E+05,      /* I =185 */
(PID.TID 0000.0001)                 2.490022710862746E+05,      /* I =186 */
(PID.TID 0000.0001)                 2.364352994647058E+05,      /* I =187 */
(PID.TID 0000.0001)                 2.218350349844185E+05,      /* I =188 */
(PID.TID 0000.0001)                 2.045883481718707E+05,      /* I =189 */
(PID.TID 0000.0001)                 1.835530058121492E+05,      /* I =190 */
(PID.TID 0000.0001)                 1.563594089971120E+05,      /* I =191 */
(PID.TID 0000.0001)                 1.202082051331828E+05       /* I =192 */
(PID.TID 0000.0001)     ;
(PID.TID 0000.0001) dxF =  /* dxF(1,:,1,:) ( units: m ) */
(PID.TID 0000.0001)                 1.202082051331828E+05,      /* J =  1 */
(PID.TID 0000.0001)                 1.572908084538706E+05,      /* J =  2 */
(PID.TID 0000.0001)                 1.840412227747703E+05,      /* J =  3 */
(PID.TID 0000.0001)                 2.048868197919576E+05,      /* J =  4 */
(PID.TID 0000.0001)                 2.220405216043041E+05,      /* J =  5 */
(PID.TID 0000.0001)                 2.365892017348392E+05,      /* J =  6 */
(PID.TID 0000.0001)                 2.491250781852558E+05,      /* J =  7 */
(PID.TID 0000.0001)                 2.599949918261881E+05,      /* J =  8 */
(PID.TID 0000.0001)                 2.694110134598581E+05,      /* J =  9 */
(PID.TID 0000.0001)                 2.775055554645015E+05,      /* J = 10 */
(PID.TID 0000.0001)                 2.843615645344775E+05,      /* J = 11 */
(PID.TID 0000.0001)                 2.900303768613599E+05,      /* J = 12 */
(PID.TID 0000.0001)                 2.945429307892709E+05,      /* J = 13 */
(PID.TID 0000.0001)                 2.979171143158405E+05,      /* J = 14 */
(PID.TID 0000.0001)                 3.001626787528886E+05,      /* J = 15 */
(PID.TID 0000.0001)     2 @  3.012844832048790E+05,             /* J = 16: 17 */
(PID.TID 0000.0001)                 3.001626787528886E+05,      /* J = 18 */
(PID.TID 0000.0001)                 2.979171143158405E+05,      /* J = 19 */
(PID.TID 0000.0001)                 2.945429307892709E+05,      /* J = 20 */
(PID.TID 0000.0001)                 2.900303768613599E+05,      /* J = 21 */
(PID.TID 0000.0001)                 2.843615645344775E+05,      /* J = 22 */
(PID.TID 0000.0001)                 2.775055554645015E+05,      /* J = 23 */
(PID.TID 0000.0001)                 2.694110134598581E+05,      /* J = 24 */
(PID.TID 0000.0001)                 2.599949918261881E+05,      /* J = 25 */
(PID.TID 0000.0001)                 2.491250781852558E+05,      /* J = 26 */
(PID.TID 0000.0001)                 2.365892017348392E+05,      /* J = 27 */
(PID.TID 0000.0001)                 2.220405216043041E+05,      /* J = 28 */
(PID.TID 0000.0001)                 2.048868197919576E+05,      /* J = 29 */
(PID.TID 0000.0001)                 1.840412227747703E+05,      /* J = 30 */
(PID.TID 0000.0001)                 1.572908084538706E+05,      /* J = 31 */
(PID.TID 0000.0001)                 1.202082051331828E+05       /* J = 32 */
(PID.TID 0000.0001)     ;
(PID.TID 0000.0001) dyF =  /* dyF(:,1,:,1) ( units: m ) */
(PID.TID 0000.0001)                 1.202082051331828E+05,      /* I =  1 */
(PID.TID 0000.0001)                 1.572908084538706E+05,      /* I =  2 */
(PID.TID 0000.0001)                 1.840412227747703E+05,      /* I =  3 */
(PID.TID 0000.0001)                 2.048868197919576E+05,      /* I =  4 */
(PID.TID 0000.0001)                 2.220405216043041E+05,      /* I =  5 */
(PID.TID 0000.0001)                 2.365892017348392E+05,      /* I =  6 */
(PID.TID 0000.0001)                 2.491250781852558E+05,      /* I =  7 */
(PID.TID 0000.0001)                 2.599949918261881E+05,      /* I =  8 */
(PID.TID 0000.0001)                 2.694110134598581E+05,      /* I =  9 */
(PID.TID 0000.0001)                 2.775055554645015E+05,      /* I = 10 */
(PID.TID 0000.0001)                 2.843615645344775E+05,      /* I = 11 */
(PID.TID 0000.0001)                 2.900303768613599E+05,      /* I = 12 */
(PID.TID 0000.0001)                 2.945429307892709E+05,      /* I = 13 */
(PID.TID 0000.0001)                 2.979171143158405E+05,      /* I = 14 */
(PID.TID 0000.0001)                 3.001626787528886E+05,      /* I = 15 */
(PID.TID 0000.0001)     2 @  3.012844832048790E+05,             /* I = 16: 17 */
(PID.TID 0000.0001)                 3.001626787528886E+05,      /* I = 18 */
(PID.TID 0000.0001)                 2.979171143158405E+05,      /* I = 19 */
(PID.TID 0000.0001)                 2.945429307892709E+05,      /* I = 20 */
(PID.TID 0000.0001)                 2.900303768613599E+05,      /* I = 21 */
(PID.TID 0000.0001)                 2.843615645344775E+05,      /* I = 22 */
(PID.TID 0000.0001)                 2.775055554645015E+05,      /* I = 23 */
(PID.TID 0000.0001)                 2.694110134598581E+05,      /* I = 24 */
(PID.TID 0000.0001)                 2.599949918261881E+05,      /* I = 25 */
(PID.TID 0000.0001)                 2.491250781852558E+05,      /* I = 26 */
(PID.TID 0000.0001)                 2.365892017348392E+05,      /* I = 27 */
(PID.TID 0000.0001)                 2.220405216043041E+05,      /* I = 28 */
(PID.TID 0000.0001)                 2.048868197919576E+05,      /* I = 29 */
(PID.TID 0000.0001)                 1.840412227747703E+05,      /* I = 30 */
(PID.TID 0000.0001)                 1.572908084538706E+05,      /* I = 31 */
(PID.TID 0000.0001)     2 @  1.202082051331828E+05,             /* I = 32: 33 */
(PID.TID 0000.0001)                 1.572908084538706E+05,      /* I = 34 */
(PID.TID 0000.0001)                 1.840412227747703E+05,      /* I = 35 */
(PID.TID 0000.0001)                 2.048868197919576E+05,      /* I = 36 */
(PID.TID 0000.0001)                 2.220405216043041E+05,      /* I = 37 */
(PID.TID 0000.0001)                 2.365892017348392E+05,      /* I = 38 */
(PID.TID 0000.0001)                 2.491250781852558E+05,      /* I = 39 */
(PID.TID 0000.0001)                 2.599949918261881E+05,      /* I = 40 */
(PID.TID 0000.0001)                 2.694110134598581E+05,      /* I = 41 */
(PID.TID 0000.0001)                 2.775055554645015E+05,      /* I = 42 */
(PID.TID 0000.0001)                 2.843615645344775E+05,      /* I = 43 */
(PID.TID 0000.0001)                 2.900303768613599E+05,      /* I = 44 */
(PID.TID 0000.0001)                 2.945429307892709E+05,      /* I = 45 */
(PID.TID 0000.0001)                 2.979171143158405E+05,      /* I = 46 */
(PID.TID 0000.0001)                 3.001626787528886E+05,      /* I = 47 */
(PID.TID 0000.0001)     2 @  3.012844832048790E+05,             /* I = 48: 49 */
(PID.TID 0000.0001)                 3.001626787528886E+05,      /* I = 50 */
(PID.TID 0000.0001)                 2.979171143158405E+05,      /* I = 51 */
(PID.TID 0000.0001)                 2.945429307892709E+05,      /* I = 52 */
(PID.TID 0000.0001)                 2.900303768613599E+05,      /* I = 53 */
(PID.TID 0000.0001)                 2.843615645344775E+05,      /* I = 54 */
(PID.TID 0000.0001)                 2.775055554645015E+05,      /* I = 55 */
(PID.TID 0000.0001)                 2.694110134598581E+05,      /* I = 56 */
(PID.TID 0000.0001)                 2.599949918261881E+05,      /* I = 57 */
(PID.TID 0000.0001)                 2.491250781852558E+05,      /* I = 58 */
(PID.TID 0000.0001)                 2.365892017348392E+05,      /* I = 59 */
(PID.TID 0000.0001)                 2.220405216043041E+05,      /* I = 60 */
(PID.TID 0000.0001)                 2.048868197919576E+05,      /* I = 61 */
(PID.TID 0000.0001)                 1.840412227747703E+05,      /* I = 62 */
(PID.TID 0000.0001)                 1.572908084538706E+05,      /* I = 63 */
(PID.TID 0000.0001)     2 @  1.202082051331828E+05,             /* I = 64: 65 */
(PID.TID 0000.0001)                 1.572908084538706E+05,      /* I = 66 */
(PID.TID 0000.0001)                 1.840412227747703E+05,      /* I = 67 */
(PID.TID 0000.0001)                 2.048868197919576E+05,      /* I = 68 */
(PID.TID 0000.0001)                 2.220405216043041E+05,      /* I = 69 */
(PID.TID 0000.0001)                 2.365892017348392E+05,      /* I = 70 */
(PID.TID 0000.0001)                 2.491250781852558E+05,      /* I = 71 */
(PID.TID 0000.0001)                 2.599949918261881E+05,      /* I = 72 */
(PID.TID 0000.0001)                 2.694110134598581E+05,      /* I = 73 */
(PID.TID 0000.0001)                 2.775055554645015E+05,      /* I = 74 */
(PID.TID 0000.0001)                 2.843615645344775E+05,      /* I = 75 */
(PID.TID 0000.0001)                 2.900303768613599E+05,      /* I = 76 */
(PID.TID 0000.0001)                 2.945429307892709E+05,      /* I = 77 */
(PID.TID 0000.0001)                 2.979171143158405E+05,      /* I = 78 */
(PID.TID 0000.0001)                 3.001626787528886E+05,      /* I = 79 */
(PID.TID 0000.0001)     2 @  3.012844832048790E+05,             /* I = 80: 81 */
(PID.TID 0000.0001)                 3.001626787528886E+05,      /* I = 82 */
(PID.TID 0000.0001)                 2.979171143158405E+05,      /* I = 83 */
(PID.TID 0000.0001)                 2.945429307892709E+05,      /* I = 84 */
(PID.TID 0000.0001)                 2.900303768613599E+05,      /* I = 85 */
(PID.TID 0000.0001)                 2.843615645344775E+05,      /* I = 86 */
(PID.TID 0000.0001)                 2.775055554645015E+05,      /* I = 87 */
(PID.TID 0000.0001)                 2.694110134598581E+05,      /* I = 88 */
(PID.TID 0000.0001)                 2.599949918261881E+05,      /* I = 89 */
(PID.TID 0000.0001)                 2.491250781852558E+05,      /* I = 90 */
(PID.TID 0000.0001)                 2.365892017348392E+05,      /* I = 91 */
(PID.TID 0000.0001)                 2.220405216043041E+05,      /* I = 92 */
(PID.TID 0000.0001)                 2.048868197919576E+05,      /* I = 93 */
(PID.TID 0000.0001)                 1.840412227747703E+05,      /* I = 94 */
(PID.TID 0000.0001)                 1.572908084538706E+05,      /* I = 95 */
(PID.TID 0000.0001)     2 @  1.202082051331828E+05,             /* I = 96: 97 */
(PID.TID 0000.0001)                 1.572908084538706E+05,      /* I = 98 */
(PID.TID 0000.0001)                 1.840412227747703E+05,      /* I = 99 */
(PID.TID 0000.0001)                 2.048868197919576E+05,      /* I =100 */
(PID.TID 0000.0001)                 2.220405216043041E+05,      /* I =101 */
(PID.TID 0000.0001)                 2.365892017348392E+05,      /* I =102 */
(PID.TID 0000.0001)                 2.491250781852558E+05,      /* I =103 */
(PID.TID 0000.0001)                 2.599949918261881E+05,      /* I =104 */
(PID.TID 0000.0001)                 2.694110134598581E+05,      /* I =105 */
(PID.TID 0000.0001)                 2.775055554645015E+05,      /* I =106 */
(PID.TID 0000.0001)                 2.843615645344775E+05,      /* I =107 */
(PID.TID 0000.0001)                 2.900303768613599E+05,      /* I =108 */
(PID.TID 0000.0001)                 2.945429307892709E+05,      /* I =109 */
(PID.TID 0000.0001)                 2.979171143158405E+05,      /* I =110 */
(PID.TID 0000.0001)                 3.001626787528886E+05,      /* I =111 */
(PID.TID 0000.0001)     2 @  3.012844832048790E+05,             /* I =112:113 */
(PID.TID 0000.0001)                 3.001626787528886E+05,      /* I =114 */
(PID.TID 0000.0001)                 2.979171143158405E+05,      /* I =115 */
(PID.TID 0000.0001)                 2.945429307892709E+05,      /* I =116 */
(PID.TID 0000.0001)                 2.900303768613599E+05,      /* I =117 */
(PID.TID 0000.0001)                 2.843615645344775E+05,      /* I =118 */
(PID.TID 0000.0001)                 2.775055554645015E+05,      /* I =119 */
(PID.TID 0000.0001)                 2.694110134598581E+05,      /* I =120 */
(PID.TID 0000.0001)                 2.599949918261881E+05,      /* I =121 */
(PID.TID 0000.0001)                 2.491250781852558E+05,      /* I =122 */
(PID.TID 0000.0001)                 2.365892017348392E+05,      /* I =123 */
(PID.TID 0000.0001)                 2.220405216043041E+05,      /* I =124 */
(PID.TID 0000.0001)                 2.048868197919576E+05,      /* I =125 */
(PID.TID 0000.0001)                 1.840412227747703E+05,      /* I =126 */
(PID.TID 0000.0001)                 1.572908084538706E+05,      /* I =127 */
(PID.TID 0000.0001)     2 @  1.202082051331828E+05,             /* I =128:129 */
(PID.TID 0000.0001)                 1.572908084538706E+05,      /* I =130 */
(PID.TID 0000.0001)                 1.840412227747703E+05,      /* I =131 */
(PID.TID 0000.0001)                 2.048868197919576E+05,      /* I =132 */
(PID.TID 0000.0001)                 2.220405216043041E+05,      /* I =133 */
(PID.TID 0000.0001)                 2.365892017348392E+05,      /* I =134 */
(PID.TID 0000.0001)                 2.491250781852558E+05,      /* I =135 */
(PID.TID 0000.0001)                 2.599949918261881E+05,      /* I =136 */
(PID.TID 0000.0001)                 2.694110134598581E+05,      /* I =137 */
(PID.TID 0000.0001)                 2.775055554645015E+05,      /* I =138 */
(PID.TID 0000.0001)                 2.843615645344775E+05,      /* I =139 */
(PID.TID 0000.0001)                 2.900303768613599E+05,      /* I =140 */
(PID.TID 0000.0001)                 2.945429307892709E+05,      /* I =141 */
(PID.TID 0000.0001)                 2.979171143158405E+05,      /* I =142 */
(PID.TID 0000.0001)                 3.001626787528886E+05,      /* I =143 */
(PID.TID 0000.0001)     2 @  3.012844832048790E+05,             /* I =144:145 */
(PID.TID 0000.0001)                 3.001626787528886E+05,      /* I =146 */
(PID.TID 0000.0001)                 2.979171143158405E+05,      /* I =147 */
(PID.TID 0000.0001)                 2.945429307892709E+05,      /* I =148 */
(PID.TID 0000.0001)                 2.900303768613599E+05,      /* I =149 */
(PID.TID 0000.0001)                 2.843615645344775E+05,      /* I =150 */
(PID.TID 0000.0001)                 2.775055554645015E+05,      /* I =151 */
(PID.TID 0000.0001)                 2.694110134598581E+05,      /* I =152 */
(PID.TID 0000.0001)                 2.599949918261881E+05,      /* I =153 */
(PID.TID 0000.0001)                 2.491250781852558E+05,      /* I =154 */
(PID.TID 0000.0001)                 2.365892017348392E+05,      /* I =155 */
(PID.TID 0000.0001)                 2.220405216043041E+05,      /* I =156 */
(PID.TID 0000.0001)                 2.048868197919576E+05,      /* I =157 */
(PID.TID 0000.0001)                 1.840412227747703E+05,      /* I =158 */
(PID.TID 0000.0001)                 1.572908084538706E+05,      /* I =159 */
(PID.TID 0000.0001)     2 @  1.202082051331828E+05,             /* I =160:161 */
(PID.TID 0000.0001)                 1.572908084538706E+05,      /* I =162 */
(PID.TID 0000.0001)                 1.840412227747703E+05,      /* I =163 */
(PID.TID 0000.0001)                 2.048868197919576E+05,      /* I =164 */
(PID.TID 0000.0001)                 2.220405216043041E+05,      /* I =165 */
(PID.TID 0000.0001)                 2.365892017348392E+05,      /* I =166 */
(PID.TID 0000.0001)                 2.491250781852558E+05,      /* I =167 */
(PID.TID 0000.0001)                 2.599949918261881E+05,      /* I =168 */
(PID.TID 0000.0001)                 2.694110134598581E+05,      /* I =169 */
(PID.TID 0000.0001)                 2.775055554645015E+05,      /* I =170 */
(PID.TID 0000.0001)                 2.843615645344775E+05,      /* I =171 */
(PID.TID 0000.0001)                 2.900303768613599E+05,      /* I =172 */
(PID.TID 0000.0001)                 2.945429307892709E+05,      /* I =173 */
(PID.TID 0000.0001)                 2.979171143158405E+05,      /* I =174 */
(PID.TID 0000.0001)                 3.001626787528886E+05,      /* I =175 */
(PID.TID 0000.0001)     2 @  3.012844832048790E+05,             /* I =176:177 */
(PID.TID 0000.0001)                 3.001626787528886E+05,      /* I =178 */
(PID.TID 0000.0001)                 2.979171143158405E+05,      /* I =179 */
(PID.TID 0000.0001)                 2.945429307892709E+05,      /* I =180 */
(PID.TID 0000.0001)                 2.900303768613599E+05,      /* I =181 */
(PID.TID 0000.0001)                 2.843615645344775E+05,      /* I =182 */
(PID.TID 0000.0001)                 2.775055554645015E+05,      /* I =183 */
(PID.TID 0000.0001)                 2.694110134598581E+05,      /* I =184 */
(PID.TID 0000.0001)                 2.599949918261881E+05,      /* I =185 */
(PID.TID 0000.0001)                 2.491250781852558E+05,      /* I =186 */
(PID.TID 0000.0001)                 2.365892017348392E+05,      /* I =187 */
(PID.TID 0000.0001)                 2.220405216043041E+05,      /* I =188 */
(PID.TID 0000.0001)                 2.048868197919576E+05,      /* I =189 */
(PID.TID 0000.0001)                 1.840412227747703E+05,      /* I =190 */
(PID.TID 0000.0001)                 1.572908084538706E+05,      /* I =191 */
(PID.TID 0000.0001)                 1.202082051331828E+05       /* I =192 */
(PID.TID 0000.0001)     ;
(PID.TID 0000.0001) dyF =  /* dyF(1,:,1,:) ( units: m ) */
(PID.TID 0000.0001)                 1.202082051331828E+05,      /* J =  1 */
(PID.TID 0000.0001)                 1.563594089971120E+05,      /* J =  2 */
(PID.TID 0000.0001)                 1.835530058121492E+05,      /* J =  3 */
(PID.TID 0000.0001)                 2.045883481718707E+05,      /* J =  4 */
(PID.TID 0000.0001)                 2.218350349844185E+05,      /* J =  5 */
(PID.TID 0000.0001)                 2.364352994647058E+05,      /* J =  6 */
(PID.TID 0000.0001)                 2.490022710862746E+05,      /* J =  7 */
(PID.TID 0000.0001)                 2.598919724358304E+05,      /* J =  8 */
(PID.TID 0000.0001)                 2.693210245495156E+05,      /* J =  9 */
(PID.TID 0000.0001)                 2.774243179696503E+05,      /* J = 10 */
(PID.TID 0000.0001)                 2.842862532064524E+05,      /* J = 11 */
(PID.TID 0000.0001)                 2.899590699694043E+05,      /* J = 12 */
(PID.TID 0000.0001)                 2.944742915095688E+05,      /* J = 13 */
(PID.TID 0000.0001)                 2.978501920522794E+05,      /* J = 14 */
(PID.TID 0000.0001)                 3.000967749619962E+05,      /* J = 15 */
(PID.TID 0000.0001)     2 @  3.012190981969055E+05,             /* J = 16: 17 */
(PID.TID 0000.0001)                 3.000967749619962E+05,      /* J = 18 */
(PID.TID 0000.0001)                 2.978501920522794E+05,      /* J = 19 */
(PID.TID 0000.0001)                 2.944742915095688E+05,      /* J = 20 */
(PID.TID 0000.0001)                 2.899590699694043E+05,      /* J = 21 */
(PID.TID 0000.0001)                 2.842862532064524E+05,      /* J = 22 */
(PID.TID 0000.0001)                 2.774243179696503E+05,      /* J = 23 */
(PID.TID 0000.0001)                 2.693210245495156E+05,      /* J = 24 */
(PID.TID 0000.0001)                 2.598919724358304E+05,      /* J = 25 */
(PID.TID 0000.0001)                 2.490022710862746E+05,      /* J = 26 */
(PID.TID 0000.0001)                 2.364352994647058E+05,      /* J = 27 */
(PID.TID 0000.0001)                 2.218350349844185E+05,      /* J = 28 */
(PID.TID 0000.0001)                 2.045883481718707E+05,      /* J = 29 */
(PID.TID 0000.0001)                 1.835530058121492E+05,      /* J = 30 */
(PID.TID 0000.0001)                 1.563594089971120E+05,      /* J = 31 */
(PID.TID 0000.0001)                 1.202082051331828E+05       /* J = 32 */
(PID.TID 0000.0001)     ;
(PID.TID 0000.0001) dxG =  /* dxG(:,1,:,1) ( units: m ) */
(PID.TID 0000.0001)                 1.009837800879055E+05,      /* I =  1 */
(PID.TID 0000.0001)                 1.534505834330338E+05,      /* I =  2 */
(PID.TID 0000.0001)                 1.823321598773926E+05,      /* I =  3 */
(PID.TID 0000.0001)                 2.038999045536999E+05,      /* I =  4 */
(PID.TID 0000.0001)                 2.213884732245467E+05,      /* I =  5 */
(PID.TID 0000.0001)                 2.361211699596122E+05,      /* I =  6 */
(PID.TID 0000.0001)                 2.487693460283865E+05,      /* I =  7 */
(PID.TID 0000.0001)                 2.597126963772147E+05,      /* I =  8 */
(PID.TID 0000.0001)                 2.691790288994575E+05,      /* I =  9 */
(PID.TID 0000.0001)                 2.773091043277394E+05,      /* I = 10 */
(PID.TID 0000.0001)                 2.841906470085516E+05,      /* I = 11 */
(PID.TID 0000.0001)                 2.898778860929753E+05,      /* I = 12 */
(PID.TID 0000.0001)                 2.944035815526416E+05,      /* I = 13 */
(PID.TID 0000.0001)                 2.977867909042096E+05,      /* I = 14 */
(PID.TID 0000.0001)                 3.000380090330854E+05,      /* I = 15 */
(PID.TID 0000.0001)     2 @  3.011625828699101E+05,             /* I = 16: 17 */
(PID.TID 0000.0001)                 3.000380090330854E+05,      /* I = 18 */
(PID.TID 0000.0001)                 2.977867909042096E+05,      /* I = 19 */
(PID.TID 0000.0001)                 2.944035815526416E+05,      /* I = 20 */
(PID.TID 0000.0001)                 2.898778860929753E+05,      /* I = 21 */
(PID.TID 0000.0001)                 2.841906470085516E+05,      /* I = 22 */
(PID.TID 0000.0001)                 2.773091043277394E+05,      /* I = 23 */
(PID.TID 0000.0001)                 2.691790288994575E+05,      /* I = 24 */
(PID.TID 0000.0001)                 2.597126963772147E+05,      /* I = 25 */
(PID.TID 0000.0001)                 2.487693460283865E+05,      /* I = 26 */
(PID.TID 0000.0001)                 2.361211699596122E+05,      /* I = 27 */
(PID.TID 0000.0001)                 2.213884732245467E+05,      /* I = 28 */
(PID.TID 0000.0001)                 2.038999045536999E+05,      /* I = 29 */
(PID.TID 0000.0001)                 1.823321598773926E+05,      /* I = 30 */
(PID.TID 0000.0001)                 1.534505834330338E+05,      /* I = 31 */
(PID.TID 0000.0001)     2 @  1.009837800879055E+05,             /* I = 32: 33 */
(PID.TID 0000.0001)                 1.534505834330338E+05,      /* I = 34 */
(PID.TID 0000.0001)                 1.823321598773926E+05,      /* I = 35 */
(PID.TID 0000.0001)                 2.038999045536999E+05,      /* I = 36 */
(PID.TID 0000.0001)                 2.213884732245467E+05,      /* I = 37 */
(PID.TID 0000.0001)                 2.361211699596122E+05,      /* I = 38 */
(PID.TID 0000.0001)                 2.487693460283865E+05,      /* I = 39 */
(PID.TID 0000.0001)                 2.597126963772147E+05,      /* I = 40 */
(PID.TID 0000.0001)                 2.691790288994575E+05,      /* I = 41 */
(PID.TID 0000.0001)                 2.773091043277394E+05,      /* I = 42 */
(PID.TID 0000.0001)                 2.841906470085516E+05,      /* I = 43 */
(PID.TID 0000.0001)                 2.898778860929753E+05,      /* I = 44 */
(PID.TID 0000.0001)                 2.944035815526416E+05,      /* I = 45 */
(PID.TID 0000.0001)                 2.977867909042096E+05,      /* I = 46 */
(PID.TID 0000.0001)                 3.000380090330854E+05,      /* I = 47 */
(PID.TID 0000.0001)     2 @  3.011625828699101E+05,             /* I = 48: 49 */
(PID.TID 0000.0001)                 3.000380090330854E+05,      /* I = 50 */
(PID.TID 0000.0001)                 2.977867909042096E+05,      /* I = 51 */
(PID.TID 0000.0001)                 2.944035815526416E+05,      /* I = 52 */
(PID.TID 0000.0001)                 2.898778860929753E+05,      /* I = 53 */
(PID.TID 0000.0001)                 2.841906470085516E+05,      /* I = 54 */
(PID.TID 0000.0001)                 2.773091043277394E+05,      /* I = 55 */
(PID.TID 0000.0001)                 2.691790288994575E+05,      /* I = 56 */
(PID.TID 0000.0001)                 2.597126963772147E+05,      /* I = 57 */
(PID.TID 0000.0001)                 2.487693460283865E+05,      /* I = 58 */
(PID.TID 0000.0001)                 2.361211699596122E+05,      /* I = 59 */
(PID.TID 0000.0001)                 2.213884732245467E+05,      /* I = 60 */
(PID.TID 0000.0001)                 2.038999045536999E+05,      /* I = 61 */
(PID.TID 0000.0001)                 1.823321598773926E+05,      /* I = 62 */
(PID.TID 0000.0001)                 1.534505834330338E+05,      /* I = 63 */
(PID.TID 0000.0001)     2 @  1.009837800879055E+05,             /* I = 64: 65 */
(PID.TID 0000.0001)                 1.534505834330338E+05,      /* I = 66 */
(PID.TID 0000.0001)                 1.823321598773926E+05,      /* I = 67 */
(PID.TID 0000.0001)                 2.038999045536999E+05,      /* I = 68 */
(PID.TID 0000.0001)                 2.213884732245467E+05,      /* I = 69 */
(PID.TID 0000.0001)                 2.361211699596122E+05,      /* I = 70 */
(PID.TID 0000.0001)                 2.487693460283865E+05,      /* I = 71 */
(PID.TID 0000.0001)                 2.597126963772147E+05,      /* I = 72 */
(PID.TID 0000.0001)                 2.691790288994575E+05,      /* I = 73 */
(PID.TID 0000.0001)                 2.773091043277394E+05,      /* I = 74 */
(PID.TID 0000.0001)                 2.841906470085516E+05,      /* I = 75 */
(PID.TID 0000.0001)                 2.898778860929753E+05,      /* I = 76 */
(PID.TID 0000.0001)                 2.944035815526416E+05,      /* I = 77 */
(PID.TID 0000.0001)                 2.977867909042096E+05,      /* I = 78 */
(PID.TID 0000.0001)                 3.000380090330854E+05,      /* I = 79 */
(PID.TID 0000.0001)     2 @  3.011625828699101E+05,             /* I = 80: 81 */
(PID.TID 0000.0001)                 3.000380090330854E+05,      /* I = 82 */
(PID.TID 0000.0001)                 2.977867909042096E+05,      /* I = 83 */
(PID.TID 0000.0001)                 2.944035815526416E+05,      /* I = 84 */
(PID.TID 0000.0001)                 2.898778860929753E+05,      /* I = 85 */
(PID.TID 0000.0001)                 2.841906470085516E+05,      /* I = 86 */
(PID.TID 0000.0001)                 2.773091043277394E+05,      /* I = 87 */
(PID.TID 0000.0001)                 2.691790288994575E+05,      /* I = 88 */
(PID.TID 0000.0001)                 2.597126963772147E+05,      /* I = 89 */
(PID.TID 0000.0001)                 2.487693460283865E+05,      /* I = 90 */
(PID.TID 0000.0001)                 2.361211699596122E+05,      /* I = 91 */
(PID.TID 0000.0001)                 2.213884732245467E+05,      /* I = 92 */
(PID.TID 0000.0001)                 2.038999045536999E+05,      /* I = 93 */
(PID.TID 0000.0001)                 1.823321598773926E+05,      /* I = 94 */
(PID.TID 0000.0001)                 1.534505834330338E+05,      /* I = 95 */
(PID.TID 0000.0001)     2 @  1.009837800879055E+05,             /* I = 96: 97 */
(PID.TID 0000.0001)                 1.534505834330338E+05,      /* I = 98 */
(PID.TID 0000.0001)                 1.823321598773926E+05,      /* I = 99 */
(PID.TID 0000.0001)                 2.038999045536999E+05,      /* I =100 */
(PID.TID 0000.0001)                 2.213884732245467E+05,      /* I =101 */
(PID.TID 0000.0001)                 2.361211699596122E+05,      /* I =102 */
(PID.TID 0000.0001)                 2.487693460283865E+05,      /* I =103 */
(PID.TID 0000.0001)                 2.597126963772147E+05,      /* I =104 */
(PID.TID 0000.0001)                 2.691790288994575E+05,      /* I =105 */
(PID.TID 0000.0001)                 2.773091043277394E+05,      /* I =106 */
(PID.TID 0000.0001)                 2.841906470085516E+05,      /* I =107 */
(PID.TID 0000.0001)                 2.898778860929753E+05,      /* I =108 */
(PID.TID 0000.0001)                 2.944035815526416E+05,      /* I =109 */
(PID.TID 0000.0001)                 2.977867909042096E+05,      /* I =110 */
(PID.TID 0000.0001)                 3.000380090330854E+05,      /* I =111 */
(PID.TID 0000.0001)     2 @  3.011625828699101E+05,             /* I =112:113 */
(PID.TID 0000.0001)                 3.000380090330854E+05,      /* I =114 */
(PID.TID 0000.0001)                 2.977867909042096E+05,      /* I =115 */
(PID.TID 0000.0001)                 2.944035815526416E+05,      /* I =116 */
(PID.TID 0000.0001)                 2.898778860929753E+05,      /* I =117 */
(PID.TID 0000.0001)                 2.841906470085516E+05,      /* I =118 */
(PID.TID 0000.0001)                 2.773091043277394E+05,      /* I =119 */
(PID.TID 0000.0001)                 2.691790288994575E+05,      /* I =120 */
(PID.TID 0000.0001)                 2.597126963772147E+05,      /* I =121 */
(PID.TID 0000.0001)                 2.487693460283865E+05,      /* I =122 */
(PID.TID 0000.0001)                 2.361211699596122E+05,      /* I =123 */
(PID.TID 0000.0001)                 2.213884732245467E+05,      /* I =124 */
(PID.TID 0000.0001)                 2.038999045536999E+05,      /* I =125 */
(PID.TID 0000.0001)                 1.823321598773926E+05,      /* I =126 */
(PID.TID 0000.0001)                 1.534505834330338E+05,      /* I =127 */
(PID.TID 0000.0001)     2 @  1.009837800879055E+05,             /* I =128:129 */
(PID.TID 0000.0001)                 1.534505834330338E+05,      /* I =130 */
(PID.TID 0000.0001)                 1.823321598773926E+05,      /* I =131 */
(PID.TID 0000.0001)                 2.038999045536999E+05,      /* I =132 */
(PID.TID 0000.0001)                 2.213884732245467E+05,      /* I =133 */
(PID.TID 0000.0001)                 2.361211699596122E+05,      /* I =134 */
(PID.TID 0000.0001)                 2.487693460283865E+05,      /* I =135 */
(PID.TID 0000.0001)                 2.597126963772147E+05,      /* I =136 */
(PID.TID 0000.0001)                 2.691790288994575E+05,      /* I =137 */
(PID.TID 0000.0001)                 2.773091043277394E+05,      /* I =138 */
(PID.TID 0000.0001)                 2.841906470085516E+05,      /* I =139 */
(PID.TID 0000.0001)                 2.898778860929753E+05,      /* I =140 */
(PID.TID 0000.0001)                 2.944035815526416E+05,      /* I =141 */
(PID.TID 0000.0001)                 2.977867909042096E+05,      /* I =142 */
(PID.TID 0000.0001)                 3.000380090330854E+05,      /* I =143 */
(PID.TID 0000.0001)     2 @  3.011625828699101E+05,             /* I =144:145 */
(PID.TID 0000.0001)                 3.000380090330854E+05,      /* I =146 */
(PID.TID 0000.0001)                 2.977867909042096E+05,      /* I =147 */
(PID.TID 0000.0001)                 2.944035815526416E+05,      /* I =148 */
(PID.TID 0000.0001)                 2.898778860929753E+05,      /* I =149 */
(PID.TID 0000.0001)                 2.841906470085516E+05,      /* I =150 */
(PID.TID 0000.0001)                 2.773091043277394E+05,      /* I =151 */
(PID.TID 0000.0001)                 2.691790288994575E+05,      /* I =152 */
(PID.TID 0000.0001)                 2.597126963772147E+05,      /* I =153 */
(PID.TID 0000.0001)                 2.487693460283865E+05,      /* I =154 */
(PID.TID 0000.0001)                 2.361211699596122E+05,      /* I =155 */
(PID.TID 0000.0001)                 2.213884732245467E+05,      /* I =156 */
(PID.TID 0000.0001)                 2.038999045536999E+05,      /* I =157 */
(PID.TID 0000.0001)                 1.823321598773926E+05,      /* I =158 */
(PID.TID 0000.0001)                 1.534505834330338E+05,      /* I =159 */
(PID.TID 0000.0001)     2 @  1.009837800879055E+05,             /* I =160:161 */
(PID.TID 0000.0001)                 1.534505834330338E+05,      /* I =162 */
(PID.TID 0000.0001)                 1.823321598773926E+05,      /* I =163 */
(PID.TID 0000.0001)                 2.038999045536999E+05,      /* I =164 */
(PID.TID 0000.0001)                 2.213884732245467E+05,      /* I =165 */
(PID.TID 0000.0001)                 2.361211699596122E+05,      /* I =166 */
(PID.TID 0000.0001)                 2.487693460283865E+05,      /* I =167 */
(PID.TID 0000.0001)                 2.597126963772147E+05,      /* I =168 */
(PID.TID 0000.0001)                 2.691790288994575E+05,      /* I =169 */
(PID.TID 0000.0001)                 2.773091043277394E+05,      /* I =170 */
(PID.TID 0000.0001)                 2.841906470085516E+05,      /* I =171 */
(PID.TID 0000.0001)                 2.898778860929753E+05,      /* I =172 */
(PID.TID 0000.0001)                 2.944035815526416E+05,      /* I =173 */
(PID.TID 0000.0001)                 2.977867909042096E+05,      /* I =174 */
(PID.TID 0000.0001)                 3.000380090330854E+05,      /* I =175 */
(PID.TID 0000.0001)     2 @  3.011625828699101E+05,             /* I =176:177 */
(PID.TID 0000.0001)                 3.000380090330854E+05,      /* I =178 */
(PID.TID 0000.0001)                 2.977867909042096E+05,      /* I =179 */
(PID.TID 0000.0001)                 2.944035815526416E+05,      /* I =180 */
(PID.TID 0000.0001)                 2.898778860929753E+05,      /* I =181 */
(PID.TID 0000.0001)                 2.841906470085516E+05,      /* I =182 */
(PID.TID 0000.0001)                 2.773091043277394E+05,      /* I =183 */
(PID.TID 0000.0001)                 2.691790288994575E+05,      /* I =184 */
(PID.TID 0000.0001)                 2.597126963772147E+05,      /* I =185 */
(PID.TID 0000.0001)                 2.487693460283865E+05,      /* I =186 */
(PID.TID 0000.0001)                 2.361211699596122E+05,      /* I =187 */
(PID.TID 0000.0001)                 2.213884732245467E+05,      /* I =188 */
(PID.TID 0000.0001)                 2.038999045536999E+05,      /* I =189 */
(PID.TID 0000.0001)                 1.823321598773926E+05,      /* I =190 */
(PID.TID 0000.0001)                 1.534505834330338E+05,      /* I =191 */
(PID.TID 0000.0001)                 1.009837800879055E+05       /* I =192 */
(PID.TID 0000.0001)     ;
(PID.TID 0000.0001) dxG =  /* dxG(1,:,1,:) ( units: m ) */
(PID.TID 0000.0001)                 1.009837800879055E+05,      /* J =  1 */
(PID.TID 0000.0001)                 1.403701524205398E+05,      /* J =  2 */
(PID.TID 0000.0001)                 1.716197227386011E+05,      /* J =  3 */
(PID.TID 0000.0001)                 1.950254041626018E+05,      /* J =  4 */
(PID.TID 0000.0001)                 2.138410773065497E+05,      /* J =  5 */
(PID.TID 0000.0001)                 2.295958105911512E+05,      /* J =  6 */
(PID.TID 0000.0001)                 2.430829951739083E+05,      /* J =  7 */
(PID.TID 0000.0001)                 2.547526806712889E+05,      /* J =  8 */
(PID.TID 0000.0001)                 2.648750305193301E+05,      /* J =  9 */
(PID.TID 0000.0001)                 2.736173771018112E+05,      /* J = 10 */
(PID.TID 0000.0001)                 2.810845823202647E+05,      /* J = 11 */
(PID.TID 0000.0001)                 2.873420591008078E+05,      /* J = 12 */
(PID.TID 0000.0001)                 2.924298293668651E+05,      /* J = 13 */
(PID.TID 0000.0001)                 2.963715635865306E+05,      /* J = 14 */
(PID.TID 0000.0001)                 2.991805843171258E+05,      /* J = 15 */
(PID.TID 0000.0001)                 3.008638765647886E+05,      /* J = 16 */
(PID.TID 0000.0001)                 3.014246674484008E+05,      /* J = 17 */
(PID.TID 0000.0001)                 3.008638765647886E+05,      /* J = 18 */
(PID.TID 0000.0001)                 2.991805843171258E+05,      /* J = 19 */
(PID.TID 0000.0001)                 2.963715635865306E+05,      /* J = 20 */
(PID.TID 0000.0001)                 2.924298293668651E+05,      /* J = 21 */
(PID.TID 0000.0001)                 2.873420591008078E+05,      /* J = 22 */
(PID.TID 0000.0001)                 2.810845823202647E+05,      /* J = 23 */
(PID.TID 0000.0001)                 2.736173771018112E+05,      /* J = 24 */
(PID.TID 0000.0001)                 2.648750305193301E+05,      /* J = 25 */
(PID.TID 0000.0001)                 2.547526806712889E+05,      /* J = 26 */
(PID.TID 0000.0001)                 2.430829951739083E+05,      /* J = 27 */
(PID.TID 0000.0001)                 2.295958105911512E+05,      /* J = 28 */
(PID.TID 0000.0001)                 2.138410773065497E+05,      /* J = 29 */
(PID.TID 0000.0001)                 1.950254041626018E+05,      /* J = 30 */
(PID.TID 0000.0001)                 1.716197227386011E+05,      /* J = 31 */
(PID.TID 0000.0001)                 1.403701524205398E+05       /* J = 32 */
(PID.TID 0000.0001)     ;
(PID.TID 0000.0001) dyG =  /* dyG(:,1,:,1) ( units: m ) */
(PID.TID 0000.0001)                 1.009837800879055E+05,      /* I =  1 */
(PID.TID 0000.0001)                 1.403701524205398E+05,      /* I =  2 */
(PID.TID 0000.0001)                 1.716197227386011E+05,      /* I =  3 */
(PID.TID 0000.0001)                 1.950254041626018E+05,      /* I =  4 */
(PID.TID 0000.0001)                 2.138410773065497E+05,      /* I =  5 */
(PID.TID 0000.0001)                 2.295958105911512E+05,      /* I =  6 */
(PID.TID 0000.0001)                 2.430829951739083E+05,      /* I =  7 */
(PID.TID 0000.0001)                 2.547526806712889E+05,      /* I =  8 */
(PID.TID 0000.0001)                 2.648750305193301E+05,      /* I =  9 */
(PID.TID 0000.0001)                 2.736173771018112E+05,      /* I = 10 */
(PID.TID 0000.0001)                 2.810845823202647E+05,      /* I = 11 */
(PID.TID 0000.0001)                 2.873420591008078E+05,      /* I = 12 */
(PID.TID 0000.0001)                 2.924298293668651E+05,      /* I = 13 */
(PID.TID 0000.0001)                 2.963715635865306E+05,      /* I = 14 */
(PID.TID 0000.0001)                 2.991805843171258E+05,      /* I = 15 */
(PID.TID 0000.0001)                 3.008638765647886E+05,      /* I = 16 */
(PID.TID 0000.0001)                 3.014246674484008E+05,      /* I = 17 */
(PID.TID 0000.0001)                 3.008638765647886E+05,      /* I = 18 */
(PID.TID 0000.0001)                 2.991805843171258E+05,      /* I = 19 */
(PID.TID 0000.0001)                 2.963715635865306E+05,      /* I = 20 */
(PID.TID 0000.0001)                 2.924298293668651E+05,      /* I = 21 */
(PID.TID 0000.0001)                 2.873420591008078E+05,      /* I = 22 */
(PID.TID 0000.0001)                 2.810845823202647E+05,      /* I = 23 */
(PID.TID 0000.0001)                 2.736173771018112E+05,      /* I = 24 */
(PID.TID 0000.0001)                 2.648750305193301E+05,      /* I = 25 */
(PID.TID 0000.0001)                 2.547526806712889E+05,      /* I = 26 */
(PID.TID 0000.0001)                 2.430829951739083E+05,      /* I = 27 */
(PID.TID 0000.0001)                 2.295958105911512E+05,      /* I = 28 */
(PID.TID 0000.0001)                 2.138410773065497E+05,      /* I = 29 */
(PID.TID 0000.0001)                 1.950254041626018E+05,      /* I = 30 */
(PID.TID 0000.0001)                 1.716197227386011E+05,      /* I = 31 */
(PID.TID 0000.0001)                 1.403701524205398E+05,      /* I = 32 */
(PID.TID 0000.0001)                 1.009837800879055E+05,      /* I = 33 */
(PID.TID 0000.0001)                 1.403701524205398E+05,      /* I = 34 */
(PID.TID 0000.0001)                 1.716197227386011E+05,      /* I = 35 */
(PID.TID 0000.0001)                 1.950254041626018E+05,      /* I = 36 */
(PID.TID 0000.0001)                 2.138410773065497E+05,      /* I = 37 */
(PID.TID 0000.0001)                 2.295958105911512E+05,      /* I = 38 */
(PID.TID 0000.0001)                 2.430829951739083E+05,      /* I = 39 */
(PID.TID 0000.0001)                 2.547526806712889E+05,      /* I = 40 */
(PID.TID 0000.0001)                 2.648750305193301E+05,      /* I = 41 */
(PID.TID 0000.0001)                 2.736173771018112E+05,      /* I = 42 */
(PID.TID 0000.0001)                 2.810845823202647E+05,      /* I = 43 */
(PID.TID 0000.0001)                 2.873420591008078E+05,      /* I = 44 */
(PID.TID 0000.0001)                 2.924298293668651E+05,      /* I = 45 */
(PID.TID 0000.0001)                 2.963715635865306E+05,      /* I = 46 */
(PID.TID 0000.0001)                 2.991805843171258E+05,      /* I = 47 */
(PID.TID 0000.0001)                 3.008638765647886E+05,      /* I = 48 */
(PID.TID 0000.0001)                 3.014246674484008E+05,      /* I = 49 */
(PID.TID 0000.0001)                 3.008638765647886E+05,      /* I = 50 */
(PID.TID 0000.0001)                 2.991805843171258E+05,      /* I = 51 */
(PID.TID 0000.0001)                 2.963715635865306E+05,      /* I = 52 */
(PID.TID 0000.0001)                 2.924298293668651E+05,      /* I = 53 */
(PID.TID 0000.0001)                 2.873420591008078E+05,      /* I = 54 */
(PID.TID 0000.0001)                 2.810845823202647E+05,      /* I = 55 */
(PID.TID 0000.0001)                 2.736173771018112E+05,      /* I = 56 */
(PID.TID 0000.0001)                 2.648750305193301E+05,      /* I = 57 */
(PID.TID 0000.0001)                 2.547526806712889E+05,      /* I = 58 */
(PID.TID 0000.0001)                 2.430829951739083E+05,      /* I = 59 */
(PID.TID 0000.0001)                 2.295958105911512E+05,      /* I = 60 */
(PID.TID 0000.0001)                 2.138410773065497E+05,      /* I = 61 */
(PID.TID 0000.0001)                 1.950254041626018E+05,      /* I = 62 */
(PID.TID 0000.0001)                 1.716197227386011E+05,      /* I = 63 */
(PID.TID 0000.0001)                 1.403701524205398E+05,      /* I = 64 */
(PID.TID 0000.0001)                 1.009837800879055E+05,      /* I = 65 */
(PID.TID 0000.0001)                 1.403701524205398E+05,      /* I = 66 */
(PID.TID 0000.0001)                 1.716197227386011E+05,      /* I = 67 */
(PID.TID 0000.0001)                 1.950254041626018E+05,      /* I = 68 */
(PID.TID 0000.0001)                 2.138410773065497E+05,      /* I = 69 */
(PID.TID 0000.0001)                 2.295958105911512E+05,      /* I = 70 */
(PID.TID 0000.0001)                 2.430829951739083E+05,      /* I = 71 */
(PID.TID 0000.0001)                 2.547526806712889E+05,      /* I = 72 */
(PID.TID 0000.0001)                 2.648750305193301E+05,      /* I = 73 */
(PID.TID 0000.0001)                 2.736173771018112E+05,      /* I = 74 */
(PID.TID 0000.0001)                 2.810845823202647E+05,      /* I = 75 */
(PID.TID 0000.0001)                 2.873420591008078E+05,      /* I = 76 */
(PID.TID 0000.0001)                 2.924298293668651E+05,      /* I = 77 */
(PID.TID 0000.0001)                 2.963715635865306E+05,      /* I = 78 */
(PID.TID 0000.0001)                 2.991805843171258E+05,      /* I = 79 */
(PID.TID 0000.0001)                 3.008638765647886E+05,      /* I = 80 */
(PID.TID 0000.0001)                 3.014246674484008E+05,      /* I = 81 */
(PID.TID 0000.0001)                 3.008638765647886E+05,      /* I = 82 */
(PID.TID 0000.0001)                 2.991805843171258E+05,      /* I = 83 */
(PID.TID 0000.0001)                 2.963715635865306E+05,      /* I = 84 */
(PID.TID 0000.0001)                 2.924298293668651E+05,      /* I = 85 */
(PID.TID 0000.0001)                 2.873420591008078E+05,      /* I = 86 */
(PID.TID 0000.0001)                 2.810845823202647E+05,      /* I = 87 */
(PID.TID 0000.0001)                 2.736173771018112E+05,      /* I = 88 */
(PID.TID 0000.0001)                 2.648750305193301E+05,      /* I = 89 */
(PID.TID 0000.0001)                 2.547526806712889E+05,      /* I = 90 */
(PID.TID 0000.0001)                 2.430829951739083E+05,      /* I = 91 */
(PID.TID 0000.0001)                 2.295958105911512E+05,      /* I = 92 */
(PID.TID 0000.0001)                 2.138410773065497E+05,      /* I = 93 */
(PID.TID 0000.0001)                 1.950254041626018E+05,      /* I = 94 */
(PID.TID 0000.0001)                 1.716197227386011E+05,      /* I = 95 */
(PID.TID 0000.0001)                 1.403701524205398E+05,      /* I = 96 */
(PID.TID 0000.0001)                 1.009837800879055E+05,      /* I = 97 */
(PID.TID 0000.0001)                 1.403701524205398E+05,      /* I = 98 */
(PID.TID 0000.0001)                 1.716197227386011E+05,      /* I = 99 */
(PID.TID 0000.0001)                 1.950254041626018E+05,      /* I =100 */
(PID.TID 0000.0001)                 2.138410773065497E+05,      /* I =101 */
(PID.TID 0000.0001)                 2.295958105911512E+05,      /* I =102 */
(PID.TID 0000.0001)                 2.430829951739083E+05,      /* I =103 */
(PID.TID 0000.0001)                 2.547526806712889E+05,      /* I =104 */
(PID.TID 0000.0001)                 2.648750305193301E+05,      /* I =105 */
(PID.TID 0000.0001)                 2.736173771018112E+05,      /* I =106 */
(PID.TID 0000.0001)                 2.810845823202647E+05,      /* I =107 */
(PID.TID 0000.0001)                 2.873420591008078E+05,      /* I =108 */
(PID.TID 0000.0001)                 2.924298293668651E+05,      /* I =109 */
(PID.TID 0000.0001)                 2.963715635865306E+05,      /* I =110 */
(PID.TID 0000.0001)                 2.991805843171258E+05,      /* I =111 */
(PID.TID 0000.0001)                 3.008638765647886E+05,      /* I =112 */
(PID.TID 0000.0001)                 3.014246674484008E+05,      /* I =113 */
(PID.TID 0000.0001)                 3.008638765647886E+05,      /* I =114 */
(PID.TID 0000.0001)                 2.991805843171258E+05,      /* I =115 */
(PID.TID 0000.0001)                 2.963715635865306E+05,      /* I =116 */
(PID.TID 0000.0001)                 2.924298293668651E+05,      /* I =117 */
(PID.TID 0000.0001)                 2.873420591008078E+05,      /* I =118 */
(PID.TID 0000.0001)                 2.810845823202647E+05,      /* I =119 */
(PID.TID 0000.0001)                 2.736173771018112E+05,      /* I =120 */
(PID.TID 0000.0001)                 2.648750305193301E+05,      /* I =121 */
(PID.TID 0000.0001)                 2.547526806712889E+05,      /* I =122 */
(PID.TID 0000.0001)                 2.430829951739083E+05,      /* I =123 */
(PID.TID 0000.0001)                 2.295958105911512E+05,      /* I =124 */
(PID.TID 0000.0001)                 2.138410773065497E+05,      /* I =125 */
(PID.TID 0000.0001)                 1.950254041626018E+05,      /* I =126 */
(PID.TID 0000.0001)                 1.716197227386011E+05,      /* I =127 */
(PID.TID 0000.0001)                 1.403701524205398E+05,      /* I =128 */
(PID.TID 0000.0001)                 1.009837800879055E+05,      /* I =129 */
(PID.TID 0000.0001)                 1.403701524205398E+05,      /* I =130 */
(PID.TID 0000.0001)                 1.716197227386011E+05,      /* I =131 */
(PID.TID 0000.0001)                 1.950254041626018E+05,      /* I =132 */
(PID.TID 0000.0001)                 2.138410773065497E+05,      /* I =133 */
(PID.TID 0000.0001)                 2.295958105911512E+05,      /* I =134 */
(PID.TID 0000.0001)                 2.430829951739083E+05,      /* I =135 */
(PID.TID 0000.0001)                 2.547526806712889E+05,      /* I =136 */
(PID.TID 0000.0001)                 2.648750305193301E+05,      /* I =137 */
(PID.TID 0000.0001)                 2.736173771018112E+05,      /* I =138 */
(PID.TID 0000.0001)                 2.810845823202647E+05,      /* I =139 */
(PID.TID 0000.0001)                 2.873420591008078E+05,      /* I =140 */
(PID.TID 0000.0001)                 2.924298293668651E+05,      /* I =141 */
(PID.TID 0000.0001)                 2.963715635865306E+05,      /* I =142 */
(PID.TID 0000.0001)                 2.991805843171258E+05,      /* I =143 */
(PID.TID 0000.0001)                 3.008638765647886E+05,      /* I =144 */
(PID.TID 0000.0001)                 3.014246674484008E+05,      /* I =145 */
(PID.TID 0000.0001)                 3.008638765647886E+05,      /* I =146 */
(PID.TID 0000.0001)                 2.991805843171258E+05,      /* I =147 */
(PID.TID 0000.0001)                 2.963715635865306E+05,      /* I =148 */
(PID.TID 0000.0001)                 2.924298293668651E+05,      /* I =149 */
(PID.TID 0000.0001)                 2.873420591008078E+05,      /* I =150 */
(PID.TID 0000.0001)                 2.810845823202647E+05,      /* I =151 */
(PID.TID 0000.0001)                 2.736173771018112E+05,      /* I =152 */
(PID.TID 0000.0001)                 2.648750305193301E+05,      /* I =153 */
(PID.TID 0000.0001)                 2.547526806712889E+05,      /* I =154 */
(PID.TID 0000.0001)                 2.430829951739083E+05,      /* I =155 */
(PID.TID 0000.0001)                 2.295958105911512E+05,      /* I =156 */
(PID.TID 0000.0001)                 2.138410773065497E+05,      /* I =157 */
(PID.TID 0000.0001)                 1.950254041626018E+05,      /* I =158 */
(PID.TID 0000.0001)                 1.716197227386011E+05,      /* I =159 */
(PID.TID 0000.0001)                 1.403701524205398E+05,      /* I =160 */
(PID.TID 0000.0001)                 1.009837800879055E+05,      /* I =161 */
(PID.TID 0000.0001)                 1.403701524205398E+05,      /* I =162 */
(PID.TID 0000.0001)                 1.716197227386011E+05,      /* I =163 */
(PID.TID 0000.0001)                 1.950254041626018E+05,      /* I =164 */
(PID.TID 0000.0001)                 2.138410773065497E+05,      /* I =165 */
(PID.TID 0000.0001)                 2.295958105911512E+05,      /* I =166 */
(PID.TID 0000.0001)                 2.430829951739083E+05,      /* I =167 */
(PID.TID 0000.0001)                 2.547526806712889E+05,      /* I =168 */
(PID.TID 0000.0001)                 2.648750305193301E+05,      /* I =169 */
(PID.TID 0000.0001)                 2.736173771018112E+05,      /* I =170 */
(PID.TID 0000.0001)                 2.810845823202647E+05,      /* I =171 */
(PID.TID 0000.0001)                 2.873420591008078E+05,      /* I =172 */
(PID.TID 0000.0001)                 2.924298293668651E+05,      /* I =173 */
(PID.TID 0000.0001)                 2.963715635865306E+05,      /* I =174 */
(PID.TID 0000.0001)                 2.991805843171258E+05,      /* I =175 */
(PID.TID 0000.0001)                 3.008638765647886E+05,      /* I =176 */
(PID.TID 0000.0001)                 3.014246674484008E+05,      /* I =177 */
(PID.TID 0000.0001)                 3.008638765647886E+05,      /* I =178 */
(PID.TID 0000.0001)                 2.991805843171258E+05,      /* I =179 */
(PID.TID 0000.0001)                 2.963715635865306E+05,      /* I =180 */
(PID.TID 0000.0001)                 2.924298293668651E+05,      /* I =181 */
(PID.TID 0000.0001)                 2.873420591008078E+05,      /* I =182 */
(PID.TID 0000.0001)                 2.810845823202647E+05,      /* I =183 */
(PID.TID 0000.0001)                 2.736173771018112E+05,      /* I =184 */
(PID.TID 0000.0001)                 2.648750305193301E+05,      /* I =185 */
(PID.TID 0000.0001)                 2.547526806712889E+05,      /* I =186 */
(PID.TID 0000.0001)                 2.430829951739083E+05,      /* I =187 */
(PID.TID 0000.0001)                 2.295958105911512E+05,      /* I =188 */
(PID.TID 0000.0001)                 2.138410773065497E+05,      /* I =189 */
(PID.TID 0000.0001)                 1.950254041626018E+05,      /* I =190 */
(PID.TID 0000.0001)                 1.716197227386011E+05,      /* I =191 */
(PID.TID 0000.0001)                 1.403701524205398E+05       /* I =192 */
(PID.TID 0000.0001)     ;
(PID.TID 0000.0001) dyG =  /* dyG(1,:,1,:) ( units: m ) */
(PID.TID 0000.0001)                 1.009837800879055E+05,      /* J =  1 */
(PID.TID 0000.0001)                 1.534505834330338E+05,      /* J =  2 */
(PID.TID 0000.0001)                 1.823321598773926E+05,      /* J =  3 */
(PID.TID 0000.0001)                 2.038999045536999E+05,      /* J =  4 */
(PID.TID 0000.0001)                 2.213884732245467E+05,      /* J =  5 */
(PID.TID 0000.0001)                 2.361211699596122E+05,      /* J =  6 */
(PID.TID 0000.0001)                 2.487693460283865E+05,      /* J =  7 */
(PID.TID 0000.0001)                 2.597126963772147E+05,      /* J =  8 */
(PID.TID 0000.0001)                 2.691790288994575E+05,      /* J =  9 */
(PID.TID 0000.0001)                 2.773091043277394E+05,      /* J = 10 */
(PID.TID 0000.0001)                 2.841906470085516E+05,      /* J = 11 */
(PID.TID 0000.0001)                 2.898778860929753E+05,      /* J = 12 */
(PID.TID 0000.0001)                 2.944035815526416E+05,      /* J = 13 */
(PID.TID 0000.0001)                 2.977867909042096E+05,      /* J = 14 */
(PID.TID 0000.0001)                 3.000380090330854E+05,      /* J = 15 */
(PID.TID 0000.0001)     2 @  3.011625828699101E+05,             /* J = 16: 17 */
(PID.TID 0000.0001)                 3.000380090330854E+05,      /* J = 18 */
(PID.TID 0000.0001)                 2.977867909042096E+05,      /* J = 19 */
(PID.TID 0000.0001)                 2.944035815526416E+05,      /* J = 20 */
(PID.TID 0000.0001)                 2.898778860929753E+05,      /* J = 21 */
(PID.TID 0000.0001)                 2.841906470085516E+05,      /* J = 22 */
(PID.TID 0000.0001)                 2.773091043277394E+05,      /* J = 23 */
(PID.TID 0000.0001)                 2.691790288994575E+05,      /* J = 24 */
(PID.TID 0000.0001)                 2.597126963772147E+05,      /* J = 25 */
(PID.TID 0000.0001)                 2.487693460283865E+05,      /* J = 26 */
(PID.TID 0000.0001)                 2.361211699596122E+05,      /* J = 27 */
(PID.TID 0000.0001)                 2.213884732245467E+05,      /* J = 28 */
(PID.TID 0000.0001)                 2.038999045536999E+05,      /* J = 29 */
(PID.TID 0000.0001)                 1.823321598773926E+05,      /* J = 30 */
(PID.TID 0000.0001)                 1.534505834330338E+05,      /* J = 31 */
(PID.TID 0000.0001)                 1.009837800879055E+05       /* J = 32 */
(PID.TID 0000.0001)     ;
(PID.TID 0000.0001) dxC =  /* dxC(:,1,:,1) ( units: m ) */
(PID.TID 0000.0001)                 1.114203141013064E+05,      /* I =  1 */
(PID.TID 0000.0001)                 1.391343389937106E+05,      /* I =  2 */
(PID.TID 0000.0001)                 1.709574999026266E+05,      /* I =  3 */
(PID.TID 0000.0001)                 1.946503699269892E+05,      /* I =  4 */
(PID.TID 0000.0001)                 2.135964483342134E+05,      /* I =  5 */
(PID.TID 0000.0001)                 2.294195678257306E+05,      /* I =  6 */
(PID.TID 0000.0001)                 2.429464709770498E+05,      /* I =  7 */
(PID.TID 0000.0001)                 2.546408290696998E+05,      /* I =  8 */
(PID.TID 0000.0001)                 2.647791839299727E+05,      /* I =  9 */
(PID.TID 0000.0001)                 2.735321911346108E+05,      /* I = 10 */
(PID.TID 0000.0001)                 2.810065951609633E+05,      /* I = 11 */
(PID.TID 0000.0001)                 2.872689479506990E+05,      /* I = 12 */
(PID.TID 0000.0001)                 2.923599955312932E+05,      /* I = 13 */
(PID.TID 0000.0001)                 2.963038832565530E+05,      /* I = 14 */
(PID.TID 0000.0001)                 2.991142470004740E+05,      /* I = 15 */
(PID.TID 0000.0001)                 3.007982711627968E+05,      /* I = 16 */
(PID.TID 0000.0001)                 3.013593857228136E+05,      /* I = 17 */
(PID.TID 0000.0001)                 3.007982711627968E+05,      /* I = 18 */
(PID.TID 0000.0001)                 2.991142470004740E+05,      /* I = 19 */
(PID.TID 0000.0001)                 2.963038832565530E+05,      /* I = 20 */
(PID.TID 0000.0001)                 2.923599955312932E+05,      /* I = 21 */
(PID.TID 0000.0001)                 2.872689479506990E+05,      /* I = 22 */
(PID.TID 0000.0001)                 2.810065951609633E+05,      /* I = 23 */
(PID.TID 0000.0001)                 2.735321911346108E+05,      /* I = 24 */
(PID.TID 0000.0001)                 2.647791839299727E+05,      /* I = 25 */
(PID.TID 0000.0001)                 2.546408290696998E+05,      /* I = 26 */
(PID.TID 0000.0001)                 2.429464709770498E+05,      /* I = 27 */
(PID.TID 0000.0001)                 2.294195678257306E+05,      /* I = 28 */
(PID.TID 0000.0001)                 2.135964483342134E+05,      /* I = 29 */
(PID.TID 0000.0001)                 1.946503699269892E+05,      /* I = 30 */
(PID.TID 0000.0001)                 1.709574999026266E+05,      /* I = 31 */
(PID.TID 0000.0001)                 1.391343389937106E+05,      /* I = 32 */
(PID.TID 0000.0001)                 1.114203141013064E+05,      /* I = 33 */
(PID.TID 0000.0001)                 1.391343389937106E+05,      /* I = 34 */
(PID.TID 0000.0001)                 1.709574999026266E+05,      /* I = 35 */
(PID.TID 0000.0001)                 1.946503699269892E+05,      /* I = 36 */
(PID.TID 0000.0001)                 2.135964483342134E+05,      /* I = 37 */
(PID.TID 0000.0001)                 2.294195678257306E+05,      /* I = 38 */
(PID.TID 0000.0001)                 2.429464709770498E+05,      /* I = 39 */
(PID.TID 0000.0001)                 2.546408290696998E+05,      /* I = 40 */
(PID.TID 0000.0001)                 2.647791839299727E+05,      /* I = 41 */
(PID.TID 0000.0001)                 2.735321911346108E+05,      /* I = 42 */
(PID.TID 0000.0001)                 2.810065951609633E+05,      /* I = 43 */
(PID.TID 0000.0001)                 2.872689479506990E+05,      /* I = 44 */
(PID.TID 0000.0001)                 2.923599955312932E+05,      /* I = 45 */
(PID.TID 0000.0001)                 2.963038832565530E+05,      /* I = 46 */
(PID.TID 0000.0001)                 2.991142470004740E+05,      /* I = 47 */
(PID.TID 0000.0001)                 3.007982711627968E+05,      /* I = 48 */
(PID.TID 0000.0001)                 3.013593857228136E+05,      /* I = 49 */
(PID.TID 0000.0001)                 3.007982711627968E+05,      /* I = 50 */
(PID.TID 0000.0001)                 2.991142470004740E+05,      /* I = 51 */
(PID.TID 0000.0001)                 2.963038832565530E+05,      /* I = 52 */
(PID.TID 0000.0001)                 2.923599955312932E+05,      /* I = 53 */
(PID.TID 0000.0001)                 2.872689479506990E+05,      /* I = 54 */
(PID.TID 0000.0001)                 2.810065951609633E+05,      /* I = 55 */
(PID.TID 0000.0001)                 2.735321911346108E+05,      /* I = 56 */
(PID.TID 0000.0001)                 2.647791839299727E+05,      /* I = 57 */
(PID.TID 0000.0001)                 2.546408290696998E+05,      /* I = 58 */
(PID.TID 0000.0001)                 2.429464709770498E+05,      /* I = 59 */
(PID.TID 0000.0001)                 2.294195678257306E+05,      /* I = 60 */
(PID.TID 0000.0001)                 2.135964483342134E+05,      /* I = 61 */
(PID.TID 0000.0001)                 1.946503699269892E+05,      /* I = 62 */
(PID.TID 0000.0001)                 1.709574999026266E+05,      /* I = 63 */
(PID.TID 0000.0001)                 1.391343389937106E+05,      /* I = 64 */
(PID.TID 0000.0001)                 1.114203141013064E+05,      /* I = 65 */
(PID.TID 0000.0001)                 1.391343389937106E+05,      /* I = 66 */
(PID.TID 0000.0001)                 1.709574999026266E+05,      /* I = 67 */
(PID.TID 0000.0001)                 1.946503699269892E+05,      /* I = 68 */
(PID.TID 0000.0001)                 2.135964483342134E+05,      /* I = 69 */
(PID.TID 0000.0001)                 2.294195678257306E+05,      /* I = 70 */
(PID.TID 0000.0001)                 2.429464709770498E+05,      /* I = 71 */
(PID.TID 0000.0001)                 2.546408290696998E+05,      /* I = 72 */
(PID.TID 0000.0001)                 2.647791839299727E+05,      /* I = 73 */
(PID.TID 0000.0001)                 2.735321911346108E+05,      /* I = 74 */
(PID.TID 0000.0001)                 2.810065951609633E+05,      /* I = 75 */
(PID.TID 0000.0001)                 2.872689479506990E+05,      /* I = 76 */
(PID.TID 0000.0001)                 2.923599955312932E+05,      /* I = 77 */
(PID.TID 0000.0001)                 2.963038832565530E+05,      /* I = 78 */
(PID.TID 0000.0001)                 2.991142470004740E+05,      /* I = 79 */
(PID.TID 0000.0001)                 3.007982711627968E+05,      /* I = 80 */
(PID.TID 0000.0001)                 3.013593857228136E+05,      /* I = 81 */
(PID.TID 0000.0001)                 3.007982711627968E+05,      /* I = 82 */
(PID.TID 0000.0001)                 2.991142470004740E+05,      /* I = 83 */
(PID.TID 0000.0001)                 2.963038832565530E+05,      /* I = 84 */
(PID.TID 0000.0001)                 2.923599955312932E+05,      /* I = 85 */
(PID.TID 0000.0001)                 2.872689479506990E+05,      /* I = 86 */
(PID.TID 0000.0001)                 2.810065951609633E+05,      /* I = 87 */
(PID.TID 0000.0001)                 2.735321911346108E+05,      /* I = 88 */
(PID.TID 0000.0001)                 2.647791839299727E+05,      /* I = 89 */
(PID.TID 0000.0001)                 2.546408290696998E+05,      /* I = 90 */
(PID.TID 0000.0001)                 2.429464709770498E+05,      /* I = 91 */
(PID.TID 0000.0001)                 2.294195678257306E+05,      /* I = 92 */
(PID.TID 0000.0001)                 2.135964483342134E+05,      /* I = 93 */
(PID.TID 0000.0001)                 1.946503699269892E+05,      /* I = 94 */
(PID.TID 0000.0001)                 1.709574999026266E+05,      /* I = 95 */
(PID.TID 0000.0001)                 1.391343389937106E+05,      /* I = 96 */
(PID.TID 0000.0001)                 1.114203141013064E+05,      /* I = 97 */
(PID.TID 0000.0001)                 1.391343389937106E+05,      /* I = 98 */
(PID.TID 0000.0001)                 1.709574999026266E+05,      /* I = 99 */
(PID.TID 0000.0001)                 1.946503699269892E+05,      /* I =100 */
(PID.TID 0000.0001)                 2.135964483342134E+05,      /* I =101 */
(PID.TID 0000.0001)                 2.294195678257306E+05,      /* I =102 */
(PID.TID 0000.0001)                 2.429464709770498E+05,      /* I =103 */
(PID.TID 0000.0001)                 2.546408290696998E+05,      /* I =104 */
(PID.TID 0000.0001)                 2.647791839299727E+05,      /* I =105 */
(PID.TID 0000.0001)                 2.735321911346108E+05,      /* I =106 */
(PID.TID 0000.0001)                 2.810065951609633E+05,      /* I =107 */
(PID.TID 0000.0001)                 2.872689479506990E+05,      /* I =108 */
(PID.TID 0000.0001)                 2.923599955312932E+05,      /* I =109 */
(PID.TID 0000.0001)                 2.963038832565530E+05,      /* I =110 */
(PID.TID 0000.0001)                 2.991142470004740E+05,      /* I =111 */
(PID.TID 0000.0001)                 3.007982711627968E+05,      /* I =112 */
(PID.TID 0000.0001)                 3.013593857228136E+05,      /* I =113 */
(PID.TID 0000.0001)                 3.007982711627968E+05,      /* I =114 */
(PID.TID 0000.0001)                 2.991142470004740E+05,      /* I =115 */
(PID.TID 0000.0001)                 2.963038832565530E+05,      /* I =116 */
(PID.TID 0000.0001)                 2.923599955312932E+05,      /* I =117 */
(PID.TID 0000.0001)                 2.872689479506990E+05,      /* I =118 */
(PID.TID 0000.0001)                 2.810065951609633E+05,      /* I =119 */
(PID.TID 0000.0001)                 2.735321911346108E+05,      /* I =120 */
(PID.TID 0000.0001)                 2.647791839299727E+05,      /* I =121 */
(PID.TID 0000.0001)                 2.546408290696998E+05,      /* I =122 */
(PID.TID 0000.0001)                 2.429464709770498E+05,      /* I =123 */
(PID.TID 0000.0001)                 2.294195678257306E+05,      /* I =124 */
(PID.TID 0000.0001)                 2.135964483342134E+05,      /* I =125 */
(PID.TID 0000.0001)                 1.946503699269892E+05,      /* I =126 */
(PID.TID 0000.0001)                 1.709574999026266E+05,      /* I =127 */
(PID.TID 0000.0001)                 1.391343389937106E+05,      /* I =128 */
(PID.TID 0000.0001)                 1.114203141013064E+05,      /* I =129 */
(PID.TID 0000.0001)                 1.391343389937106E+05,      /* I =130 */
(PID.TID 0000.0001)                 1.709574999026266E+05,      /* I =131 */
(PID.TID 0000.0001)                 1.946503699269892E+05,      /* I =132 */
(PID.TID 0000.0001)                 2.135964483342134E+05,      /* I =133 */
(PID.TID 0000.0001)                 2.294195678257306E+05,      /* I =134 */
(PID.TID 0000.0001)                 2.429464709770498E+05,      /* I =135 */
(PID.TID 0000.0001)                 2.546408290696998E+05,      /* I =136 */
(PID.TID 0000.0001)                 2.647791839299727E+05,      /* I =137 */
(PID.TID 0000.0001)                 2.735321911346108E+05,      /* I =138 */
(PID.TID 0000.0001)                 2.810065951609633E+05,      /* I =139 */
(PID.TID 0000.0001)                 2.872689479506990E+05,      /* I =140 */
(PID.TID 0000.0001)                 2.923599955312932E+05,      /* I =141 */
(PID.TID 0000.0001)                 2.963038832565530E+05,      /* I =142 */
(PID.TID 0000.0001)                 2.991142470004740E+05,      /* I =143 */
(PID.TID 0000.0001)                 3.007982711627968E+05,      /* I =144 */
(PID.TID 0000.0001)                 3.013593857228136E+05,      /* I =145 */
(PID.TID 0000.0001)                 3.007982711627968E+05,      /* I =146 */
(PID.TID 0000.0001)                 2.991142470004740E+05,      /* I =147 */
(PID.TID 0000.0001)                 2.963038832565530E+05,      /* I =148 */
(PID.TID 0000.0001)                 2.923599955312932E+05,      /* I =149 */
(PID.TID 0000.0001)                 2.872689479506990E+05,      /* I =150 */
(PID.TID 0000.0001)                 2.810065951609633E+05,      /* I =151 */
(PID.TID 0000.0001)                 2.735321911346108E+05,      /* I =152 */
(PID.TID 0000.0001)                 2.647791839299727E+05,      /* I =153 */
(PID.TID 0000.0001)                 2.546408290696998E+05,      /* I =154 */
(PID.TID 0000.0001)                 2.429464709770498E+05,      /* I =155 */
(PID.TID 0000.0001)                 2.294195678257306E+05,      /* I =156 */
(PID.TID 0000.0001)                 2.135964483342134E+05,      /* I =157 */
(PID.TID 0000.0001)                 1.946503699269892E+05,      /* I =158 */
(PID.TID 0000.0001)                 1.709574999026266E+05,      /* I =159 */
(PID.TID 0000.0001)                 1.391343389937106E+05,      /* I =160 */
(PID.TID 0000.0001)                 1.114203141013064E+05,      /* I =161 */
(PID.TID 0000.0001)                 1.391343389937106E+05,      /* I =162 */
(PID.TID 0000.0001)                 1.709574999026266E+05,      /* I =163 */
(PID.TID 0000.0001)                 1.946503699269892E+05,      /* I =164 */
(PID.TID 0000.0001)                 2.135964483342134E+05,      /* I =165 */
(PID.TID 0000.0001)                 2.294195678257306E+05,      /* I =166 */
(PID.TID 0000.0001)                 2.429464709770498E+05,      /* I =167 */
(PID.TID 0000.0001)                 2.546408290696998E+05,      /* I =168 */
(PID.TID 0000.0001)                 2.647791839299727E+05,      /* I =169 */
(PID.TID 0000.0001)                 2.735321911346108E+05,      /* I =170 */
(PID.TID 0000.0001)                 2.810065951609633E+05,      /* I =171 */
(PID.TID 0000.0001)                 2.872689479506990E+05,      /* I =172 */
(PID.TID 0000.0001)                 2.923599955312932E+05,      /* I =173 */
(PID.TID 0000.0001)                 2.963038832565530E+05,      /* I =174 */
(PID.TID 0000.0001)                 2.991142470004740E+05,      /* I =175 */
(PID.TID 0000.0001)                 3.007982711627968E+05,      /* I =176 */
(PID.TID 0000.0001)                 3.013593857228136E+05,      /* I =177 */
(PID.TID 0000.0001)                 3.007982711627968E+05,      /* I =178 */
(PID.TID 0000.0001)                 2.991142470004740E+05,      /* I =179 */
(PID.TID 0000.0001)                 2.963038832565530E+05,      /* I =180 */
(PID.TID 0000.0001)                 2.923599955312932E+05,      /* I =181 */
(PID.TID 0000.0001)                 2.872689479506990E+05,      /* I =182 */
(PID.TID 0000.0001)                 2.810065951609633E+05,      /* I =183 */
(PID.TID 0000.0001)                 2.735321911346108E+05,      /* I =184 */
(PID.TID 0000.0001)                 2.647791839299727E+05,      /* I =185 */
(PID.TID 0000.0001)                 2.546408290696998E+05,      /* I =186 */
(PID.TID 0000.0001)                 2.429464709770498E+05,      /* I =187 */
(PID.TID 0000.0001)                 2.294195678257306E+05,      /* I =188 */
(PID.TID 0000.0001)                 2.135964483342134E+05,      /* I =189 */
(PID.TID 0000.0001)                 1.946503699269892E+05,      /* I =190 */
(PID.TID 0000.0001)                 1.709574999026266E+05,      /* I =191 */
(PID.TID 0000.0001)                 1.391343389937106E+05       /* I =192 */
(PID.TID 0000.0001)     ;
(PID.TID 0000.0001) dxC =  /* dxC(1,:,1,:) ( units: m ) */
(PID.TID 0000.0001)                 1.114203141013064E+05,      /* J =  1 */
(PID.TID 0000.0001)                 1.549545757850771E+05,      /* J =  2 */
(PID.TID 0000.0001)                 1.829777599966776E+05,      /* J =  3 */
(PID.TID 0000.0001)                 2.042717761866506E+05,      /* J =  4 */
(PID.TID 0000.0001)                 2.216367828252819E+05,      /* J =  5 */
(PID.TID 0000.0001)                 2.363029564123586E+05,      /* J =  6 */
(PID.TID 0000.0001)                 2.489113743322025E+05,      /* J =  7 */
(PID.TID 0000.0001)                 2.598293319150326E+05,      /* J =  8 */
(PID.TID 0000.0001)                 2.692787333338535E+05,      /* J =  9 */
(PID.TID 0000.0001)                 2.773972106720365E+05,      /* J = 10 */
(PID.TID 0000.0001)                 2.842706922224557E+05,      /* J = 11 */
(PID.TID 0000.0001)                 2.899523122489403E+05,      /* J = 12 */
(PID.TID 0000.0001)                 2.944741346384699E+05,      /* J = 13 */
(PID.TID 0000.0001)                 2.978547649292580E+05,      /* J = 14 */
(PID.TID 0000.0001)                 3.001044073506459E+05,      /* J = 15 */
(PID.TID 0000.0001)     2 @  3.012281885409289E+05,             /* J = 16: 17 */
(PID.TID 0000.0001)                 3.001044073506459E+05,      /* J = 18 */
(PID.TID 0000.0001)                 2.978547649292580E+05,      /* J = 19 */
(PID.TID 0000.0001)                 2.944741346384699E+05,      /* J = 20 */
(PID.TID 0000.0001)                 2.899523122489403E+05,      /* J = 21 */
(PID.TID 0000.0001)                 2.842706922224557E+05,      /* J = 22 */
(PID.TID 0000.0001)                 2.773972106720365E+05,      /* J = 23 */
(PID.TID 0000.0001)                 2.692787333338535E+05,      /* J = 24 */
(PID.TID 0000.0001)                 2.598293319150326E+05,      /* J = 25 */
(PID.TID 0000.0001)                 2.489113743322025E+05,      /* J = 26 */
(PID.TID 0000.0001)                 2.363029564123586E+05,      /* J = 27 */
(PID.TID 0000.0001)                 2.216367828252819E+05,      /* J = 28 */
(PID.TID 0000.0001)                 2.042717761866506E+05,      /* J = 29 */
(PID.TID 0000.0001)                 1.829777599966776E+05,      /* J = 30 */
(PID.TID 0000.0001)                 1.549545757850771E+05,      /* J = 31 */
(PID.TID 0000.0001)                 1.114203141013064E+05       /* J = 32 */
(PID.TID 0000.0001)     ;
(PID.TID 0000.0001) dyC =  /* dyC(:,1,:,1) ( units: m ) */
(PID.TID 0000.0001)                 1.114203141013064E+05,      /* I =  1 */
(PID.TID 0000.0001)                 1.549545757850771E+05,      /* I =  2 */
(PID.TID 0000.0001)                 1.829777599966776E+05,      /* I =  3 */
(PID.TID 0000.0001)                 2.042717761866506E+05,      /* I =  4 */
(PID.TID 0000.0001)                 2.216367828252819E+05,      /* I =  5 */
(PID.TID 0000.0001)                 2.363029564123586E+05,      /* I =  6 */
(PID.TID 0000.0001)                 2.489113743322025E+05,      /* I =  7 */
(PID.TID 0000.0001)                 2.598293319150326E+05,      /* I =  8 */
(PID.TID 0000.0001)                 2.692787333338535E+05,      /* I =  9 */
(PID.TID 0000.0001)                 2.773972106720365E+05,      /* I = 10 */
(PID.TID 0000.0001)                 2.842706922224557E+05,      /* I = 11 */
(PID.TID 0000.0001)                 2.899523122489403E+05,      /* I = 12 */
(PID.TID 0000.0001)                 2.944741346384699E+05,      /* I = 13 */
(PID.TID 0000.0001)                 2.978547649292580E+05,      /* I = 14 */
(PID.TID 0000.0001)                 3.001044073506459E+05,      /* I = 15 */
(PID.TID 0000.0001)     2 @  3.012281885409289E+05,             /* I = 16: 17 */
(PID.TID 0000.0001)                 3.001044073506459E+05,      /* I = 18 */
(PID.TID 0000.0001)                 2.978547649292580E+05,      /* I = 19 */
(PID.TID 0000.0001)                 2.944741346384699E+05,      /* I = 20 */
(PID.TID 0000.0001)                 2.899523122489403E+05,      /* I = 21 */
(PID.TID 0000.0001)                 2.842706922224557E+05,      /* I = 22 */
(PID.TID 0000.0001)                 2.773972106720365E+05,      /* I = 23 */
(PID.TID 0000.0001)                 2.692787333338535E+05,      /* I = 24 */
(PID.TID 0000.0001)                 2.598293319150326E+05,      /* I = 25 */
(PID.TID 0000.0001)                 2.489113743322025E+05,      /* I = 26 */
(PID.TID 0000.0001)                 2.363029564123586E+05,      /* I = 27 */
(PID.TID 0000.0001)                 2.216367828252819E+05,      /* I = 28 */
(PID.TID 0000.0001)                 2.042717761866506E+05,      /* I = 29 */
(PID.TID 0000.0001)                 1.829777599966776E+05,      /* I = 30 */
(PID.TID 0000.0001)                 1.549545757850771E+05,      /* I = 31 */
(PID.TID 0000.0001)     2 @  1.114203141013064E+05,             /* I = 32: 33 */
(PID.TID 0000.0001)                 1.549545757850771E+05,      /* I = 34 */
(PID.TID 0000.0001)                 1.829777599966776E+05,      /* I = 35 */
(PID.TID 0000.0001)                 2.042717761866506E+05,      /* I = 36 */
(PID.TID 0000.0001)                 2.216367828252819E+05,      /* I = 37 */
(PID.TID 0000.0001)                 2.363029564123586E+05,      /* I = 38 */
(PID.TID 0000.0001)                 2.489113743322025E+05,      /* I = 39 */
(PID.TID 0000.0001)                 2.598293319150326E+05,      /* I = 40 */
(PID.TID 0000.0001)                 2.692787333338535E+05,      /* I = 41 */
(PID.TID 0000.0001)                 2.773972106720365E+05,      /* I = 42 */
(PID.TID 0000.0001)                 2.842706922224557E+05,      /* I = 43 */
(PID.TID 0000.0001)                 2.899523122489403E+05,      /* I = 44 */
(PID.TID 0000.0001)                 2.944741346384699E+05,      /* I = 45 */
(PID.TID 0000.0001)                 2.978547649292580E+05,      /* I = 46 */
(PID.TID 0000.0001)                 3.001044073506459E+05,      /* I = 47 */
(PID.TID 0000.0001)     2 @  3.012281885409289E+05,             /* I = 48: 49 */
(PID.TID 0000.0001)                 3.001044073506459E+05,      /* I = 50 */
(PID.TID 0000.0001)                 2.978547649292580E+05,      /* I = 51 */
(PID.TID 0000.0001)                 2.944741346384699E+05,      /* I = 52 */
(PID.TID 0000.0001)                 2.899523122489403E+05,      /* I = 53 */
(PID.TID 0000.0001)                 2.842706922224557E+05,      /* I = 54 */
(PID.TID 0000.0001)                 2.773972106720365E+05,      /* I = 55 */
(PID.TID 0000.0001)                 2.692787333338535E+05,      /* I = 56 */
(PID.TID 0000.0001)                 2.598293319150326E+05,      /* I = 57 */
(PID.TID 0000.0001)                 2.489113743322025E+05,      /* I = 58 */
(PID.TID 0000.0001)                 2.363029564123586E+05,      /* I = 59 */
(PID.TID 0000.0001)                 2.216367828252819E+05,      /* I = 60 */
(PID.TID 0000.0001)                 2.042717761866506E+05,      /* I = 61 */
(PID.TID 0000.0001)                 1.829777599966776E+05,      /* I = 62 */
(PID.TID 0000.0001)                 1.549545757850771E+05,      /* I = 63 */
(PID.TID 0000.0001)     2 @  1.114203141013064E+05,             /* I = 64: 65 */
(PID.TID 0000.0001)                 1.549545757850771E+05,      /* I = 66 */
(PID.TID 0000.0001)                 1.829777599966776E+05,      /* I = 67 */
(PID.TID 0000.0001)                 2.042717761866506E+05,      /* I = 68 */
(PID.TID 0000.0001)                 2.216367828252819E+05,      /* I = 69 */
(PID.TID 0000.0001)                 2.363029564123586E+05,      /* I = 70 */
(PID.TID 0000.0001)                 2.489113743322025E+05,      /* I = 71 */
(PID.TID 0000.0001)                 2.598293319150326E+05,      /* I = 72 */
(PID.TID 0000.0001)                 2.692787333338535E+05,      /* I = 73 */
(PID.TID 0000.0001)                 2.773972106720365E+05,      /* I = 74 */
(PID.TID 0000.0001)                 2.842706922224557E+05,      /* I = 75 */
(PID.TID 0000.0001)                 2.899523122489403E+05,      /* I = 76 */
(PID.TID 0000.0001)                 2.944741346384699E+05,      /* I = 77 */
(PID.TID 0000.0001)                 2.978547649292580E+05,      /* I = 78 */
(PID.TID 0000.0001)                 3.001044073506459E+05,      /* I = 79 */
(PID.TID 0000.0001)     2 @  3.012281885409289E+05,             /* I = 80: 81 */
(PID.TID 0000.0001)                 3.001044073506459E+05,      /* I = 82 */
(PID.TID 0000.0001)                 2.978547649292580E+05,      /* I = 83 */
(PID.TID 0000.0001)                 2.944741346384699E+05,      /* I = 84 */
(PID.TID 0000.0001)                 2.899523122489403E+05,      /* I = 85 */
(PID.TID 0000.0001)                 2.842706922224557E+05,      /* I = 86 */
(PID.TID 0000.0001)                 2.773972106720365E+05,      /* I = 87 */
(PID.TID 0000.0001)                 2.692787333338535E+05,      /* I = 88 */
(PID.TID 0000.0001)                 2.598293319150326E+05,      /* I = 89 */
(PID.TID 0000.0001)                 2.489113743322025E+05,      /* I = 90 */
(PID.TID 0000.0001)                 2.363029564123586E+05,      /* I = 91 */
(PID.TID 0000.0001)                 2.216367828252819E+05,      /* I = 92 */
(PID.TID 0000.0001)                 2.042717761866506E+05,      /* I = 93 */
(PID.TID 0000.0001)                 1.829777599966776E+05,      /* I = 94 */
(PID.TID 0000.0001)                 1.549545757850771E+05,      /* I = 95 */
(PID.TID 0000.0001)     2 @  1.114203141013064E+05,             /* I = 96: 97 */
(PID.TID 0000.0001)                 1.549545757850771E+05,      /* I = 98 */
(PID.TID 0000.0001)                 1.829777599966776E+05,      /* I = 99 */
(PID.TID 0000.0001)                 2.042717761866506E+05,      /* I =100 */
(PID.TID 0000.0001)                 2.216367828252819E+05,      /* I =101 */
(PID.TID 0000.0001)                 2.363029564123586E+05,      /* I =102 */
(PID.TID 0000.0001)                 2.489113743322025E+05,      /* I =103 */
(PID.TID 0000.0001)                 2.598293319150326E+05,      /* I =104 */
(PID.TID 0000.0001)                 2.692787333338535E+05,      /* I =105 */
(PID.TID 0000.0001)                 2.773972106720365E+05,      /* I =106 */
(PID.TID 0000.0001)                 2.842706922224557E+05,      /* I =107 */
(PID.TID 0000.0001)                 2.899523122489403E+05,      /* I =108 */
(PID.TID 0000.0001)                 2.944741346384699E+05,      /* I =109 */
(PID.TID 0000.0001)                 2.978547649292580E+05,      /* I =110 */
(PID.TID 0000.0001)                 3.001044073506459E+05,      /* I =111 */
(PID.TID 0000.0001)     2 @  3.012281885409289E+05,             /* I =112:113 */
(PID.TID 0000.0001)                 3.001044073506459E+05,      /* I =114 */
(PID.TID 0000.0001)                 2.978547649292580E+05,      /* I =115 */
(PID.TID 0000.0001)                 2.944741346384699E+05,      /* I =116 */
(PID.TID 0000.0001)                 2.899523122489403E+05,      /* I =117 */
(PID.TID 0000.0001)                 2.842706922224557E+05,      /* I =118 */
(PID.TID 0000.0001)                 2.773972106720365E+05,      /* I =119 */
(PID.TID 0000.0001)                 2.692787333338535E+05,      /* I =120 */
(PID.TID 0000.0001)                 2.598293319150326E+05,      /* I =121 */
(PID.TID 0000.0001)                 2.489113743322025E+05,      /* I =122 */
(PID.TID 0000.0001)                 2.363029564123586E+05,      /* I =123 */
(PID.TID 0000.0001)                 2.216367828252819E+05,      /* I =124 */
(PID.TID 0000.0001)                 2.042717761866506E+05,      /* I =125 */
(PID.TID 0000.0001)                 1.829777599966776E+05,      /* I =126 */
(PID.TID 0000.0001)                 1.549545757850771E+05,      /* I =127 */
(PID.TID 0000.0001)     2 @  1.114203141013064E+05,             /* I =128:129 */
(PID.TID 0000.0001)                 1.549545757850771E+05,      /* I =130 */
(PID.TID 0000.0001)                 1.829777599966776E+05,      /* I =131 */
(PID.TID 0000.0001)                 2.042717761866506E+05,      /* I =132 */
(PID.TID 0000.0001)                 2.216367828252819E+05,      /* I =133 */
(PID.TID 0000.0001)                 2.363029564123586E+05,      /* I =134 */
(PID.TID 0000.0001)                 2.489113743322025E+05,      /* I =135 */
(PID.TID 0000.0001)                 2.598293319150326E+05,      /* I =136 */
(PID.TID 0000.0001)                 2.692787333338535E+05,      /* I =137 */
(PID.TID 0000.0001)                 2.773972106720365E+05,      /* I =138 */
(PID.TID 0000.0001)                 2.842706922224557E+05,      /* I =139 */
(PID.TID 0000.0001)                 2.899523122489403E+05,      /* I =140 */
(PID.TID 0000.0001)                 2.944741346384699E+05,      /* I =141 */
(PID.TID 0000.0001)                 2.978547649292580E+05,      /* I =142 */
(PID.TID 0000.0001)                 3.001044073506459E+05,      /* I =143 */
(PID.TID 0000.0001)     2 @  3.012281885409289E+05,             /* I =144:145 */
(PID.TID 0000.0001)                 3.001044073506459E+05,      /* I =146 */
(PID.TID 0000.0001)                 2.978547649292580E+05,      /* I =147 */
(PID.TID 0000.0001)                 2.944741346384699E+05,      /* I =148 */
(PID.TID 0000.0001)                 2.899523122489403E+05,      /* I =149 */
(PID.TID 0000.0001)                 2.842706922224557E+05,      /* I =150 */
(PID.TID 0000.0001)                 2.773972106720365E+05,      /* I =151 */
(PID.TID 0000.0001)                 2.692787333338535E+05,      /* I =152 */
(PID.TID 0000.0001)                 2.598293319150326E+05,      /* I =153 */
(PID.TID 0000.0001)                 2.489113743322025E+05,      /* I =154 */
(PID.TID 0000.0001)                 2.363029564123586E+05,      /* I =155 */
(PID.TID 0000.0001)                 2.216367828252819E+05,      /* I =156 */
(PID.TID 0000.0001)                 2.042717761866506E+05,      /* I =157 */
(PID.TID 0000.0001)                 1.829777599966776E+05,      /* I =158 */
(PID.TID 0000.0001)                 1.549545757850771E+05,      /* I =159 */
(PID.TID 0000.0001)     2 @  1.114203141013064E+05,             /* I =160:161 */
(PID.TID 0000.0001)                 1.549545757850771E+05,      /* I =162 */
(PID.TID 0000.0001)                 1.829777599966776E+05,      /* I =163 */
(PID.TID 0000.0001)                 2.042717761866506E+05,      /* I =164 */
(PID.TID 0000.0001)                 2.216367828252819E+05,      /* I =165 */
(PID.TID 0000.0001)                 2.363029564123586E+05,      /* I =166 */
(PID.TID 0000.0001)                 2.489113743322025E+05,      /* I =167 */
(PID.TID 0000.0001)                 2.598293319150326E+05,      /* I =168 */
(PID.TID 0000.0001)                 2.692787333338535E+05,      /* I =169 */
(PID.TID 0000.0001)                 2.773972106720365E+05,      /* I =170 */
(PID.TID 0000.0001)                 2.842706922224557E+05,      /* I =171 */
(PID.TID 0000.0001)                 2.899523122489403E+05,      /* I =172 */
(PID.TID 0000.0001)                 2.944741346384699E+05,      /* I =173 */
(PID.TID 0000.0001)                 2.978547649292580E+05,      /* I =174 */
(PID.TID 0000.0001)                 3.001044073506459E+05,      /* I =175 */
(PID.TID 0000.0001)     2 @  3.012281885409289E+05,             /* I =176:177 */
(PID.TID 0000.0001)                 3.001044073506459E+05,      /* I =178 */
(PID.TID 0000.0001)                 2.978547649292580E+05,      /* I =179 */
(PID.TID 0000.0001)                 2.944741346384699E+05,      /* I =180 */
(PID.TID 0000.0001)                 2.899523122489403E+05,      /* I =181 */
(PID.TID 0000.0001)                 2.842706922224557E+05,      /* I =182 */
(PID.TID 0000.0001)                 2.773972106720365E+05,      /* I =183 */
(PID.TID 0000.0001)                 2.692787333338535E+05,      /* I =184 */
(PID.TID 0000.0001)                 2.598293319150326E+05,      /* I =185 */
(PID.TID 0000.0001)                 2.489113743322025E+05,      /* I =186 */
(PID.TID 0000.0001)                 2.363029564123586E+05,      /* I =187 */
(PID.TID 0000.0001)                 2.216367828252819E+05,      /* I =188 */
(PID.TID 0000.0001)                 2.042717761866506E+05,      /* I =189 */
(PID.TID 0000.0001)                 1.829777599966776E+05,      /* I =190 */
(PID.TID 0000.0001)                 1.549545757850771E+05,      /* I =191 */
(PID.TID 0000.0001)                 1.114203141013064E+05       /* I =192 */
(PID.TID 0000.0001)     ;
(PID.TID 0000.0001) dyC =  /* dyC(1,:,1,:) ( units: m ) */
(PID.TID 0000.0001)                 1.114203141013064E+05,      /* J =  1 */
(PID.TID 0000.0001)                 1.391343389937106E+05,      /* J =  2 */
(PID.TID 0000.0001)                 1.709574999026266E+05,      /* J =  3 */
(PID.TID 0000.0001)                 1.946503699269892E+05,      /* J =  4 */
(PID.TID 0000.0001)                 2.135964483342134E+05,      /* J =  5 */
(PID.TID 0000.0001)                 2.294195678257306E+05,      /* J =  6 */
(PID.TID 0000.0001)                 2.429464709770498E+05,      /* J =  7 */
(PID.TID 0000.0001)                 2.546408290696998E+05,      /* J =  8 */
(PID.TID 0000.0001)                 2.647791839299727E+05,      /* J =  9 */
(PID.TID 0000.0001)                 2.735321911346108E+05,      /* J = 10 */
(PID.TID 0000.0001)                 2.810065951609633E+05,      /* J = 11 */
(PID.TID 0000.0001)                 2.872689479506990E+05,      /* J = 12 */
(PID.TID 0000.0001)                 2.923599955312932E+05,      /* J = 13 */
(PID.TID 0000.0001)                 2.963038832565530E+05,      /* J = 14 */
(PID.TID 0000.0001)                 2.991142470004740E+05,      /* J = 15 */
(PID.TID 0000.0001)                 3.007982711627968E+05,      /* J = 16 */
(PID.TID 0000.0001)                 3.013593857228136E+05,      /* J = 17 */
(PID.TID 0000.0001)                 3.007982711627968E+05,      /* J = 18 */
(PID.TID 0000.0001)                 2.991142470004740E+05,      /* J = 19 */
(PID.TID 0000.0001)                 2.963038832565530E+05,      /* J = 20 */
(PID.TID 0000.0001)                 2.923599955312932E+05,      /* J = 21 */
(PID.TID 0000.0001)                 2.872689479506990E+05,      /* J = 22 */
(PID.TID 0000.0001)                 2.810065951609633E+05,      /* J = 23 */
(PID.TID 0000.0001)                 2.735321911346108E+05,      /* J = 24 */
(PID.TID 0000.0001)                 2.647791839299727E+05,      /* J = 25 */
(PID.TID 0000.0001)                 2.546408290696998E+05,      /* J = 26 */
(PID.TID 0000.0001)                 2.429464709770498E+05,      /* J = 27 */
(PID.TID 0000.0001)                 2.294195678257306E+05,      /* J = 28 */
(PID.TID 0000.0001)                 2.135964483342134E+05,      /* J = 29 */
(PID.TID 0000.0001)                 1.946503699269892E+05,      /* J = 30 */
(PID.TID 0000.0001)                 1.709574999026266E+05,      /* J = 31 */
(PID.TID 0000.0001)                 1.391343389937106E+05       /* J = 32 */
(PID.TID 0000.0001)     ;
(PID.TID 0000.0001) dxV =  /* dxV(:,1,:,1) ( units: m ) */
(PID.TID 0000.0001)                 8.015229982413632E+04,      /* I =  1 */
(PID.TID 0000.0001)                 1.333130744933864E+05,      /* I =  2 */
(PID.TID 0000.0001)                 1.691744868129062E+05,      /* I =  3 */
(PID.TID 0000.0001)                 1.937548202849060E+05,      /* I =  4 */
(PID.TID 0000.0001)                 2.130490056267208E+05,      /* I =  5 */
(PID.TID 0000.0001)                 2.290479919481738E+05,      /* I =  6 */
(PID.TID 0000.0001)                 2.426774358027003E+05,      /* I =  7 */
(PID.TID 0000.0001)                 2.544372984215561E+05,      /* I =  8 */
(PID.TID 0000.0001)                 2.646201463834826E+05,      /* I =  9 */
(PID.TID 0000.0001)                 2.734046499619031E+05,      /* I = 10 */
(PID.TID 0000.0001)                 2.809019351693761E+05,      /* I = 11 */
(PID.TID 0000.0001)                 2.871811105274442E+05,      /* I = 12 */
(PID.TID 0000.0001)                 2.922844849381675E+05,      /* I = 13 */
(PID.TID 0000.0001)                 2.962371870847826E+05,      /* I = 14 */
(PID.TID 0000.0001)                 2.990534755671296E+05,      /* I = 15 */
(PID.TID 0000.0001)                 3.007409169495504E+05,      /* I = 16 */
(PID.TID 0000.0001)                 3.013031486919771E+05,      /* I = 17 */
(PID.TID 0000.0001)                 3.007409169495504E+05,      /* I = 18 */
(PID.TID 0000.0001)                 2.990534755671296E+05,      /* I = 19 */
(PID.TID 0000.0001)                 2.962371870847826E+05,      /* I = 20 */
(PID.TID 0000.0001)                 2.922844849381675E+05,      /* I = 21 */
(PID.TID 0000.0001)                 2.871811105274442E+05,      /* I = 22 */
(PID.TID 0000.0001)                 2.809019351693761E+05,      /* I = 23 */
(PID.TID 0000.0001)                 2.734046499619031E+05,      /* I = 24 */
(PID.TID 0000.0001)                 2.646201463834826E+05,      /* I = 25 */
(PID.TID 0000.0001)                 2.544372984215561E+05,      /* I = 26 */
(PID.TID 0000.0001)                 2.426774358027003E+05,      /* I = 27 */
(PID.TID 0000.0001)                 2.290479919481738E+05,      /* I = 28 */
(PID.TID 0000.0001)                 2.130490056267208E+05,      /* I = 29 */
(PID.TID 0000.0001)                 1.937548202849060E+05,      /* I = 30 */
(PID.TID 0000.0001)                 1.691744868129062E+05,      /* I = 31 */
(PID.TID 0000.0001)                 1.333130744933864E+05,      /* I = 32 */
(PID.TID 0000.0001)                 8.015229982413632E+04,      /* I = 33 */
(PID.TID 0000.0001)                 1.333130744933864E+05,      /* I = 34 */
(PID.TID 0000.0001)                 1.691744868129062E+05,      /* I = 35 */
(PID.TID 0000.0001)                 1.937548202849060E+05,      /* I = 36 */
(PID.TID 0000.0001)                 2.130490056267208E+05,      /* I = 37 */
(PID.TID 0000.0001)                 2.290479919481738E+05,      /* I = 38 */
(PID.TID 0000.0001)                 2.426774358027003E+05,      /* I = 39 */
(PID.TID 0000.0001)                 2.544372984215561E+05,      /* I = 40 */
(PID.TID 0000.0001)                 2.646201463834826E+05,      /* I = 41 */
(PID.TID 0000.0001)                 2.734046499619031E+05,      /* I = 42 */
(PID.TID 0000.0001)                 2.809019351693761E+05,      /* I = 43 */
(PID.TID 0000.0001)                 2.871811105274442E+05,      /* I = 44 */
(PID.TID 0000.0001)                 2.922844849381675E+05,      /* I = 45 */
(PID.TID 0000.0001)                 2.962371870847826E+05,      /* I = 46 */
(PID.TID 0000.0001)                 2.990534755671296E+05,      /* I = 47 */
(PID.TID 0000.0001)                 3.007409169495504E+05,      /* I = 48 */
(PID.TID 0000.0001)                 3.013031486919771E+05,      /* I = 49 */
(PID.TID 0000.0001)                 3.007409169495504E+05,      /* I = 50 */
(PID.TID 0000.0001)                 2.990534755671296E+05,      /* I = 51 */
(PID.TID 0000.0001)                 2.962371870847826E+05,      /* I = 52 */
(PID.TID 0000.0001)                 2.922844849381675E+05,      /* I = 53 */
(PID.TID 0000.0001)                 2.871811105274442E+05,      /* I = 54 */
(PID.TID 0000.0001)                 2.809019351693761E+05,      /* I = 55 */
(PID.TID 0000.0001)                 2.734046499619031E+05,      /* I = 56 */
(PID.TID 0000.0001)                 2.646201463834826E+05,      /* I = 57 */
(PID.TID 0000.0001)                 2.544372984215561E+05,      /* I = 58 */
(PID.TID 0000.0001)                 2.426774358027003E+05,      /* I = 59 */
(PID.TID 0000.0001)                 2.290479919481738E+05,      /* I = 60 */
(PID.TID 0000.0001)                 2.130490056267208E+05,      /* I = 61 */
(PID.TID 0000.0001)                 1.937548202849060E+05,      /* I = 62 */
(PID.TID 0000.0001)                 1.691744868129062E+05,      /* I = 63 */
(PID.TID 0000.0001)                 1.333130744933864E+05,      /* I = 64 */
(PID.TID 0000.0001)                 8.015229982413632E+04,      /* I = 65 */
(PID.TID 0000.0001)                 1.333130744933864E+05,      /* I = 66 */
(PID.TID 0000.0001)                 1.691744868129062E+05,      /* I = 67 */
(PID.TID 0000.0001)                 1.937548202849060E+05,      /* I = 68 */
(PID.TID 0000.0001)                 2.130490056267208E+05,      /* I = 69 */
(PID.TID 0000.0001)                 2.290479919481738E+05,      /* I = 70 */
(PID.TID 0000.0001)                 2.426774358027003E+05,      /* I = 71 */
(PID.TID 0000.0001)                 2.544372984215561E+05,      /* I = 72 */
(PID.TID 0000.0001)                 2.646201463834826E+05,      /* I = 73 */
(PID.TID 0000.0001)                 2.734046499619031E+05,      /* I = 74 */
(PID.TID 0000.0001)                 2.809019351693761E+05,      /* I = 75 */
(PID.TID 0000.0001)                 2.871811105274442E+05,      /* I = 76 */
(PID.TID 0000.0001)                 2.922844849381675E+05,      /* I = 77 */
(PID.TID 0000.0001)                 2.962371870847826E+05,      /* I = 78 */
(PID.TID 0000.0001)                 2.990534755671296E+05,      /* I = 79 */
(PID.TID 0000.0001)                 3.007409169495504E+05,      /* I = 80 */
(PID.TID 0000.0001)                 3.013031486919771E+05,      /* I = 81 */
(PID.TID 0000.0001)                 3.007409169495504E+05,      /* I = 82 */
(PID.TID 0000.0001)                 2.990534755671296E+05,      /* I = 83 */
(PID.TID 0000.0001)                 2.962371870847826E+05,      /* I = 84 */
(PID.TID 0000.0001)                 2.922844849381675E+05,      /* I = 85 */
(PID.TID 0000.0001)                 2.871811105274442E+05,      /* I = 86 */
(PID.TID 0000.0001)                 2.809019351693761E+05,      /* I = 87 */
(PID.TID 0000.0001)                 2.734046499619031E+05,      /* I = 88 */
(PID.TID 0000.0001)                 2.646201463834826E+05,      /* I = 89 */
(PID.TID 0000.0001)                 2.544372984215561E+05,      /* I = 90 */
(PID.TID 0000.0001)                 2.426774358027003E+05,      /* I = 91 */
(PID.TID 0000.0001)                 2.290479919481738E+05,      /* I = 92 */
(PID.TID 0000.0001)                 2.130490056267208E+05,      /* I = 93 */
(PID.TID 0000.0001)                 1.937548202849060E+05,      /* I = 94 */
(PID.TID 0000.0001)                 1.691744868129062E+05,      /* I = 95 */
(PID.TID 0000.0001)                 1.333130744933864E+05,      /* I = 96 */
(PID.TID 0000.0001)                 8.015229982413632E+04,      /* I = 97 */
(PID.TID 0000.0001)                 1.333130744933864E+05,      /* I = 98 */
(PID.TID 0000.0001)                 1.691744868129062E+05,      /* I = 99 */
(PID.TID 0000.0001)                 1.937548202849060E+05,      /* I =100 */
(PID.TID 0000.0001)                 2.130490056267208E+05,      /* I =101 */
(PID.TID 0000.0001)                 2.290479919481738E+05,      /* I =102 */
(PID.TID 0000.0001)                 2.426774358027003E+05,      /* I =103 */
(PID.TID 0000.0001)                 2.544372984215561E+05,      /* I =104 */
(PID.TID 0000.0001)                 2.646201463834826E+05,      /* I =105 */
(PID.TID 0000.0001)                 2.734046499619031E+05,      /* I =106 */
(PID.TID 0000.0001)                 2.809019351693761E+05,      /* I =107 */
(PID.TID 0000.0001)                 2.871811105274442E+05,      /* I =108 */
(PID.TID 0000.0001)                 2.922844849381675E+05,      /* I =109 */
(PID.TID 0000.0001)                 2.962371870847826E+05,      /* I =110 */
(PID.TID 0000.0001)                 2.990534755671296E+05,      /* I =111 */
(PID.TID 0000.0001)                 3.007409169495504E+05,      /* I =112 */
(PID.TID 0000.0001)                 3.013031486919771E+05,      /* I =113 */
(PID.TID 0000.0001)                 3.007409169495504E+05,      /* I =114 */
(PID.TID 0000.0001)                 2.990534755671296E+05,      /* I =115 */
(PID.TID 0000.0001)                 2.962371870847826E+05,      /* I =116 */
(PID.TID 0000.0001)                 2.922844849381675E+05,      /* I =117 */
(PID.TID 0000.0001)                 2.871811105274442E+05,      /* I =118 */
(PID.TID 0000.0001)                 2.809019351693761E+05,      /* I =119 */
(PID.TID 0000.0001)                 2.734046499619031E+05,      /* I =120 */
(PID.TID 0000.0001)                 2.646201463834826E+05,      /* I =121 */
(PID.TID 0000.0001)                 2.544372984215561E+05,      /* I =122 */
(PID.TID 0000.0001)                 2.426774358027003E+05,      /* I =123 */
(PID.TID 0000.0001)                 2.290479919481738E+05,      /* I =124 */
(PID.TID 0000.0001)                 2.130490056267208E+05,      /* I =125 */
(PID.TID 0000.0001)                 1.937548202849060E+05,      /* I =126 */
(PID.TID 0000.0001)                 1.691744868129062E+05,      /* I =127 */
(PID.TID 0000.0001)                 1.333130744933864E+05,      /* I =128 */
(PID.TID 0000.0001)                 8.015229982413632E+04,      /* I =129 */
(PID.TID 0000.0001)                 1.333130744933864E+05,      /* I =130 */
(PID.TID 0000.0001)                 1.691744868129062E+05,      /* I =131 */
(PID.TID 0000.0001)                 1.937548202849060E+05,      /* I =132 */
(PID.TID 0000.0001)                 2.130490056267208E+05,      /* I =133 */
(PID.TID 0000.0001)                 2.290479919481738E+05,      /* I =134 */
(PID.TID 0000.0001)                 2.426774358027003E+05,      /* I =135 */
(PID.TID 0000.0001)                 2.544372984215561E+05,      /* I =136 */
(PID.TID 0000.0001)                 2.646201463834826E+05,      /* I =137 */
(PID.TID 0000.0001)                 2.734046499619031E+05,      /* I =138 */
(PID.TID 0000.0001)                 2.809019351693761E+05,      /* I =139 */
(PID.TID 0000.0001)                 2.871811105274442E+05,      /* I =140 */
(PID.TID 0000.0001)                 2.922844849381675E+05,      /* I =141 */
(PID.TID 0000.0001)                 2.962371870847826E+05,      /* I =142 */
(PID.TID 0000.0001)                 2.990534755671296E+05,      /* I =143 */
(PID.TID 0000.0001)                 3.007409169495504E+05,      /* I =144 */
(PID.TID 0000.0001)                 3.013031486919771E+05,      /* I =145 */
(PID.TID 0000.0001)                 3.007409169495504E+05,      /* I =146 */
(PID.TID 0000.0001)                 2.990534755671296E+05,      /* I =147 */
(PID.TID 0000.0001)                 2.962371870847826E+05,      /* I =148 */
(PID.TID 0000.0001)                 2.922844849381675E+05,      /* I =149 */
(PID.TID 0000.0001)                 2.871811105274442E+05,      /* I =150 */
(PID.TID 0000.0001)                 2.809019351693761E+05,      /* I =151 */
(PID.TID 0000.0001)                 2.734046499619031E+05,      /* I =152 */
(PID.TID 0000.0001)                 2.646201463834826E+05,      /* I =153 */
(PID.TID 0000.0001)                 2.544372984215561E+05,      /* I =154 */
(PID.TID 0000.0001)                 2.426774358027003E+05,      /* I =155 */
(PID.TID 0000.0001)                 2.290479919481738E+05,      /* I =156 */
(PID.TID 0000.0001)                 2.130490056267208E+05,      /* I =157 */
(PID.TID 0000.0001)                 1.937548202849060E+05,      /* I =158 */
(PID.TID 0000.0001)                 1.691744868129062E+05,      /* I =159 */
(PID.TID 0000.0001)                 1.333130744933864E+05,      /* I =160 */
(PID.TID 0000.0001)                 8.015229982413632E+04,      /* I =161 */
(PID.TID 0000.0001)                 1.333130744933864E+05,      /* I =162 */
(PID.TID 0000.0001)                 1.691744868129062E+05,      /* I =163 */
(PID.TID 0000.0001)                 1.937548202849060E+05,      /* I =164 */
(PID.TID 0000.0001)                 2.130490056267208E+05,      /* I =165 */
(PID.TID 0000.0001)                 2.290479919481738E+05,      /* I =166 */
(PID.TID 0000.0001)                 2.426774358027003E+05,      /* I =167 */
(PID.TID 0000.0001)                 2.544372984215561E+05,      /* I =168 */
(PID.TID 0000.0001)                 2.646201463834826E+05,      /* I =169 */
(PID.TID 0000.0001)                 2.734046499619031E+05,      /* I =170 */
(PID.TID 0000.0001)                 2.809019351693761E+05,      /* I =171 */
(PID.TID 0000.0001)                 2.871811105274442E+05,      /* I =172 */
(PID.TID 0000.0001)                 2.922844849381675E+05,      /* I =173 */
(PID.TID 0000.0001)                 2.962371870847826E+05,      /* I =174 */
(PID.TID 0000.0001)                 2.990534755671296E+05,      /* I =175 */
(PID.TID 0000.0001)                 3.007409169495504E+05,      /* I =176 */
(PID.TID 0000.0001)                 3.013031486919771E+05,      /* I =177 */
(PID.TID 0000.0001)                 3.007409169495504E+05,      /* I =178 */
(PID.TID 0000.0001)                 2.990534755671296E+05,      /* I =179 */
(PID.TID 0000.0001)                 2.962371870847826E+05,      /* I =180 */
(PID.TID 0000.0001)                 2.922844849381675E+05,      /* I =181 */
(PID.TID 0000.0001)                 2.871811105274442E+05,      /* I =182 */
(PID.TID 0000.0001)                 2.809019351693761E+05,      /* I =183 */
(PID.TID 0000.0001)                 2.734046499619031E+05,      /* I =184 */
(PID.TID 0000.0001)                 2.646201463834826E+05,      /* I =185 */
(PID.TID 0000.0001)                 2.544372984215561E+05,      /* I =186 */
(PID.TID 0000.0001)                 2.426774358027003E+05,      /* I =187 */
(PID.TID 0000.0001)                 2.290479919481738E+05,      /* I =188 */
(PID.TID 0000.0001)                 2.130490056267208E+05,      /* I =189 */
(PID.TID 0000.0001)                 1.937548202849060E+05,      /* I =190 */
(PID.TID 0000.0001)                 1.691744868129062E+05,      /* I =191 */
(PID.TID 0000.0001)                 1.333130744933864E+05       /* I =192 */
(PID.TID 0000.0001)     ;
(PID.TID 0000.0001) dxV =  /* dxV(1,:,1,:) ( units: m ) */
(PID.TID 0000.0001)                 8.015229982413632E+04,      /* J =  1 */
(PID.TID 0000.0001)                 1.362652340208229E+05,      /* J =  2 */
(PID.TID 0000.0001)                 1.701080315742101E+05,      /* J =  3 */
(PID.TID 0000.0001)                 1.942331448101592E+05,      /* J =  4 */
(PID.TID 0000.0001)                 2.133486626971531E+05,      /* J =  5 */
(PID.TID 0000.0001)                 2.292584591272880E+05,      /* J =  6 */
(PID.TID 0000.0001)                 2.428369969078989E+05,      /* J =  7 */
(PID.TID 0000.0001)                 2.545652950875683E+05,      /* J =  8 */
(PID.TID 0000.0001)                 2.647274964828301E+05,      /* J =  9 */
(PID.TID 0000.0001)                 2.734980225206389E+05,      /* J = 10 */
(PID.TID 0000.0001)                 2.809856491525217E+05,      /* J = 11 */
(PID.TID 0000.0001)                 2.872580915202295E+05,      /* J = 12 */
(PID.TID 0000.0001)                 2.923567890694162E+05,      /* J = 13 */
(PID.TID 0000.0001)                 2.963063101754721E+05,      /* J = 14 */
(PID.TID 0000.0001)                 2.991205495886625E+05,      /* J = 15 */
(PID.TID 0000.0001)                 3.008068453676764E+05,      /* J = 16 */
(PID.TID 0000.0001)                 3.013686170436881E+05,      /* J = 17 */
(PID.TID 0000.0001)                 3.008068453676764E+05,      /* J = 18 */
(PID.TID 0000.0001)                 2.991205495886625E+05,      /* J = 19 */
(PID.TID 0000.0001)                 2.963063101754721E+05,      /* J = 20 */
(PID.TID 0000.0001)                 2.923567890694162E+05,      /* J = 21 */
(PID.TID 0000.0001)                 2.872580915202295E+05,      /* J = 22 */
(PID.TID 0000.0001)                 2.809856491525217E+05,      /* J = 23 */
(PID.TID 0000.0001)                 2.734980225206389E+05,      /* J = 24 */
(PID.TID 0000.0001)                 2.647274964828301E+05,      /* J = 25 */
(PID.TID 0000.0001)                 2.545652950875683E+05,      /* J = 26 */
(PID.TID 0000.0001)                 2.428369969078989E+05,      /* J = 27 */
(PID.TID 0000.0001)                 2.292584591272880E+05,      /* J = 28 */
(PID.TID 0000.0001)                 2.133486626971531E+05,      /* J = 29 */
(PID.TID 0000.0001)                 1.942331448101592E+05,      /* J = 30 */
(PID.TID 0000.0001)                 1.701080315742101E+05,      /* J = 31 */
(PID.TID 0000.0001)                 1.362652340208229E+05       /* J = 32 */
(PID.TID 0000.0001)     ;
(PID.TID 0000.0001) dyU =  /* dyU(:,1,:,1) ( units: m ) */
(PID.TID 0000.0001)                 8.015229982413632E+04,      /* I =  1 */
(PID.TID 0000.0001)                 1.362652340208229E+05,      /* I =  2 */
(PID.TID 0000.0001)                 1.701080315742101E+05,      /* I =  3 */
(PID.TID 0000.0001)                 1.942331448101592E+05,      /* I =  4 */
(PID.TID 0000.0001)                 2.133486626971531E+05,      /* I =  5 */
(PID.TID 0000.0001)                 2.292584591272880E+05,      /* I =  6 */
(PID.TID 0000.0001)                 2.428369969078989E+05,      /* I =  7 */
(PID.TID 0000.0001)                 2.545652950875683E+05,      /* I =  8 */
(PID.TID 0000.0001)                 2.647274964828301E+05,      /* I =  9 */
(PID.TID 0000.0001)                 2.734980225206389E+05,      /* I = 10 */
(PID.TID 0000.0001)                 2.809856491525217E+05,      /* I = 11 */
(PID.TID 0000.0001)                 2.872580915202295E+05,      /* I = 12 */
(PID.TID 0000.0001)                 2.923567890694162E+05,      /* I = 13 */
(PID.TID 0000.0001)                 2.963063101754721E+05,      /* I = 14 */
(PID.TID 0000.0001)                 2.991205495886625E+05,      /* I = 15 */
(PID.TID 0000.0001)                 3.008068453676764E+05,      /* I = 16 */
(PID.TID 0000.0001)                 3.013686170436881E+05,      /* I = 17 */
(PID.TID 0000.0001)                 3.008068453676764E+05,      /* I = 18 */
(PID.TID 0000.0001)                 2.991205495886625E+05,      /* I = 19 */
(PID.TID 0000.0001)                 2.963063101754721E+05,      /* I = 20 */
(PID.TID 0000.0001)                 2.923567890694162E+05,      /* I = 21 */
(PID.TID 0000.0001)                 2.872580915202295E+05,      /* I = 22 */
(PID.TID 0000.0001)                 2.809856491525217E+05,      /* I = 23 */
(PID.TID 0000.0001)                 2.734980225206389E+05,      /* I = 24 */
(PID.TID 0000.0001)                 2.647274964828301E+05,      /* I = 25 */
(PID.TID 0000.0001)                 2.545652950875683E+05,      /* I = 26 */
(PID.TID 0000.0001)                 2.428369969078989E+05,      /* I = 27 */
(PID.TID 0000.0001)                 2.292584591272880E+05,      /* I = 28 */
(PID.TID 0000.0001)                 2.133486626971531E+05,      /* I = 29 */
(PID.TID 0000.0001)                 1.942331448101592E+05,      /* I = 30 */
(PID.TID 0000.0001)                 1.701080315742101E+05,      /* I = 31 */
(PID.TID 0000.0001)                 1.362652340208229E+05,      /* I = 32 */
(PID.TID 0000.0001)                 8.015229982413632E+04,      /* I = 33 */
(PID.TID 0000.0001)                 1.362652340208229E+05,      /* I = 34 */
(PID.TID 0000.0001)                 1.701080315742101E+05,      /* I = 35 */
(PID.TID 0000.0001)                 1.942331448101592E+05,      /* I = 36 */
(PID.TID 0000.0001)                 2.133486626971531E+05,      /* I = 37 */
(PID.TID 0000.0001)                 2.292584591272880E+05,      /* I = 38 */
(PID.TID 0000.0001)                 2.428369969078989E+05,      /* I = 39 */
(PID.TID 0000.0001)                 2.545652950875683E+05,      /* I = 40 */
(PID.TID 0000.0001)                 2.647274964828301E+05,      /* I = 41 */
(PID.TID 0000.0001)                 2.734980225206389E+05,      /* I = 42 */
(PID.TID 0000.0001)                 2.809856491525217E+05,      /* I = 43 */
(PID.TID 0000.0001)                 2.872580915202295E+05,      /* I = 44 */
(PID.TID 0000.0001)                 2.923567890694162E+05,      /* I = 45 */
(PID.TID 0000.0001)                 2.963063101754721E+05,      /* I = 46 */
(PID.TID 0000.0001)                 2.991205495886625E+05,      /* I = 47 */
(PID.TID 0000.0001)                 3.008068453676764E+05,      /* I = 48 */
(PID.TID 0000.0001)                 3.013686170436881E+05,      /* I = 49 */
(PID.TID 0000.0001)                 3.008068453676764E+05,      /* I = 50 */
(PID.TID 0000.0001)                 2.991205495886625E+05,      /* I = 51 */
(PID.TID 0000.0001)                 2.963063101754721E+05,      /* I = 52 */
(PID.TID 0000.0001)                 2.923567890694162E+05,      /* I = 53 */
(PID.TID 0000.0001)                 2.872580915202295E+05,      /* I = 54 */
(PID.TID 0000.0001)                 2.809856491525217E+05,      /* I = 55 */
(PID.TID 0000.0001)                 2.734980225206389E+05,      /* I = 56 */
(PID.TID 0000.0001)                 2.647274964828301E+05,      /* I = 57 */
(PID.TID 0000.0001)                 2.545652950875683E+05,      /* I = 58 */
(PID.TID 0000.0001)                 2.428369969078989E+05,      /* I = 59 */
(PID.TID 0000.0001)                 2.292584591272880E+05,      /* I = 60 */
(PID.TID 0000.0001)                 2.133486626971531E+05,      /* I = 61 */
(PID.TID 0000.0001)                 1.942331448101592E+05,      /* I = 62 */
(PID.TID 0000.0001)                 1.701080315742101E+05,      /* I = 63 */
(PID.TID 0000.0001)                 1.362652340208229E+05,      /* I = 64 */
(PID.TID 0000.0001)                 8.015229982413632E+04,      /* I = 65 */
(PID.TID 0000.0001)                 1.362652340208229E+05,      /* I = 66 */
(PID.TID 0000.0001)                 1.701080315742101E+05,      /* I = 67 */
(PID.TID 0000.0001)                 1.942331448101592E+05,      /* I = 68 */
(PID.TID 0000.0001)                 2.133486626971531E+05,      /* I = 69 */
(PID.TID 0000.0001)                 2.292584591272880E+05,      /* I = 70 */
(PID.TID 0000.0001)                 2.428369969078989E+05,      /* I = 71 */
(PID.TID 0000.0001)                 2.545652950875683E+05,      /* I = 72 */
(PID.TID 0000.0001)                 2.647274964828301E+05,      /* I = 73 */
(PID.TID 0000.0001)                 2.734980225206389E+05,      /* I = 74 */
(PID.TID 0000.0001)                 2.809856491525217E+05,      /* I = 75 */
(PID.TID 0000.0001)                 2.872580915202295E+05,      /* I = 76 */
(PID.TID 0000.0001)                 2.923567890694162E+05,      /* I = 77 */
(PID.TID 0000.0001)                 2.963063101754721E+05,      /* I = 78 */
(PID.TID 0000.0001)                 2.991205495886625E+05,      /* I = 79 */
(PID.TID 0000.0001)                 3.008068453676764E+05,      /* I = 80 */
(PID.TID 0000.0001)                 3.013686170436881E+05,      /* I = 81 */
(PID.TID 0000.0001)                 3.008068453676764E+05,      /* I = 82 */
(PID.TID 0000.0001)                 2.991205495886625E+05,      /* I = 83 */
(PID.TID 0000.0001)                 2.963063101754721E+05,      /* I = 84 */
(PID.TID 0000.0001)                 2.923567890694162E+05,      /* I = 85 */
(PID.TID 0000.0001)                 2.872580915202295E+05,      /* I = 86 */
(PID.TID 0000.0001)                 2.809856491525217E+05,      /* I = 87 */
(PID.TID 0000.0001)                 2.734980225206389E+05,      /* I = 88 */
(PID.TID 0000.0001)                 2.647274964828301E+05,      /* I = 89 */
(PID.TID 0000.0001)                 2.545652950875683E+05,      /* I = 90 */
(PID.TID 0000.0001)                 2.428369969078989E+05,      /* I = 91 */
(PID.TID 0000.0001)                 2.292584591272880E+05,      /* I = 92 */
(PID.TID 0000.0001)                 2.133486626971531E+05,      /* I = 93 */
(PID.TID 0000.0001)                 1.942331448101592E+05,      /* I = 94 */
(PID.TID 0000.0001)                 1.701080315742101E+05,      /* I = 95 */
(PID.TID 0000.0001)                 1.362652340208229E+05,      /* I = 96 */
(PID.TID 0000.0001)                 8.015229982413632E+04,      /* I = 97 */
(PID.TID 0000.0001)                 1.362652340208229E+05,      /* I = 98 */
(PID.TID 0000.0001)                 1.701080315742101E+05,      /* I = 99 */
(PID.TID 0000.0001)                 1.942331448101592E+05,      /* I =100 */
(PID.TID 0000.0001)                 2.133486626971531E+05,      /* I =101 */
(PID.TID 0000.0001)                 2.292584591272880E+05,      /* I =102 */
(PID.TID 0000.0001)                 2.428369969078989E+05,      /* I =103 */
(PID.TID 0000.0001)                 2.545652950875683E+05,      /* I =104 */
(PID.TID 0000.0001)                 2.647274964828301E+05,      /* I =105 */
(PID.TID 0000.0001)                 2.734980225206389E+05,      /* I =106 */
(PID.TID 0000.0001)                 2.809856491525217E+05,      /* I =107 */
(PID.TID 0000.0001)                 2.872580915202295E+05,      /* I =108 */
(PID.TID 0000.0001)                 2.923567890694162E+05,      /* I =109 */
(PID.TID 0000.0001)                 2.963063101754721E+05,      /* I =110 */
(PID.TID 0000.0001)                 2.991205495886625E+05,      /* I =111 */
(PID.TID 0000.0001)                 3.008068453676764E+05,      /* I =112 */
(PID.TID 0000.0001)                 3.013686170436881E+05,      /* I =113 */
(PID.TID 0000.0001)                 3.008068453676764E+05,      /* I =114 */
(PID.TID 0000.0001)                 2.991205495886625E+05,      /* I =115 */
(PID.TID 0000.0001)                 2.963063101754721E+05,      /* I =116 */
(PID.TID 0000.0001)                 2.923567890694162E+05,      /* I =117 */
(PID.TID 0000.0001)                 2.872580915202295E+05,      /* I =118 */
(PID.TID 0000.0001)                 2.809856491525217E+05,      /* I =119 */
(PID.TID 0000.0001)                 2.734980225206389E+05,      /* I =120 */
(PID.TID 0000.0001)                 2.647274964828301E+05,      /* I =121 */
(PID.TID 0000.0001)                 2.545652950875683E+05,      /* I =122 */
(PID.TID 0000.0001)                 2.428369969078989E+05,      /* I =123 */
(PID.TID 0000.0001)                 2.292584591272880E+05,      /* I =124 */
(PID.TID 0000.0001)                 2.133486626971531E+05,      /* I =125 */
(PID.TID 0000.0001)                 1.942331448101592E+05,      /* I =126 */
(PID.TID 0000.0001)                 1.701080315742101E+05,      /* I =127 */
(PID.TID 0000.0001)                 1.362652340208229E+05,      /* I =128 */
(PID.TID 0000.0001)                 8.015229982413632E+04,      /* I =129 */
(PID.TID 0000.0001)                 1.362652340208229E+05,      /* I =130 */
(PID.TID 0000.0001)                 1.701080315742101E+05,      /* I =131 */
(PID.TID 0000.0001)                 1.942331448101592E+05,      /* I =132 */
(PID.TID 0000.0001)                 2.133486626971531E+05,      /* I =133 */
(PID.TID 0000.0001)                 2.292584591272880E+05,      /* I =134 */
(PID.TID 0000.0001)                 2.428369969078989E+05,      /* I =135 */
(PID.TID 0000.0001)                 2.545652950875683E+05,      /* I =136 */
(PID.TID 0000.0001)                 2.647274964828301E+05,      /* I =137 */
(PID.TID 0000.0001)                 2.734980225206389E+05,      /* I =138 */
(PID.TID 0000.0001)                 2.809856491525217E+05,      /* I =139 */
(PID.TID 0000.0001)                 2.872580915202295E+05,      /* I =140 */
(PID.TID 0000.0001)                 2.923567890694162E+05,      /* I =141 */
(PID.TID 0000.0001)                 2.963063101754721E+05,      /* I =142 */
(PID.TID 0000.0001)                 2.991205495886625E+05,      /* I =143 */
(PID.TID 0000.0001)                 3.008068453676764E+05,      /* I =144 */
(PID.TID 0000.0001)                 3.013686170436881E+05,      /* I =145 */
(PID.TID 0000.0001)                 3.008068453676764E+05,      /* I =146 */
(PID.TID 0000.0001)                 2.991205495886625E+05,      /* I =147 */
(PID.TID 0000.0001)                 2.963063101754721E+05,      /* I =148 */
(PID.TID 0000.0001)                 2.923567890694162E+05,      /* I =149 */
(PID.TID 0000.0001)                 2.872580915202295E+05,      /* I =150 */
(PID.TID 0000.0001)                 2.809856491525217E+05,      /* I =151 */
(PID.TID 0000.0001)                 2.734980225206389E+05,      /* I =152 */
(PID.TID 0000.0001)                 2.647274964828301E+05,      /* I =153 */
(PID.TID 0000.0001)                 2.545652950875683E+05,      /* I =154 */
(PID.TID 0000.0001)                 2.428369969078989E+05,      /* I =155 */
(PID.TID 0000.0001)                 2.292584591272880E+05,      /* I =156 */
(PID.TID 0000.0001)                 2.133486626971531E+05,      /* I =157 */
(PID.TID 0000.0001)                 1.942331448101592E+05,      /* I =158 */
(PID.TID 0000.0001)                 1.701080315742101E+05,      /* I =159 */
(PID.TID 0000.0001)                 1.362652340208229E+05,      /* I =160 */
(PID.TID 0000.0001)                 8.015229982413632E+04,      /* I =161 */
(PID.TID 0000.0001)                 1.362652340208229E+05,      /* I =162 */
(PID.TID 0000.0001)                 1.701080315742101E+05,      /* I =163 */
(PID.TID 0000.0001)                 1.942331448101592E+05,      /* I =164 */
(PID.TID 0000.0001)                 2.133486626971531E+05,      /* I =165 */
(PID.TID 0000.0001)                 2.292584591272880E+05,      /* I =166 */
(PID.TID 0000.0001)                 2.428369969078989E+05,      /* I =167 */
(PID.TID 0000.0001)                 2.545652950875683E+05,      /* I =168 */
(PID.TID 0000.0001)                 2.647274964828301E+05,      /* I =169 */
(PID.TID 0000.0001)                 2.734980225206389E+05,      /* I =170 */
(PID.TID 0000.0001)                 2.809856491525217E+05,      /* I =171 */
(PID.TID 0000.0001)                 2.872580915202295E+05,      /* I =172 */
(PID.TID 0000.0001)                 2.923567890694162E+05,      /* I =173 */
(PID.TID 0000.0001)                 2.963063101754721E+05,      /* I =174 */
(PID.TID 0000.0001)                 2.991205495886625E+05,      /* I =175 */
(PID.TID 0000.0001)                 3.008068453676764E+05,      /* I =176 */
(PID.TID 0000.0001)                 3.013686170436881E+05,      /* I =177 */
(PID.TID 0000.0001)                 3.008068453676764E+05,      /* I =178 */
(PID.TID 0000.0001)                 2.991205495886625E+05,      /* I =179 */
(PID.TID 0000.0001)                 2.963063101754721E+05,      /* I =180 */
(PID.TID 0000.0001)                 2.923567890694162E+05,      /* I =181 */
(PID.TID 0000.0001)                 2.872580915202295E+05,      /* I =182 */
(PID.TID 0000.0001)                 2.809856491525217E+05,      /* I =183 */
(PID.TID 0000.0001)                 2.734980225206389E+05,      /* I =184 */
(PID.TID 0000.0001)                 2.647274964828301E+05,      /* I =185 */
(PID.TID 0000.0001)                 2.545652950875683E+05,      /* I =186 */
(PID.TID 0000.0001)                 2.428369969078989E+05,      /* I =187 */
(PID.TID 0000.0001)                 2.292584591272880E+05,      /* I =188 */
(PID.TID 0000.0001)                 2.133486626971531E+05,      /* I =189 */
(PID.TID 0000.0001)                 1.942331448101592E+05,      /* I =190 */
(PID.TID 0000.0001)                 1.701080315742101E+05,      /* I =191 */
(PID.TID 0000.0001)                 1.362652340208229E+05       /* I =192 */
(PID.TID 0000.0001)     ;
(PID.TID 0000.0001) dyU =  /* dyU(1,:,1,:) ( units: m ) */
(PID.TID 0000.0001)                 8.015229982413632E+04,      /* J =  1 */
(PID.TID 0000.0001)                 1.333130744933864E+05,      /* J =  2 */
(PID.TID 0000.0001)                 1.691744868129062E+05,      /* J =  3 */
(PID.TID 0000.0001)                 1.937548202849060E+05,      /* J =  4 */
(PID.TID 0000.0001)                 2.130490056267208E+05,      /* J =  5 */
(PID.TID 0000.0001)                 2.290479919481738E+05,      /* J =  6 */
(PID.TID 0000.0001)                 2.426774358027003E+05,      /* J =  7 */
(PID.TID 0000.0001)                 2.544372984215561E+05,      /* J =  8 */
(PID.TID 0000.0001)                 2.646201463834826E+05,      /* J =  9 */
(PID.TID 0000.0001)                 2.734046499619031E+05,      /* J = 10 */
(PID.TID 0000.0001)                 2.809019351693761E+05,      /* J = 11 */
(PID.TID 0000.0001)                 2.871811105274442E+05,      /* J = 12 */
(PID.TID 0000.0001)                 2.922844849381675E+05,      /* J = 13 */
(PID.TID 0000.0001)                 2.962371870847826E+05,      /* J = 14 */
(PID.TID 0000.0001)                 2.990534755671296E+05,      /* J = 15 */
(PID.TID 0000.0001)                 3.007409169495504E+05,      /* J = 16 */
(PID.TID 0000.0001)                 3.013031486919771E+05,      /* J = 17 */
(PID.TID 0000.0001)                 3.007409169495504E+05,      /* J = 18 */
(PID.TID 0000.0001)                 2.990534755671296E+05,      /* J = 19 */
(PID.TID 0000.0001)                 2.962371870847826E+05,      /* J = 20 */
(PID.TID 0000.0001)                 2.922844849381675E+05,      /* J = 21 */
(PID.TID 0000.0001)                 2.871811105274442E+05,      /* J = 22 */
(PID.TID 0000.0001)                 2.809019351693761E+05,      /* J = 23 */
(PID.TID 0000.0001)                 2.734046499619031E+05,      /* J = 24 */
(PID.TID 0000.0001)                 2.646201463834826E+05,      /* J = 25 */
(PID.TID 0000.0001)                 2.544372984215561E+05,      /* J = 26 */
(PID.TID 0000.0001)                 2.426774358027003E+05,      /* J = 27 */
(PID.TID 0000.0001)                 2.290479919481738E+05,      /* J = 28 */
(PID.TID 0000.0001)                 2.130490056267208E+05,      /* J = 29 */
(PID.TID 0000.0001)                 1.937548202849060E+05,      /* J = 30 */
(PID.TID 0000.0001)                 1.691744868129062E+05,      /* J = 31 */
(PID.TID 0000.0001)                 1.333130744933864E+05       /* J = 32 */
(PID.TID 0000.0001)     ;
(PID.TID 0000.0001) rA  =  /* rA (:,1,:,1) ( units: m^2 ) */
(PID.TID 0000.0001)                 1.401900702255611E+10,      /* I =  1 */
(PID.TID 0000.0001)                 2.459906945574446E+10,      /* I =  2 */
(PID.TID 0000.0001)                 3.378518544307869E+10,      /* I =  3 */
(PID.TID 0000.0001)                 4.192037169898667E+10,      /* I =  4 */
(PID.TID 0000.0001)                 4.925938996118163E+10,      /* I =  5 */
(PID.TID 0000.0001)                 5.594154126607553E+10,      /* I =  6 */
(PID.TID 0000.0001)                 6.203683527772523E+10,      /* I =  7 */
(PID.TID 0000.0001)                 6.757541173817516E+10,      /* I =  8 */
(PID.TID 0000.0001)                 7.256353271748119E+10,      /* I =  9 */
(PID.TID 0000.0001)                 7.699293007098555E+10,      /* I = 10 */
(PID.TID 0000.0001)                 8.084683449728902E+10,      /* I = 11 */
(PID.TID 0000.0001)                 8.410423102796223E+10,      /* I = 12 */
(PID.TID 0000.0001)                 8.674306976737517E+10,      /* I = 13 */
(PID.TID 0000.0001)                 8.874277443041928E+10,      /* I = 14 */
(PID.TID 0000.0001)                 9.008620045350865E+10,      /* I = 15 */
(PID.TID 0000.0001)                 9.076111290418457E+10,      /* I = 16 */
(PID.TID 0000.0001)                 9.076111290422060E+10,      /* I = 17 */
(PID.TID 0000.0001)                 9.008620045354469E+10,      /* I = 18 */
(PID.TID 0000.0001)                 8.874277443041928E+10,      /* I = 19 */
(PID.TID 0000.0001)                 8.674306976741121E+10,      /* I = 20 */
(PID.TID 0000.0001)                 8.410423102799828E+10,      /* I = 21 */
(PID.TID 0000.0001)                 8.084683449728902E+10,      /* I = 22 */
(PID.TID 0000.0001)                 7.699293007098555E+10,      /* I = 23 */
(PID.TID 0000.0001)                 7.256353271748119E+10,      /* I = 24 */
(PID.TID 0000.0001)                 6.757541173817516E+10,      /* I = 25 */
(PID.TID 0000.0001)                 6.203683527772523E+10,      /* I = 26 */
(PID.TID 0000.0001)                 5.594154126611156E+10,      /* I = 27 */
(PID.TID 0000.0001)                 4.925938996118163E+10,      /* I = 28 */
(PID.TID 0000.0001)                 4.192037169898667E+10,      /* I = 29 */
(PID.TID 0000.0001)                 3.378518544304265E+10,      /* I = 30 */
(PID.TID 0000.0001)                 2.459906945574446E+10,      /* I = 31 */
(PID.TID 0000.0001)                 1.401900702259215E+10,      /* I = 32 */
(PID.TID 0000.0001)                 1.401900702255611E+10,      /* I = 33 */
(PID.TID 0000.0001)                 2.459906945574446E+10,      /* I = 34 */
(PID.TID 0000.0001)                 3.378518544307869E+10,      /* I = 35 */
(PID.TID 0000.0001)                 4.192037169898667E+10,      /* I = 36 */
(PID.TID 0000.0001)                 4.925938996118163E+10,      /* I = 37 */
(PID.TID 0000.0001)                 5.594154126607553E+10,      /* I = 38 */
(PID.TID 0000.0001)                 6.203683527772523E+10,      /* I = 39 */
(PID.TID 0000.0001)                 6.757541173817516E+10,      /* I = 40 */
(PID.TID 0000.0001)                 7.256353271748119E+10,      /* I = 41 */
(PID.TID 0000.0001)                 7.699293007098555E+10,      /* I = 42 */
(PID.TID 0000.0001)                 8.084683449728902E+10,      /* I = 43 */
(PID.TID 0000.0001)                 8.410423102796223E+10,      /* I = 44 */
(PID.TID 0000.0001)                 8.674306976737517E+10,      /* I = 45 */
(PID.TID 0000.0001)                 8.874277443041928E+10,      /* I = 46 */
(PID.TID 0000.0001)                 9.008620045350865E+10,      /* I = 47 */
(PID.TID 0000.0001)                 9.076111290418457E+10,      /* I = 48 */
(PID.TID 0000.0001)                 9.076111290422060E+10,      /* I = 49 */
(PID.TID 0000.0001)                 9.008620045354469E+10,      /* I = 50 */
(PID.TID 0000.0001)                 8.874277443041928E+10,      /* I = 51 */
(PID.TID 0000.0001)                 8.674306976741121E+10,      /* I = 52 */
(PID.TID 0000.0001)                 8.410423102799828E+10,      /* I = 53 */
(PID.TID 0000.0001)                 8.084683449728902E+10,      /* I = 54 */
(PID.TID 0000.0001)                 7.699293007098555E+10,      /* I = 55 */
(PID.TID 0000.0001)                 7.256353271748119E+10,      /* I = 56 */
(PID.TID 0000.0001)                 6.757541173817516E+10,      /* I = 57 */
(PID.TID 0000.0001)                 6.203683527772523E+10,      /* I = 58 */
(PID.TID 0000.0001)                 5.594154126611156E+10,      /* I = 59 */
(PID.TID 0000.0001)                 4.925938996118163E+10,      /* I = 60 */
(PID.TID 0000.0001)                 4.192037169898667E+10,      /* I = 61 */
(PID.TID 0000.0001)                 3.378518544304265E+10,      /* I = 62 */
(PID.TID 0000.0001)                 2.459906945574446E+10,      /* I = 63 */
(PID.TID 0000.0001)                 1.401900702259215E+10,      /* I = 64 */
(PID.TID 0000.0001)                 1.401900702255611E+10,      /* I = 65 */
(PID.TID 0000.0001)                 2.459906945574446E+10,      /* I = 66 */
(PID.TID 0000.0001)                 3.378518544307869E+10,      /* I = 67 */
(PID.TID 0000.0001)                 4.192037169898667E+10,      /* I = 68 */
(PID.TID 0000.0001)                 4.925938996118163E+10,      /* I = 69 */
(PID.TID 0000.0001)                 5.594154126607553E+10,      /* I = 70 */
(PID.TID 0000.0001)                 6.203683527772523E+10,      /* I = 71 */
(PID.TID 0000.0001)                 6.757541173817516E+10,      /* I = 72 */
(PID.TID 0000.0001)                 7.256353271748119E+10,      /* I = 73 */
(PID.TID 0000.0001)                 7.699293007098555E+10,      /* I = 74 */
(PID.TID 0000.0001)                 8.084683449728902E+10,      /* I = 75 */
(PID.TID 0000.0001)                 8.410423102796223E+10,      /* I = 76 */
(PID.TID 0000.0001)                 8.674306976737517E+10,      /* I = 77 */
(PID.TID 0000.0001)                 8.874277443041928E+10,      /* I = 78 */
(PID.TID 0000.0001)                 9.008620045350865E+10,      /* I = 79 */
(PID.TID 0000.0001)                 9.076111290418457E+10,      /* I = 80 */
(PID.TID 0000.0001)                 9.076111290422060E+10,      /* I = 81 */
(PID.TID 0000.0001)                 9.008620045354469E+10,      /* I = 82 */
(PID.TID 0000.0001)                 8.874277443041928E+10,      /* I = 83 */
(PID.TID 0000.0001)                 8.674306976741121E+10,      /* I = 84 */
(PID.TID 0000.0001)                 8.410423102799828E+10,      /* I = 85 */
(PID.TID 0000.0001)                 8.084683449728902E+10,      /* I = 86 */
(PID.TID 0000.0001)                 7.699293007098555E+10,      /* I = 87 */
(PID.TID 0000.0001)                 7.256353271748119E+10,      /* I = 88 */
(PID.TID 0000.0001)                 6.757541173817516E+10,      /* I = 89 */
(PID.TID 0000.0001)                 6.203683527772523E+10,      /* I = 90 */
(PID.TID 0000.0001)                 5.594154126611156E+10,      /* I = 91 */
(PID.TID 0000.0001)                 4.925938996118163E+10,      /* I = 92 */
(PID.TID 0000.0001)                 4.192037169898667E+10,      /* I = 93 */
(PID.TID 0000.0001)                 3.378518544304265E+10,      /* I = 94 */
(PID.TID 0000.0001)                 2.459906945574446E+10,      /* I = 95 */
(PID.TID 0000.0001)                 1.401900702259215E+10,      /* I = 96 */
(PID.TID 0000.0001)                 1.401900702255611E+10,      /* I = 97 */
(PID.TID 0000.0001)                 2.459906945574446E+10,      /* I = 98 */
(PID.TID 0000.0001)                 3.378518544307869E+10,      /* I = 99 */
(PID.TID 0000.0001)                 4.192037169898667E+10,      /* I =100 */
(PID.TID 0000.0001)                 4.925938996118163E+10,      /* I =101 */
(PID.TID 0000.0001)                 5.594154126607553E+10,      /* I =102 */
(PID.TID 0000.0001)                 6.203683527772523E+10,      /* I =103 */
(PID.TID 0000.0001)                 6.757541173817516E+10,      /* I =104 */
(PID.TID 0000.0001)                 7.256353271748119E+10,      /* I =105 */
(PID.TID 0000.0001)                 7.699293007098555E+10,      /* I =106 */
(PID.TID 0000.0001)                 8.084683449728902E+10,      /* I =107 */
(PID.TID 0000.0001)                 8.410423102796223E+10,      /* I =108 */
(PID.TID 0000.0001)                 8.674306976737517E+10,      /* I =109 */
(PID.TID 0000.0001)                 8.874277443041928E+10,      /* I =110 */
(PID.TID 0000.0001)                 9.008620045350865E+10,      /* I =111 */
(PID.TID 0000.0001)                 9.076111290418457E+10,      /* I =112 */
(PID.TID 0000.0001)                 9.076111290422060E+10,      /* I =113 */
(PID.TID 0000.0001)                 9.008620045354469E+10,      /* I =114 */
(PID.TID 0000.0001)                 8.874277443041928E+10,      /* I =115 */
(PID.TID 0000.0001)                 8.674306976741121E+10,      /* I =116 */
(PID.TID 0000.0001)                 8.410423102799828E+10,      /* I =117 */
(PID.TID 0000.0001)                 8.084683449728902E+10,      /* I =118 */
(PID.TID 0000.0001)                 7.699293007098555E+10,      /* I =119 */
(PID.TID 0000.0001)                 7.256353271748119E+10,      /* I =120 */
(PID.TID 0000.0001)                 6.757541173817516E+10,      /* I =121 */
(PID.TID 0000.0001)                 6.203683527772523E+10,      /* I =122 */
(PID.TID 0000.0001)                 5.594154126611156E+10,      /* I =123 */
(PID.TID 0000.0001)                 4.925938996118163E+10,      /* I =124 */
(PID.TID 0000.0001)                 4.192037169898667E+10,      /* I =125 */
(PID.TID 0000.0001)                 3.378518544304265E+10,      /* I =126 */
(PID.TID 0000.0001)                 2.459906945574446E+10,      /* I =127 */
(PID.TID 0000.0001)                 1.401900702259215E+10,      /* I =128 */
(PID.TID 0000.0001)                 1.401900702255611E+10,      /* I =129 */
(PID.TID 0000.0001)                 2.459906945574446E+10,      /* I =130 */
(PID.TID 0000.0001)                 3.378518544307869E+10,      /* I =131 */
(PID.TID 0000.0001)                 4.192037169898667E+10,      /* I =132 */
(PID.TID 0000.0001)                 4.925938996118163E+10,      /* I =133 */
(PID.TID 0000.0001)                 5.594154126607553E+10,      /* I =134 */
(PID.TID 0000.0001)                 6.203683527772523E+10,      /* I =135 */
(PID.TID 0000.0001)                 6.757541173817516E+10,      /* I =136 */
(PID.TID 0000.0001)                 7.256353271748119E+10,      /* I =137 */
(PID.TID 0000.0001)                 7.699293007098555E+10,      /* I =138 */
(PID.TID 0000.0001)                 8.084683449728902E+10,      /* I =139 */
(PID.TID 0000.0001)                 8.410423102796223E+10,      /* I =140 */
(PID.TID 0000.0001)                 8.674306976737517E+10,      /* I =141 */
(PID.TID 0000.0001)                 8.874277443041928E+10,      /* I =142 */
(PID.TID 0000.0001)                 9.008620045350865E+10,      /* I =143 */
(PID.TID 0000.0001)                 9.076111290418457E+10,      /* I =144 */
(PID.TID 0000.0001)                 9.076111290422060E+10,      /* I =145 */
(PID.TID 0000.0001)                 9.008620045354469E+10,      /* I =146 */
(PID.TID 0000.0001)                 8.874277443041928E+10,      /* I =147 */
(PID.TID 0000.0001)                 8.674306976741121E+10,      /* I =148 */
(PID.TID 0000.0001)                 8.410423102799828E+10,      /* I =149 */
(PID.TID 0000.0001)                 8.084683449728902E+10,      /* I =150 */
(PID.TID 0000.0001)                 7.699293007098555E+10,      /* I =151 */
(PID.TID 0000.0001)                 7.256353271748119E+10,      /* I =152 */
(PID.TID 0000.0001)                 6.757541173817516E+10,      /* I =153 */
(PID.TID 0000.0001)                 6.203683527772523E+10,      /* I =154 */
(PID.TID 0000.0001)                 5.594154126611156E+10,      /* I =155 */
(PID.TID 0000.0001)                 4.925938996118163E+10,      /* I =156 */
(PID.TID 0000.0001)                 4.192037169898667E+10,      /* I =157 */
(PID.TID 0000.0001)                 3.378518544304265E+10,      /* I =158 */
(PID.TID 0000.0001)                 2.459906945574446E+10,      /* I =159 */
(PID.TID 0000.0001)                 1.401900702259215E+10,      /* I =160 */
(PID.TID 0000.0001)                 1.401900702255611E+10,      /* I =161 */
(PID.TID 0000.0001)                 2.459906945574446E+10,      /* I =162 */
(PID.TID 0000.0001)                 3.378518544307869E+10,      /* I =163 */
(PID.TID 0000.0001)                 4.192037169898667E+10,      /* I =164 */
(PID.TID 0000.0001)                 4.925938996118163E+10,      /* I =165 */
(PID.TID 0000.0001)                 5.594154126607553E+10,      /* I =166 */
(PID.TID 0000.0001)                 6.203683527772523E+10,      /* I =167 */
(PID.TID 0000.0001)                 6.757541173817516E+10,      /* I =168 */
(PID.TID 0000.0001)                 7.256353271748119E+10,      /* I =169 */
(PID.TID 0000.0001)                 7.699293007098555E+10,      /* I =170 */
(PID.TID 0000.0001)                 8.084683449728902E+10,      /* I =171 */
(PID.TID 0000.0001)                 8.410423102796223E+10,      /* I =172 */
(PID.TID 0000.0001)                 8.674306976737517E+10,      /* I =173 */
(PID.TID 0000.0001)                 8.874277443041928E+10,      /* I =174 */
(PID.TID 0000.0001)                 9.008620045350865E+10,      /* I =175 */
(PID.TID 0000.0001)                 9.076111290418457E+10,      /* I =176 */
(PID.TID 0000.0001)                 9.076111290422060E+10,      /* I =177 */
(PID.TID 0000.0001)                 9.008620045354469E+10,      /* I =178 */
(PID.TID 0000.0001)                 8.874277443041928E+10,      /* I =179 */
(PID.TID 0000.0001)                 8.674306976741121E+10,      /* I =180 */
(PID.TID 0000.0001)                 8.410423102799828E+10,      /* I =181 */
(PID.TID 0000.0001)                 8.084683449728902E+10,      /* I =182 */
(PID.TID 0000.0001)                 7.699293007098555E+10,      /* I =183 */
(PID.TID 0000.0001)                 7.256353271748119E+10,      /* I =184 */
(PID.TID 0000.0001)                 6.757541173817516E+10,      /* I =185 */
(PID.TID 0000.0001)                 6.203683527772523E+10,      /* I =186 */
(PID.TID 0000.0001)                 5.594154126611156E+10,      /* I =187 */
(PID.TID 0000.0001)                 4.925938996118163E+10,      /* I =188 */
(PID.TID 0000.0001)                 4.192037169898667E+10,      /* I =189 */
(PID.TID 0000.0001)                 3.378518544304265E+10,      /* I =190 */
(PID.TID 0000.0001)                 2.459906945574446E+10,      /* I =191 */
(PID.TID 0000.0001)                 1.401900702259215E+10       /* I =192 */
(PID.TID 0000.0001)     ;
(PID.TID 0000.0001) rA  =  /* rA (1,:,1,:) ( units: m^2 ) */
(PID.TID 0000.0001)                 1.401900702255611E+10,      /* J =  1 */
(PID.TID 0000.0001)                 2.459906945574446E+10,      /* J =  2 */
(PID.TID 0000.0001)                 3.378518544307869E+10,      /* J =  3 */
(PID.TID 0000.0001)                 4.192037169898667E+10,      /* J =  4 */
(PID.TID 0000.0001)                 4.925938996118163E+10,      /* J =  5 */
(PID.TID 0000.0001)                 5.594154126607553E+10,      /* J =  6 */
(PID.TID 0000.0001)                 6.203683527776127E+10,      /* J =  7 */
(PID.TID 0000.0001)                 6.757541173817516E+10,      /* J =  8 */
(PID.TID 0000.0001)                 7.256353271748119E+10,      /* J =  9 */
(PID.TID 0000.0001)                 7.699293007098555E+10,      /* J = 10 */
(PID.TID 0000.0001)                 8.084683449728902E+10,      /* J = 11 */
(PID.TID 0000.0001)                 8.410423102799828E+10,      /* J = 12 */
(PID.TID 0000.0001)                 8.674306976737517E+10,      /* J = 13 */
(PID.TID 0000.0001)                 8.874277443041928E+10,      /* J = 14 */
(PID.TID 0000.0001)                 9.008620045350865E+10,      /* J = 15 */
(PID.TID 0000.0001)                 9.076111290418457E+10,      /* J = 16 */
(PID.TID 0000.0001)                 9.076111290422060E+10,      /* J = 17 */
(PID.TID 0000.0001)                 9.008620045354469E+10,      /* J = 18 */
(PID.TID 0000.0001)                 8.874277443041928E+10,      /* J = 19 */
(PID.TID 0000.0001)                 8.674306976737517E+10,      /* J = 20 */
(PID.TID 0000.0001)                 8.410423102799828E+10,      /* J = 21 */
(PID.TID 0000.0001)                 8.084683449728902E+10,      /* J = 22 */
(PID.TID 0000.0001)                 7.699293007098555E+10,      /* J = 23 */
(PID.TID 0000.0001)                 7.256353271748119E+10,      /* J = 24 */
(PID.TID 0000.0001)                 6.757541173817516E+10,      /* J = 25 */
(PID.TID 0000.0001)                 6.203683527772523E+10,      /* J = 26 */
(PID.TID 0000.0001)                 5.594154126607553E+10,      /* J = 27 */
(PID.TID 0000.0001)                 4.925938996118163E+10,      /* J = 28 */
(PID.TID 0000.0001)                 4.192037169898667E+10,      /* J = 29 */
(PID.TID 0000.0001)                 3.378518544307869E+10,      /* J = 30 */
(PID.TID 0000.0001)                 2.459906945574446E+10,      /* J = 31 */
(PID.TID 0000.0001)                 1.401900702259215E+10       /* J = 32 */
(PID.TID 0000.0001)     ;
(PID.TID 0000.0001) rAw =  /* rAw(:,1,:,1) ( units: m^2 ) */
(PID.TID 0000.0001)                 1.216690346714270E+10,      /* I =  1 */
(PID.TID 0000.0001)                 1.974052138506315E+10,      /* I =  2 */
(PID.TID 0000.0001)                 2.943712825252015E+10,      /* I =  3 */
(PID.TID 0000.0001)                 3.801790263324359E+10,      /* I =  4 */
(PID.TID 0000.0001)                 4.571243814189866E+10,      /* I =  5 */
(PID.TID 0000.0001)                 5.269930713599979E+10,      /* I =  6 */
(PID.TID 0000.0001)                 5.907428494299063E+10,      /* I =  7 */
(PID.TID 0000.0001)                 6.488320895111514E+10,      /* I =  8 */
(PID.TID 0000.0001)                 7.014205907741882E+10,      /* I =  9 */
(PID.TID 0000.0001)                 7.484854821847499E+10,      /* I = 10 */
(PID.TID 0000.0001)                 7.898934631431560E+10,      /* I = 11 */
(PID.TID 0000.0001)                 8.254500894894537E+10,      /* I = 12 */
(PID.TID 0000.0001)                 8.549360686473492E+10,      /* I = 13 */
(PID.TID 0000.0001)                 8.781353403175085E+10,      /* I = 14 */
(PID.TID 0000.0001)                 8.948571540392021E+10,      /* I = 15 */
(PID.TID 0000.0001)                 9.049530583086168E+10,      /* I = 16 */
(PID.TID 0000.0001)                 9.083293515008307E+10,      /* I = 17 */
(PID.TID 0000.0001)                 9.049530583087070E+10,      /* I = 18 */
(PID.TID 0000.0001)                 8.948571540391121E+10,      /* I = 19 */
(PID.TID 0000.0001)                 8.781353403174185E+10,      /* I = 20 */
(PID.TID 0000.0001)                 8.549360686467184E+10,      /* I = 21 */
(PID.TID 0000.0001)                 8.254500894890933E+10,      /* I = 22 */
(PID.TID 0000.0001)                 7.898934631434262E+10,      /* I = 23 */
(PID.TID 0000.0001)                 7.484854821844795E+10,      /* I = 24 */
(PID.TID 0000.0001)                 7.014205907742783E+10,      /* I = 25 */
(PID.TID 0000.0001)                 6.488320895111514E+10,      /* I = 26 */
(PID.TID 0000.0001)                 5.907428494299063E+10,      /* I = 27 */
(PID.TID 0000.0001)                 5.269930713599078E+10,      /* I = 28 */
(PID.TID 0000.0001)                 4.571243814190767E+10,      /* I = 29 */
(PID.TID 0000.0001)                 3.801790263325260E+10,      /* I = 30 */
(PID.TID 0000.0001)                 2.943712825251114E+10,      /* I = 31 */
(PID.TID 0000.0001)                 1.974052138509018E+10,      /* I = 32 */
(PID.TID 0000.0001)                 1.216690346714270E+10,      /* I = 33 */
(PID.TID 0000.0001)                 1.974052138506315E+10,      /* I = 34 */
(PID.TID 0000.0001)                 2.943712825252015E+10,      /* I = 35 */
(PID.TID 0000.0001)                 3.801790263324359E+10,      /* I = 36 */
(PID.TID 0000.0001)                 4.571243814189866E+10,      /* I = 37 */
(PID.TID 0000.0001)                 5.269930713599979E+10,      /* I = 38 */
(PID.TID 0000.0001)                 5.907428494299063E+10,      /* I = 39 */
(PID.TID 0000.0001)                 6.488320895111514E+10,      /* I = 40 */
(PID.TID 0000.0001)                 7.014205907741882E+10,      /* I = 41 */
(PID.TID 0000.0001)                 7.484854821847499E+10,      /* I = 42 */
(PID.TID 0000.0001)                 7.898934631431560E+10,      /* I = 43 */
(PID.TID 0000.0001)                 8.254500894894537E+10,      /* I = 44 */
(PID.TID 0000.0001)                 8.549360686473492E+10,      /* I = 45 */
(PID.TID 0000.0001)                 8.781353403175085E+10,      /* I = 46 */
(PID.TID 0000.0001)                 8.948571540392021E+10,      /* I = 47 */
(PID.TID 0000.0001)                 9.049530583086168E+10,      /* I = 48 */
(PID.TID 0000.0001)                 9.083293515008307E+10,      /* I = 49 */
(PID.TID 0000.0001)                 9.049530583087070E+10,      /* I = 50 */
(PID.TID 0000.0001)                 8.948571540391121E+10,      /* I = 51 */
(PID.TID 0000.0001)                 8.781353403174185E+10,      /* I = 52 */
(PID.TID 0000.0001)                 8.549360686467184E+10,      /* I = 53 */
(PID.TID 0000.0001)                 8.254500894890933E+10,      /* I = 54 */
(PID.TID 0000.0001)                 7.898934631434262E+10,      /* I = 55 */
(PID.TID 0000.0001)                 7.484854821844795E+10,      /* I = 56 */
(PID.TID 0000.0001)                 7.014205907742783E+10,      /* I = 57 */
(PID.TID 0000.0001)                 6.488320895111514E+10,      /* I = 58 */
(PID.TID 0000.0001)                 5.907428494299063E+10,      /* I = 59 */
(PID.TID 0000.0001)                 5.269930713599078E+10,      /* I = 60 */
(PID.TID 0000.0001)                 4.571243814190767E+10,      /* I = 61 */
(PID.TID 0000.0001)                 3.801790263325260E+10,      /* I = 62 */
(PID.TID 0000.0001)                 2.943712825251114E+10,      /* I = 63 */
(PID.TID 0000.0001)                 1.974052138509018E+10,      /* I = 64 */
(PID.TID 0000.0001)                 1.216690346714270E+10,      /* I = 65 */
(PID.TID 0000.0001)                 1.974052138506315E+10,      /* I = 66 */
(PID.TID 0000.0001)                 2.943712825252015E+10,      /* I = 67 */
(PID.TID 0000.0001)                 3.801790263324359E+10,      /* I = 68 */
(PID.TID 0000.0001)                 4.571243814189866E+10,      /* I = 69 */
(PID.TID 0000.0001)                 5.269930713599979E+10,      /* I = 70 */
(PID.TID 0000.0001)                 5.907428494299063E+10,      /* I = 71 */
(PID.TID 0000.0001)                 6.488320895111514E+10,      /* I = 72 */
(PID.TID 0000.0001)                 7.014205907741882E+10,      /* I = 73 */
(PID.TID 0000.0001)                 7.484854821847499E+10,      /* I = 74 */
(PID.TID 0000.0001)                 7.898934631431560E+10,      /* I = 75 */
(PID.TID 0000.0001)                 8.254500894894537E+10,      /* I = 76 */
(PID.TID 0000.0001)                 8.549360686473492E+10,      /* I = 77 */
(PID.TID 0000.0001)                 8.781353403175085E+10,      /* I = 78 */
(PID.TID 0000.0001)                 8.948571540392021E+10,      /* I = 79 */
(PID.TID 0000.0001)                 9.049530583086168E+10,      /* I = 80 */
(PID.TID 0000.0001)                 9.083293515008307E+10,      /* I = 81 */
(PID.TID 0000.0001)                 9.049530583087070E+10,      /* I = 82 */
(PID.TID 0000.0001)                 8.948571540391121E+10,      /* I = 83 */
(PID.TID 0000.0001)                 8.781353403174185E+10,      /* I = 84 */
(PID.TID 0000.0001)                 8.549360686467184E+10,      /* I = 85 */
(PID.TID 0000.0001)                 8.254500894890933E+10,      /* I = 86 */
(PID.TID 0000.0001)                 7.898934631434262E+10,      /* I = 87 */
(PID.TID 0000.0001)                 7.484854821844795E+10,      /* I = 88 */
(PID.TID 0000.0001)                 7.014205907742783E+10,      /* I = 89 */
(PID.TID 0000.0001)                 6.488320895111514E+10,      /* I = 90 */
(PID.TID 0000.0001)                 5.907428494299063E+10,      /* I = 91 */
(PID.TID 0000.0001)                 5.269930713599078E+10,      /* I = 92 */
(PID.TID 0000.0001)                 4.571243814190767E+10,      /* I = 93 */
(PID.TID 0000.0001)                 3.801790263325260E+10,      /* I = 94 */
(PID.TID 0000.0001)                 2.943712825251114E+10,      /* I = 95 */
(PID.TID 0000.0001)                 1.974052138509018E+10,      /* I = 96 */
(PID.TID 0000.0001)                 1.216690346714270E+10,      /* I = 97 */
(PID.TID 0000.0001)                 1.974052138506315E+10,      /* I = 98 */
(PID.TID 0000.0001)                 2.943712825252015E+10,      /* I = 99 */
(PID.TID 0000.0001)                 3.801790263324359E+10,      /* I =100 */
(PID.TID 0000.0001)                 4.571243814189866E+10,      /* I =101 */
(PID.TID 0000.0001)                 5.269930713599979E+10,      /* I =102 */
(PID.TID 0000.0001)                 5.907428494299063E+10,      /* I =103 */
(PID.TID 0000.0001)                 6.488320895111514E+10,      /* I =104 */
(PID.TID 0000.0001)                 7.014205907741882E+10,      /* I =105 */
(PID.TID 0000.0001)                 7.484854821847499E+10,      /* I =106 */
(PID.TID 0000.0001)                 7.898934631431560E+10,      /* I =107 */
(PID.TID 0000.0001)                 8.254500894894537E+10,      /* I =108 */
(PID.TID 0000.0001)                 8.549360686473492E+10,      /* I =109 */
(PID.TID 0000.0001)                 8.781353403175085E+10,      /* I =110 */
(PID.TID 0000.0001)                 8.948571540392021E+10,      /* I =111 */
(PID.TID 0000.0001)                 9.049530583086168E+10,      /* I =112 */
(PID.TID 0000.0001)                 9.083293515008307E+10,      /* I =113 */
(PID.TID 0000.0001)                 9.049530583087070E+10,      /* I =114 */
(PID.TID 0000.0001)                 8.948571540391121E+10,      /* I =115 */
(PID.TID 0000.0001)                 8.781353403174185E+10,      /* I =116 */
(PID.TID 0000.0001)                 8.549360686467184E+10,      /* I =117 */
(PID.TID 0000.0001)                 8.254500894890933E+10,      /* I =118 */
(PID.TID 0000.0001)                 7.898934631434262E+10,      /* I =119 */
(PID.TID 0000.0001)                 7.484854821844795E+10,      /* I =120 */
(PID.TID 0000.0001)                 7.014205907742783E+10,      /* I =121 */
(PID.TID 0000.0001)                 6.488320895111514E+10,      /* I =122 */
(PID.TID 0000.0001)                 5.907428494299063E+10,      /* I =123 */
(PID.TID 0000.0001)                 5.269930713599078E+10,      /* I =124 */
(PID.TID 0000.0001)                 4.571243814190767E+10,      /* I =125 */
(PID.TID 0000.0001)                 3.801790263325260E+10,      /* I =126 */
(PID.TID 0000.0001)                 2.943712825251114E+10,      /* I =127 */
(PID.TID 0000.0001)                 1.974052138509018E+10,      /* I =128 */
(PID.TID 0000.0001)                 1.216690346714270E+10,      /* I =129 */
(PID.TID 0000.0001)                 1.974052138506315E+10,      /* I =130 */
(PID.TID 0000.0001)                 2.943712825252015E+10,      /* I =131 */
(PID.TID 0000.0001)                 3.801790263324359E+10,      /* I =132 */
(PID.TID 0000.0001)                 4.571243814189866E+10,      /* I =133 */
(PID.TID 0000.0001)                 5.269930713599979E+10,      /* I =134 */
(PID.TID 0000.0001)                 5.907428494299063E+10,      /* I =135 */
(PID.TID 0000.0001)                 6.488320895111514E+10,      /* I =136 */
(PID.TID 0000.0001)                 7.014205907741882E+10,      /* I =137 */
(PID.TID 0000.0001)                 7.484854821847499E+10,      /* I =138 */
(PID.TID 0000.0001)                 7.898934631431560E+10,      /* I =139 */
(PID.TID 0000.0001)                 8.254500894894537E+10,      /* I =140 */
(PID.TID 0000.0001)                 8.549360686473492E+10,      /* I =141 */
(PID.TID 0000.0001)                 8.781353403175085E+10,      /* I =142 */
(PID.TID 0000.0001)                 8.948571540392021E+10,      /* I =143 */
(PID.TID 0000.0001)                 9.049530583086168E+10,      /* I =144 */
(PID.TID 0000.0001)                 9.083293515008307E+10,      /* I =145 */
(PID.TID 0000.0001)                 9.049530583087070E+10,      /* I =146 */
(PID.TID 0000.0001)                 8.948571540391121E+10,      /* I =147 */
(PID.TID 0000.0001)                 8.781353403174185E+10,      /* I =148 */
(PID.TID 0000.0001)                 8.549360686467184E+10,      /* I =149 */
(PID.TID 0000.0001)                 8.254500894890933E+10,      /* I =150 */
(PID.TID 0000.0001)                 7.898934631434262E+10,      /* I =151 */
(PID.TID 0000.0001)                 7.484854821844795E+10,      /* I =152 */
(PID.TID 0000.0001)                 7.014205907742783E+10,      /* I =153 */
(PID.TID 0000.0001)                 6.488320895111514E+10,      /* I =154 */
(PID.TID 0000.0001)                 5.907428494299063E+10,      /* I =155 */
(PID.TID 0000.0001)                 5.269930713599078E+10,      /* I =156 */
(PID.TID 0000.0001)                 4.571243814190767E+10,      /* I =157 */
(PID.TID 0000.0001)                 3.801790263325260E+10,      /* I =158 */
(PID.TID 0000.0001)                 2.943712825251114E+10,      /* I =159 */
(PID.TID 0000.0001)                 1.974052138509018E+10,      /* I =160 */
(PID.TID 0000.0001)                 1.216690346714270E+10,      /* I =161 */
(PID.TID 0000.0001)                 1.974052138506315E+10,      /* I =162 */
(PID.TID 0000.0001)                 2.943712825252015E+10,      /* I =163 */
(PID.TID 0000.0001)                 3.801790263324359E+10,      /* I =164 */
(PID.TID 0000.0001)                 4.571243814189866E+10,      /* I =165 */
(PID.TID 0000.0001)                 5.269930713599979E+10,      /* I =166 */
(PID.TID 0000.0001)                 5.907428494299063E+10,      /* I =167 */
(PID.TID 0000.0001)                 6.488320895111514E+10,      /* I =168 */
(PID.TID 0000.0001)                 7.014205907741882E+10,      /* I =169 */
(PID.TID 0000.0001)                 7.484854821847499E+10,      /* I =170 */
(PID.TID 0000.0001)                 7.898934631431560E+10,      /* I =171 */
(PID.TID 0000.0001)                 8.254500894894537E+10,      /* I =172 */
(PID.TID 0000.0001)                 8.549360686473492E+10,      /* I =173 */
(PID.TID 0000.0001)                 8.781353403175085E+10,      /* I =174 */
(PID.TID 0000.0001)                 8.948571540392021E+10,      /* I =175 */
(PID.TID 0000.0001)                 9.049530583086168E+10,      /* I =176 */
(PID.TID 0000.0001)                 9.083293515008307E+10,      /* I =177 */
(PID.TID 0000.0001)                 9.049530583087070E+10,      /* I =178 */
(PID.TID 0000.0001)                 8.948571540391121E+10,      /* I =179 */
(PID.TID 0000.0001)                 8.781353403174185E+10,      /* I =180 */
(PID.TID 0000.0001)                 8.549360686467184E+10,      /* I =181 */
(PID.TID 0000.0001)                 8.254500894890933E+10,      /* I =182 */
(PID.TID 0000.0001)                 7.898934631434262E+10,      /* I =183 */
(PID.TID 0000.0001)                 7.484854821844795E+10,      /* I =184 */
(PID.TID 0000.0001)                 7.014205907742783E+10,      /* I =185 */
(PID.TID 0000.0001)                 6.488320895111514E+10,      /* I =186 */
(PID.TID 0000.0001)                 5.907428494299063E+10,      /* I =187 */
(PID.TID 0000.0001)                 5.269930713599078E+10,      /* I =188 */
(PID.TID 0000.0001)                 4.571243814190767E+10,      /* I =189 */
(PID.TID 0000.0001)                 3.801790263325260E+10,      /* I =190 */
(PID.TID 0000.0001)                 2.943712825251114E+10,      /* I =191 */
(PID.TID 0000.0001)                 1.974052138509018E+10       /* I =192 */
(PID.TID 0000.0001)     ;
(PID.TID 0000.0001) rAw =  /* rAw(1,:,1,:) ( units: m^2 ) */
(PID.TID 0000.0001)                 1.216690346714270E+10,      /* J =  1 */
(PID.TID 0000.0001)                 2.390126200743558E+10,      /* J =  2 */
(PID.TID 0000.0001)                 3.341968103208270E+10,      /* J =  3 */
(PID.TID 0000.0001)                 4.168532893152940E+10,      /* J =  4 */
(PID.TID 0000.0001)                 4.909074590409593E+10,      /* J =  5 */
(PID.TID 0000.0001)                 5.581203765722643E+10,      /* J =  6 */
(PID.TID 0000.0001)                 6.193257577506788E+10,      /* J =  7 */
(PID.TID 0000.0001)                 6.748840226738273E+10,      /* J =  8 */
(PID.TID 0000.0001)                 7.248875782324815E+10,      /* J =  9 */
(PID.TID 0000.0001)                 7.692702995909871E+10,      /* J = 10 */
(PID.TID 0000.0001)                 8.078743937057304E+10,      /* J = 11 */
(PID.TID 0000.0001)                 8.404959656062837E+10,      /* J = 12 */
(PID.TID 0000.0001)                 8.669186205742538E+10,      /* J = 13 */
(PID.TID 0000.0001)                 8.869393350723613E+10,      /* J = 14 */
(PID.TID 0000.0001)                 9.003884657168852E+10,      /* J = 15 */
(PID.TID 0000.0001)     2 @  9.071447638299399E+10,             /* J = 16: 17 */
(PID.TID 0000.0001)                 9.003884657168852E+10,      /* J = 18 */
(PID.TID 0000.0001)                 8.869393350723613E+10,      /* J = 19 */
(PID.TID 0000.0001)                 8.669186205742538E+10,      /* J = 20 */
(PID.TID 0000.0001)                 8.404959656062837E+10,      /* J = 21 */
(PID.TID 0000.0001)                 8.078743937057304E+10,      /* J = 22 */
(PID.TID 0000.0001)                 7.692702995909871E+10,      /* J = 23 */
(PID.TID 0000.0001)                 7.248875782324815E+10,      /* J = 24 */
(PID.TID 0000.0001)                 6.748840226738273E+10,      /* J = 25 */
(PID.TID 0000.0001)                 6.193257577506788E+10,      /* J = 26 */
(PID.TID 0000.0001)                 5.581203765722643E+10,      /* J = 27 */
(PID.TID 0000.0001)                 4.909074590409593E+10,      /* J = 28 */
(PID.TID 0000.0001)                 4.168532893152940E+10,      /* J = 29 */
(PID.TID 0000.0001)                 3.341968103208270E+10,      /* J = 30 */
(PID.TID 0000.0001)                 2.390126200743558E+10,      /* J = 31 */
(PID.TID 0000.0001)                 1.216690346714270E+10       /* J = 32 */
(PID.TID 0000.0001)     ;
(PID.TID 0000.0001) rAs =  /* rAs(:,1,:,1) ( units: m^2 ) */
(PID.TID 0000.0001)                 1.216690346714270E+10,      /* I =  1 */
(PID.TID 0000.0001)                 2.390126200743558E+10,      /* I =  2 */
(PID.TID 0000.0001)                 3.341968103208270E+10,      /* I =  3 */
(PID.TID 0000.0001)                 4.168532893152940E+10,      /* I =  4 */
(PID.TID 0000.0001)                 4.909074590409593E+10,      /* I =  5 */
(PID.TID 0000.0001)                 5.581203765722643E+10,      /* I =  6 */
(PID.TID 0000.0001)                 6.193257577506788E+10,      /* I =  7 */
(PID.TID 0000.0001)                 6.748840226738273E+10,      /* I =  8 */
(PID.TID 0000.0001)                 7.248875782324815E+10,      /* I =  9 */
(PID.TID 0000.0001)                 7.692702995909871E+10,      /* I = 10 */
(PID.TID 0000.0001)                 8.078743937057304E+10,      /* I = 11 */
(PID.TID 0000.0001)                 8.404959656062837E+10,      /* I = 12 */
(PID.TID 0000.0001)                 8.669186205742538E+10,      /* I = 13 */
(PID.TID 0000.0001)                 8.869393350723613E+10,      /* I = 14 */
(PID.TID 0000.0001)                 9.003884657168852E+10,      /* I = 15 */
(PID.TID 0000.0001)     2 @  9.071447638299399E+10,             /* I = 16: 17 */
(PID.TID 0000.0001)                 9.003884657168852E+10,      /* I = 18 */
(PID.TID 0000.0001)                 8.869393350723613E+10,      /* I = 19 */
(PID.TID 0000.0001)                 8.669186205742538E+10,      /* I = 20 */
(PID.TID 0000.0001)                 8.404959656062837E+10,      /* I = 21 */
(PID.TID 0000.0001)                 8.078743937057304E+10,      /* I = 22 */
(PID.TID 0000.0001)                 7.692702995909871E+10,      /* I = 23 */
(PID.TID 0000.0001)                 7.248875782324815E+10,      /* I = 24 */
(PID.TID 0000.0001)                 6.748840226738273E+10,      /* I = 25 */
(PID.TID 0000.0001)                 6.193257577506788E+10,      /* I = 26 */
(PID.TID 0000.0001)                 5.581203765722643E+10,      /* I = 27 */
(PID.TID 0000.0001)                 4.909074590409593E+10,      /* I = 28 */
(PID.TID 0000.0001)                 4.168532893152940E+10,      /* I = 29 */
(PID.TID 0000.0001)                 3.341968103208270E+10,      /* I = 30 */
(PID.TID 0000.0001)                 2.390126200743558E+10,      /* I = 31 */
(PID.TID 0000.0001)     2 @  1.216690346714270E+10,             /* I = 32: 33 */
(PID.TID 0000.0001)                 2.390126200743558E+10,      /* I = 34 */
(PID.TID 0000.0001)                 3.341968103208270E+10,      /* I = 35 */
(PID.TID 0000.0001)                 4.168532893152940E+10,      /* I = 36 */
(PID.TID 0000.0001)                 4.909074590409593E+10,      /* I = 37 */
(PID.TID 0000.0001)                 5.581203765722643E+10,      /* I = 38 */
(PID.TID 0000.0001)                 6.193257577506788E+10,      /* I = 39 */
(PID.TID 0000.0001)                 6.748840226738273E+10,      /* I = 40 */
(PID.TID 0000.0001)                 7.248875782324815E+10,      /* I = 41 */
(PID.TID 0000.0001)                 7.692702995909871E+10,      /* I = 42 */
(PID.TID 0000.0001)                 8.078743937057304E+10,      /* I = 43 */
(PID.TID 0000.0001)                 8.404959656062837E+10,      /* I = 44 */
(PID.TID 0000.0001)                 8.669186205742538E+10,      /* I = 45 */
(PID.TID 0000.0001)                 8.869393350723613E+10,      /* I = 46 */
(PID.TID 0000.0001)                 9.003884657168852E+10,      /* I = 47 */
(PID.TID 0000.0001)     2 @  9.071447638299399E+10,             /* I = 48: 49 */
(PID.TID 0000.0001)                 9.003884657168852E+10,      /* I = 50 */
(PID.TID 0000.0001)                 8.869393350723613E+10,      /* I = 51 */
(PID.TID 0000.0001)                 8.669186205742538E+10,      /* I = 52 */
(PID.TID 0000.0001)                 8.404959656062837E+10,      /* I = 53 */
(PID.TID 0000.0001)                 8.078743937057304E+10,      /* I = 54 */
(PID.TID 0000.0001)                 7.692702995909871E+10,      /* I = 55 */
(PID.TID 0000.0001)                 7.248875782324815E+10,      /* I = 56 */
(PID.TID 0000.0001)                 6.748840226738273E+10,      /* I = 57 */
(PID.TID 0000.0001)                 6.193257577506788E+10,      /* I = 58 */
(PID.TID 0000.0001)                 5.581203765722643E+10,      /* I = 59 */
(PID.TID 0000.0001)                 4.909074590409593E+10,      /* I = 60 */
(PID.TID 0000.0001)                 4.168532893152940E+10,      /* I = 61 */
(PID.TID 0000.0001)                 3.341968103208270E+10,      /* I = 62 */
(PID.TID 0000.0001)                 2.390126200743558E+10,      /* I = 63 */
(PID.TID 0000.0001)     2 @  1.216690346714270E+10,             /* I = 64: 65 */
(PID.TID 0000.0001)                 2.390126200743558E+10,      /* I = 66 */
(PID.TID 0000.0001)                 3.341968103208270E+10,      /* I = 67 */
(PID.TID 0000.0001)                 4.168532893152940E+10,      /* I = 68 */
(PID.TID 0000.0001)                 4.909074590409593E+10,      /* I = 69 */
(PID.TID 0000.0001)                 5.581203765722643E+10,      /* I = 70 */
(PID.TID 0000.0001)                 6.193257577506788E+10,      /* I = 71 */
(PID.TID 0000.0001)                 6.748840226738273E+10,      /* I = 72 */
(PID.TID 0000.0001)                 7.248875782324815E+10,      /* I = 73 */
(PID.TID 0000.0001)                 7.692702995909871E+10,      /* I = 74 */
(PID.TID 0000.0001)                 8.078743937057304E+10,      /* I = 75 */
(PID.TID 0000.0001)                 8.404959656062837E+10,      /* I = 76 */
(PID.TID 0000.0001)                 8.669186205742538E+10,      /* I = 77 */
(PID.TID 0000.0001)                 8.869393350723613E+10,      /* I = 78 */
(PID.TID 0000.0001)                 9.003884657168852E+10,      /* I = 79 */
(PID.TID 0000.0001)     2 @  9.071447638299399E+10,             /* I = 80: 81 */
(PID.TID 0000.0001)                 9.003884657168852E+10,      /* I = 82 */
(PID.TID 0000.0001)                 8.869393350723613E+10,      /* I = 83 */
(PID.TID 0000.0001)                 8.669186205742538E+10,      /* I = 84 */
(PID.TID 0000.0001)                 8.404959656062837E+10,      /* I = 85 */
(PID.TID 0000.0001)                 8.078743937057304E+10,      /* I = 86 */
(PID.TID 0000.0001)                 7.692702995909871E+10,      /* I = 87 */
(PID.TID 0000.0001)                 7.248875782324815E+10,      /* I = 88 */
(PID.TID 0000.0001)                 6.748840226738273E+10,      /* I = 89 */
(PID.TID 0000.0001)                 6.193257577506788E+10,      /* I = 90 */
(PID.TID 0000.0001)                 5.581203765722643E+10,      /* I = 91 */
(PID.TID 0000.0001)                 4.909074590409593E+10,      /* I = 92 */
(PID.TID 0000.0001)                 4.168532893152940E+10,      /* I = 93 */
(PID.TID 0000.0001)                 3.341968103208270E+10,      /* I = 94 */
(PID.TID 0000.0001)                 2.390126200743558E+10,      /* I = 95 */
(PID.TID 0000.0001)     2 @  1.216690346714270E+10,             /* I = 96: 97 */
(PID.TID 0000.0001)                 2.390126200743558E+10,      /* I = 98 */
(PID.TID 0000.0001)                 3.341968103208270E+10,      /* I = 99 */
(PID.TID 0000.0001)                 4.168532893152940E+10,      /* I =100 */
(PID.TID 0000.0001)                 4.909074590409593E+10,      /* I =101 */
(PID.TID 0000.0001)                 5.581203765722643E+10,      /* I =102 */
(PID.TID 0000.0001)                 6.193257577506788E+10,      /* I =103 */
(PID.TID 0000.0001)                 6.748840226738273E+10,      /* I =104 */
(PID.TID 0000.0001)                 7.248875782324815E+10,      /* I =105 */
(PID.TID 0000.0001)                 7.692702995909871E+10,      /* I =106 */
(PID.TID 0000.0001)                 8.078743937057304E+10,      /* I =107 */
(PID.TID 0000.0001)                 8.404959656062837E+10,      /* I =108 */
(PID.TID 0000.0001)                 8.669186205742538E+10,      /* I =109 */
(PID.TID 0000.0001)                 8.869393350723613E+10,      /* I =110 */
(PID.TID 0000.0001)                 9.003884657168852E+10,      /* I =111 */
(PID.TID 0000.0001)     2 @  9.071447638299399E+10,             /* I =112:113 */
(PID.TID 0000.0001)                 9.003884657168852E+10,      /* I =114 */
(PID.TID 0000.0001)                 8.869393350723613E+10,      /* I =115 */
(PID.TID 0000.0001)                 8.669186205742538E+10,      /* I =116 */
(PID.TID 0000.0001)                 8.404959656062837E+10,      /* I =117 */
(PID.TID 0000.0001)                 8.078743937057304E+10,      /* I =118 */
(PID.TID 0000.0001)                 7.692702995909871E+10,      /* I =119 */
(PID.TID 0000.0001)                 7.248875782324815E+10,      /* I =120 */
(PID.TID 0000.0001)                 6.748840226738273E+10,      /* I =121 */
(PID.TID 0000.0001)                 6.193257577506788E+10,      /* I =122 */
(PID.TID 0000.0001)                 5.581203765722643E+10,      /* I =123 */
(PID.TID 0000.0001)                 4.909074590409593E+10,      /* I =124 */
(PID.TID 0000.0001)                 4.168532893152940E+10,      /* I =125 */
(PID.TID 0000.0001)                 3.341968103208270E+10,      /* I =126 */
(PID.TID 0000.0001)                 2.390126200743558E+10,      /* I =127 */
(PID.TID 0000.0001)     2 @  1.216690346714270E+10,             /* I =128:129 */
(PID.TID 0000.0001)                 2.390126200743558E+10,      /* I =130 */
(PID.TID 0000.0001)                 3.341968103208270E+10,      /* I =131 */
(PID.TID 0000.0001)                 4.168532893152940E+10,      /* I =132 */
(PID.TID 0000.0001)                 4.909074590409593E+10,      /* I =133 */
(PID.TID 0000.0001)                 5.581203765722643E+10,      /* I =134 */
(PID.TID 0000.0001)                 6.193257577506788E+10,      /* I =135 */
(PID.TID 0000.0001)                 6.748840226738273E+10,      /* I =136 */
(PID.TID 0000.0001)                 7.248875782324815E+10,      /* I =137 */
(PID.TID 0000.0001)                 7.692702995909871E+10,      /* I =138 */
(PID.TID 0000.0001)                 8.078743937057304E+10,      /* I =139 */
(PID.TID 0000.0001)                 8.404959656062837E+10,      /* I =140 */
(PID.TID 0000.0001)                 8.669186205742538E+10,      /* I =141 */
(PID.TID 0000.0001)                 8.869393350723613E+10,      /* I =142 */
(PID.TID 0000.0001)                 9.003884657168852E+10,      /* I =143 */
(PID.TID 0000.0001)     2 @  9.071447638299399E+10,             /* I =144:145 */
(PID.TID 0000.0001)                 9.003884657168852E+10,      /* I =146 */
(PID.TID 0000.0001)                 8.869393350723613E+10,      /* I =147 */
(PID.TID 0000.0001)                 8.669186205742538E+10,      /* I =148 */
(PID.TID 0000.0001)                 8.404959656062837E+10,      /* I =149 */
(PID.TID 0000.0001)                 8.078743937057304E+10,      /* I =150 */
(PID.TID 0000.0001)                 7.692702995909871E+10,      /* I =151 */
(PID.TID 0000.0001)                 7.248875782324815E+10,      /* I =152 */
(PID.TID 0000.0001)                 6.748840226738273E+10,      /* I =153 */
(PID.TID 0000.0001)                 6.193257577506788E+10,      /* I =154 */
(PID.TID 0000.0001)                 5.581203765722643E+10,      /* I =155 */
(PID.TID 0000.0001)                 4.909074590409593E+10,      /* I =156 */
(PID.TID 0000.0001)                 4.168532893152940E+10,      /* I =157 */
(PID.TID 0000.0001)                 3.341968103208270E+10,      /* I =158 */
(PID.TID 0000.0001)                 2.390126200743558E+10,      /* I =159 */
(PID.TID 0000.0001)     2 @  1.216690346714270E+10,             /* I =160:161 */
(PID.TID 0000.0001)                 2.390126200743558E+10,      /* I =162 */
(PID.TID 0000.0001)                 3.341968103208270E+10,      /* I =163 */
(PID.TID 0000.0001)                 4.168532893152940E+10,      /* I =164 */
(PID.TID 0000.0001)                 4.909074590409593E+10,      /* I =165 */
(PID.TID 0000.0001)                 5.581203765722643E+10,      /* I =166 */
(PID.TID 0000.0001)                 6.193257577506788E+10,      /* I =167 */
(PID.TID 0000.0001)                 6.748840226738273E+10,      /* I =168 */
(PID.TID 0000.0001)                 7.248875782324815E+10,      /* I =169 */
(PID.TID 0000.0001)                 7.692702995909871E+10,      /* I =170 */
(PID.TID 0000.0001)                 8.078743937057304E+10,      /* I =171 */
(PID.TID 0000.0001)                 8.404959656062837E+10,      /* I =172 */
(PID.TID 0000.0001)                 8.669186205742538E+10,      /* I =173 */
(PID.TID 0000.0001)                 8.869393350723613E+10,      /* I =174 */
(PID.TID 0000.0001)                 9.003884657168852E+10,      /* I =175 */
(PID.TID 0000.0001)     2 @  9.071447638299399E+10,             /* I =176:177 */
(PID.TID 0000.0001)                 9.003884657168852E+10,      /* I =178 */
(PID.TID 0000.0001)                 8.869393350723613E+10,      /* I =179 */
(PID.TID 0000.0001)                 8.669186205742538E+10,      /* I =180 */
(PID.TID 0000.0001)                 8.404959656062837E+10,      /* I =181 */
(PID.TID 0000.0001)                 8.078743937057304E+10,      /* I =182 */
(PID.TID 0000.0001)                 7.692702995909871E+10,      /* I =183 */
(PID.TID 0000.0001)                 7.248875782324815E+10,      /* I =184 */
(PID.TID 0000.0001)                 6.748840226738273E+10,      /* I =185 */
(PID.TID 0000.0001)                 6.193257577506788E+10,      /* I =186 */
(PID.TID 0000.0001)                 5.581203765722643E+10,      /* I =187 */
(PID.TID 0000.0001)                 4.909074590409593E+10,      /* I =188 */
(PID.TID 0000.0001)                 4.168532893152940E+10,      /* I =189 */
(PID.TID 0000.0001)                 3.341968103208270E+10,      /* I =190 */
(PID.TID 0000.0001)                 2.390126200743558E+10,      /* I =191 */
(PID.TID 0000.0001)                 1.216690346714270E+10       /* I =192 */
(PID.TID 0000.0001)     ;
(PID.TID 0000.0001) rAs =  /* rAs(1,:,1,:) ( units: m^2 ) */
(PID.TID 0000.0001)                 1.216690346714270E+10,      /* J =  1 */
(PID.TID 0000.0001)                 1.974052138506315E+10,      /* J =  2 */
(PID.TID 0000.0001)                 2.943712825252015E+10,      /* J =  3 */
(PID.TID 0000.0001)                 3.801790263324359E+10,      /* J =  4 */
(PID.TID 0000.0001)                 4.571243814189866E+10,      /* J =  5 */
(PID.TID 0000.0001)                 5.269930713599979E+10,      /* J =  6 */
(PID.TID 0000.0001)                 5.907428494299063E+10,      /* J =  7 */
(PID.TID 0000.0001)                 6.488320895111514E+10,      /* J =  8 */
(PID.TID 0000.0001)                 7.014205907741882E+10,      /* J =  9 */
(PID.TID 0000.0001)                 7.484854821847499E+10,      /* J = 10 */
(PID.TID 0000.0001)                 7.898934631431560E+10,      /* J = 11 */
(PID.TID 0000.0001)                 8.254500894894537E+10,      /* J = 12 */
(PID.TID 0000.0001)                 8.549360686473492E+10,      /* J = 13 */
(PID.TID 0000.0001)                 8.781353403175085E+10,      /* J = 14 */
(PID.TID 0000.0001)                 8.948571540392021E+10,      /* J = 15 */
(PID.TID 0000.0001)                 9.049530583086168E+10,      /* J = 16 */
(PID.TID 0000.0001)                 9.083293515008307E+10,      /* J = 17 */
(PID.TID 0000.0001)                 9.049530583087070E+10,      /* J = 18 */
(PID.TID 0000.0001)                 8.948571540391121E+10,      /* J = 19 */
(PID.TID 0000.0001)                 8.781353403174185E+10,      /* J = 20 */
(PID.TID 0000.0001)                 8.549360686467184E+10,      /* J = 21 */
(PID.TID 0000.0001)                 8.254500894890933E+10,      /* J = 22 */
(PID.TID 0000.0001)                 7.898934631434262E+10,      /* J = 23 */
(PID.TID 0000.0001)                 7.484854821844795E+10,      /* J = 24 */
(PID.TID 0000.0001)                 7.014205907742783E+10,      /* J = 25 */
(PID.TID 0000.0001)                 6.488320895111514E+10,      /* J = 26 */
(PID.TID 0000.0001)                 5.907428494299063E+10,      /* J = 27 */
(PID.TID 0000.0001)                 5.269930713599078E+10,      /* J = 28 */
(PID.TID 0000.0001)                 4.571243814190767E+10,      /* J = 29 */
(PID.TID 0000.0001)                 3.801790263325260E+10,      /* J = 30 */
(PID.TID 0000.0001)                 2.943712825251114E+10,      /* J = 31 */
(PID.TID 0000.0001)                 1.974052138509018E+10       /* J = 32 */
(PID.TID 0000.0001)     ;
(PID.TID 0000.0001) globalArea = /* Integrated horizontal Area (m^2) */
(PID.TID 0000.0001)                 3.638867375081598E+14
(PID.TID 0000.0001)     ;
(PID.TID 0000.0001) // =======================================================
(PID.TID 0000.0001) // End of Model config. summary
(PID.TID 0000.0001) // =======================================================
(PID.TID 0000.0001) 
(PID.TID 0000.0001)  MDSREADFIELD: opening global file: pickup.0000036000
(PID.TID 0000.0001)  MDSREADFIELD: opening global file: pickup.0000036000
(PID.TID 0000.0001)  MDSREADFIELD: opening global file: pickup.0000036000
(PID.TID 0000.0001)  MDSREADFIELD: opening global file: pickup.0000036000
(PID.TID 0000.0001)  MDSREADFIELD: opening global file: pickup.0000036000
(PID.TID 0000.0001)  MDSREADFIELD: opening global file: pickup.0000036000
(PID.TID 0000.0001)  MDSREADFIELD: opening global file: pickup.0000036000
(PID.TID 0000.0001)  MDSREADFIELD: opening global file: pickup.0000036000
(PID.TID 0000.0001)  MDSREADFIELD: opening global file: pickup.0000036000
(PID.TID 0000.0001)  MDSREADFIELD: opening global file: pickup.0000036000
(PID.TID 0000.0001)  MDSREADFIELD: opening global file: pickup.0000036000
(PID.TID 0000.0001)  write diagnostics summary to file ioUnit:      6
Iter.Nb:     36000 ; Time(s):  3.1104000000000E+09
------------------------------------------------------------------------
2D/3D diagnostics: Number of lists:     3
------------------------------------------------------------------------
listId=   1 ; file name: surfDiag
 nFlds, nActive,       freq     &   phase        , nLev                 
  12  |  12  |1555200000.000000         0.000000 |   1
 levels:   1
 diag#| name   | ipt  | iMate| kLev| count | mate.C|                    
   23 |ETAN    |    1 |    0 |   1 |     0 |
   24 |ETANSQ  |    2 |    0 |   1 |     0 |
   25 |DETADT2 |    3 |    0 |   1 |     0 |
   67 |PHIBOT  |    4 |    0 |   1 |     0 |
   68 |PHIBOTSQ|    5 |    0 |   1 |     0 |
   71 |oceTAUX |    6 |    0 |   1 |     0 |
   72 |oceTAUY |    7 |    0 |   1 |     0 |
   84 |TFLUX   |    8 |    0 |   1 |     0 |
   85 |SFLUX   |    9 |    0 |   1 |     0 |
   79 |oceFreez|   10 |    0 |   1 |     0 |
   80 |TRELAX  |   11 |    0 |   1 |     0 |
   81 |SRELAX  |   12 |    0 |   1 |     0 |
------------------------------------------------------------------------
listId=   2 ; file name: dynDiag
 nFlds, nActive,       freq     &   phase        , nLev                 
  15  |  15  |1555200000.000000         0.000000 |  15
 levels:   1   2   3   4   5   6   7   8   9  10  11  12  13  14  15
 diag#| name   | ipt  | iMate| kLev| count | mate.C|                    
   30 |UVEL    |   13 |   28 |  15 |     0 |     0 |
   31 |VVEL    |   28 |   13 |  15 |     0 |     0 |
   32 |WVEL    |   43 |    0 |  15 |     0 |
   65 |PHIHYD  |   58 |    0 |  15 |     0 |
   44 |VVELMASS|   73 |   88 |  15 |     0 |     0 |
   43 |UVELMASS|   88 |   73 |  15 |     0 |     0 |
   38 |WVELSQ  |  103 |    0 |  15 |     0 |
   26 |THETA   |  118 |    0 |  15 |     0 |
   46 |UTHMASS |  133 |  148 |  15 |     0 |     0 |
   47 |VTHMASS |  148 |  133 |  15 |     0 |     0 |
   48 |WTHMASS |  163 |    0 |  15 |     0 |
   27 |SALT    |  178 |    0 |  15 |     0 |
   49 |USLTMASS|  193 |  208 |  15 |     0 |     0 |
   50 |VSLTMASS|  208 |  193 |  15 |     0 |     0 |
   51 |WSLTMASS|  223 |    0 |  15 |     0 |
------------------------------------------------------------------------
listId=   3 ; file name: thSIceDiag
 nFlds, nActive,       freq     &   phase        , nLev                 
  16  |  16  |1555200000.000000         0.000000 |   1
 levels:   1
 diag#| name   | ipt  | iMate| kLev| count | mate.C|                    
  181 |SI_Fract|  238 |    0 |   1 |    0(x12) |
  182 |SI_Thick|  250 |  238 |   1 |    0(x12) |
  183 |SI_SnowH|  262 |  238 |   1 |    0(x12) |
  184 |SI_Tsrf |  274 |  238 |   1 |    0(x12) |
  185 |SI_Tice1|  286 |  238 |   1 |    0(x12) |
  186 |SI_Tice2|  298 |  238 |   1 |    0(x12) |
  187 |SI_Qice1|  310 |  250 |   1 |    0(x12) |
  188 |SI_Qice2|  322 |  250 |   1 |    0(x12) |
  190 |SIsnwAge|  334 |    0 |   1 |    0(x12) |
  191 |SIsnwPrc|  346 |  238 |   1 |    0(x12) |
  189 |SIalbedo|  358 |  238 |   1 |    0(x12) |
  194 |SIflx2oc|  370 |    0 |   1 |    0(x12) |
  195 |SIfrw2oc|  382 |    0 |   1 |    0(x12) |
  196 |SIsaltFx|  394 |    0 |   1 |    0(x12) |
  192 |SIflxAtm|  406 |    0 |   1 |    0(x12) |
  193 |SIfrwAtm|  418 |    0 |   1 |    0(x12) |
------------------------------------------------------------------------
Global & Regional Statistics diagnostics: Number of lists:     2
------------------------------------------------------------------------
listId=   1 ; file name: dynStDiag
 nFlds, nActive,       freq     &   phase        |                      
   8  |   8  |    864000.000000         0.000000 |
 Regions:   0
 diag#| name   | ipt  | iMate|    Volume   |   mate-Vol. |              
   23 |ETAN    |    1 |    0 | 0.00000E+00 |
   30 |UVEL    |    2 |    0 | 0.00000E+00 |
   31 |VVEL    |   17 |    0 | 0.00000E+00 |
   32 |WVEL    |   32 |    0 | 0.00000E+00 |
   26 |THETA   |   47 |    0 | 0.00000E+00 |
   27 |SALT    |   62 |    0 | 0.00000E+00 |
   70 |CONVADJ |   77 |    0 | 0.00000E+00 |
   25 |DETADT2 |   92 |    0 | 0.00000E+00 |
------------------------------------------------------------------------
listId=   2 ; file name: thSIceStDiag
 nFlds, nActive,       freq     &   phase        |                      
  16  |  16  |    864000.000000         0.000000 |
 Regions:   0  1  3
 diag#| name   | ipt  | iMate|    Volume   |   mate-Vol. |              
  181 |SI_Fract|   93 |    0 | 0.00000E+00 |
  182 |SI_Thick|   94 |   93 | 0.00000E+00 | 0.00000E+00 |
  183 |SI_SnowH|   95 |   93 | 0.00000E+00 | 0.00000E+00 |
  184 |SI_Tsrf |   96 |   93 | 0.00000E+00 | 0.00000E+00 |
  185 |SI_Tice1|   97 |   93 | 0.00000E+00 | 0.00000E+00 |
  186 |SI_Tice2|   98 |   93 | 0.00000E+00 | 0.00000E+00 |
  187 |SI_Qice1|   99 |   94 | 0.00000E+00 | 0.00000E+00 |
  188 |SI_Qice2|  100 |   94 | 0.00000E+00 | 0.00000E+00 |
  191 |SIsnwPrc|  101 |   93 | 0.00000E+00 | 0.00000E+00 |
  189 |SIalbedo|  102 |   93 | 0.00000E+00 | 0.00000E+00 |
  190 |SIsnwAge|  103 |    0 | 0.00000E+00 |
  194 |SIflx2oc|  104 |    0 | 0.00000E+00 |
  195 |SIfrw2oc|  105 |    0 | 0.00000E+00 |
  196 |SIsaltFx|  106 |    0 | 0.00000E+00 |
  192 |SIflxAtm|  107 |    0 | 0.00000E+00 |
  193 |SIfrwAtm|  108 |    0 | 0.00000E+00 |
------------------------------------------------------------------------
(PID.TID 0000.0001)  MDSREADFIELD: opening global file: trenberth_taux.bin
(PID.TID 0000.0001)  MDSREADFIELD: opening global file: trenberth_tauy.bin
(PID.TID 0000.0001)  MDSREADFIELD: opening global file: lev_surfT_cs_12m.bin
(PID.TID 0000.0001)  MDSREADFIELD: opening global file: lev_surfS_cs_12m.bin
(PID.TID 0000.0001)  MDSREADFIELD: opening global file: pickup_ic.0000036000
(PID.TID 0000.0001)  MDSREADFIELD: opening global file: pickup_ic.0000036000
(PID.TID 0000.0001)  MDSREADFIELD: opening global file: pickup_ic.0000036000
(PID.TID 0000.0001)  MDSREADFIELD: opening global file: pickup_ic.0000036000
(PID.TID 0000.0001)  MDSREADFIELD: opening global file: pickup_ic.0000036000
(PID.TID 0000.0001)  MDSREADFIELD: opening global file: pickup_ic.0000036000
(PID.TID 0000.0001)  MDSREADFIELD: opening global file: pickup_ic.0000036000
(PID.TID 0000.0001)  MDSREADFIELD: opening global file: pickup_ic.0000036000
(PID.TID 0000.0001)  MDSREADFIELD: opening global file: pickup_ic.0000036000
(PID.TID 0000.0001) // =======================================================
(PID.TID 0000.0001) // Model current state
(PID.TID 0000.0001) // =======================================================
(PID.TID 0000.0001) 
(PID.TID 0000.0001) // =======================================================
(PID.TID 0000.0001) // Begin MONITOR dynamic field statistics
(PID.TID 0000.0001) // =======================================================
(PID.TID 0000.0001) %MON time_tsnumber                =                 36000
(PID.TID 0000.0001) %MON time_secondsf                =   3.1104000000000E+09
(PID.TID 0000.0001) %MON dynstat_eta_max              =   7.3500434503471E-01
(PID.TID 0000.0001) %MON dynstat_eta_min              =  -1.1986891348601E+01
(PID.TID 0000.0001) %MON dynstat_eta_mean             =  -5.8045564487853E-01
(PID.TID 0000.0001) %MON dynstat_eta_sd               =   1.6994311255501E+00
(PID.TID 0000.0001) %MON dynstat_eta_del2             =   9.6453306471101E-02
(PID.TID 0000.0001) %MON dynstat_uvel_max             =   1.7235154042170E-01
(PID.TID 0000.0001) %MON dynstat_uvel_min             =  -2.7145887709522E-01
(PID.TID 0000.0001) %MON dynstat_uvel_mean            =  -5.2887824837157E-04
(PID.TID 0000.0001) %MON dynstat_uvel_sd              =   1.2989468965472E-02
(PID.TID 0000.0001) %MON dynstat_uvel_del2            =   1.7920186340225E-03
(PID.TID 0000.0001) %MON dynstat_vvel_max             =   1.9306786753954E-01
(PID.TID 0000.0001) %MON dynstat_vvel_min             =  -2.1050631286072E-01
(PID.TID 0000.0001) %MON dynstat_vvel_mean            =  -4.2470116939793E-04
(PID.TID 0000.0001) %MON dynstat_vvel_sd              =   1.3472945317820E-02
(PID.TID 0000.0001) %MON dynstat_vvel_del2            =   1.8319026986974E-03
(PID.TID 0000.0001) %MON dynstat_wvel_max             =   8.3888727589247E-05
(PID.TID 0000.0001) %MON dynstat_wvel_min             =  -1.7681850941337E-04
(PID.TID 0000.0001) %MON dynstat_wvel_mean            =  -1.2631701181818E-09
(PID.TID 0000.0001) %MON dynstat_wvel_sd              =   4.6274614748344E-06
(PID.TID 0000.0001) %MON dynstat_wvel_del2            =   1.1378775396729E-06
(PID.TID 0000.0001) %MON dynstat_theta_max            =   3.0162021109834E+01
(PID.TID 0000.0001) %MON dynstat_theta_min            =  -5.5087736803077E+00
(PID.TID 0000.0001) %MON dynstat_theta_mean           =   3.5027154873320E+00
(PID.TID 0000.0001) %MON dynstat_theta_sd             =   4.7490175075967E+00
(PID.TID 0000.0001) %MON dynstat_theta_del2           =   9.5106365389722E-02
(PID.TID 0000.0001) %MON dynstat_salt_max             =   4.0815425249776E+01
(PID.TID 0000.0001) %MON dynstat_salt_min             =   1.8030178312691E+01
(PID.TID 0000.0001) %MON dynstat_salt_mean            =   3.4756092396968E+01
(PID.TID 0000.0001) %MON dynstat_salt_sd              =   5.1193688315107E-01
(PID.TID 0000.0001) %MON dynstat_salt_del2            =   2.0020089713970E-02
(PID.TID 0000.0001) %MON extforcing_qnet_max          =   0.0000000000000E+00
(PID.TID 0000.0001) %MON extforcing_qnet_min          =   0.0000000000000E+00
(PID.TID 0000.0001) %MON extforcing_qnet_mean         =   0.0000000000000E+00
(PID.TID 0000.0001) %MON extforcing_qnet_sd           =   0.0000000000000E+00
(PID.TID 0000.0001) %MON extforcing_qnet_del2         =   0.0000000000000E+00
(PID.TID 0000.0001) %MON extforcing_qsw_max           =   0.0000000000000E+00
(PID.TID 0000.0001) %MON extforcing_qsw_min           =   0.0000000000000E+00
(PID.TID 0000.0001) %MON extforcing_qsw_mean          =   0.0000000000000E+00
(PID.TID 0000.0001) %MON extforcing_qsw_sd            =   0.0000000000000E+00
(PID.TID 0000.0001) %MON extforcing_qsw_del2          =   0.0000000000000E+00
(PID.TID 0000.0001) %MON extforcing_empmr_max         =   0.0000000000000E+00
(PID.TID 0000.0001) %MON extforcing_empmr_min         =   0.0000000000000E+00
(PID.TID 0000.0001) %MON extforcing_empmr_mean        =   0.0000000000000E+00
(PID.TID 0000.0001) %MON extforcing_empmr_sd          =   0.0000000000000E+00
(PID.TID 0000.0001) %MON extforcing_empmr_del2        =   0.0000000000000E+00
(PID.TID 0000.0001) %MON extforcing_fu_max            =   2.4892781143428E-01
(PID.TID 0000.0001) %MON extforcing_fu_min            =  -2.1535754027523E-01
(PID.TID 0000.0001) %MON extforcing_fu_mean           =  -1.5044401616678E-03
(PID.TID 0000.0001) %MON extforcing_fu_sd             =   6.2251894339929E-02
(PID.TID 0000.0001) %MON extforcing_fu_del2           =   4.9965835202135E-03
(PID.TID 0000.0001) %MON extforcing_fv_max            =   2.9305960402537E-01
(PID.TID 0000.0001) %MON extforcing_fv_min            =  -3.3950131228473E-01
(PID.TID 0000.0001) %MON extforcing_fv_mean           =  -5.6789986032871E-03
(PID.TID 0000.0001) %MON extforcing_fv_sd             =   7.0480050409315E-02
(PID.TID 0000.0001) %MON extforcing_fv_del2           =   4.8186630840511E-03
(PID.TID 0000.0001) %MON advcfl_uvel_max              =   7.6990886762546E-02
(PID.TID 0000.0001) %MON advcfl_vvel_max              =   8.4155563479013E-02
(PID.TID 0000.0001) %MON advcfl_wvel_max              =   5.7649506465342E-02
(PID.TID 0000.0001) %MON advcfl_W_hf_max              =   1.3178433447991E-01
(PID.TID 0000.0001) %MON pe_b_mean                    =   4.2969665467446E-03
(PID.TID 0000.0001) %MON ke_max                       =   3.6920742855791E-02
(PID.TID 0000.0001) %MON ke_mean                      =   1.6194090277160E-04
(PID.TID 0000.0001) %MON ke_vol                       =   1.3395912415612E+18
(PID.TID 0000.0001) %MON vort_r_min                   =  -1.2103928619458E-06
(PID.TID 0000.0001) %MON vort_r_max                   =   1.3658356323918E-06
(PID.TID 0000.0001) %MON vort_a_mean                  =  -2.0493733748264E-05
(PID.TID 0000.0001) %MON vort_a_sd                    =   7.5054014221264E-05
(PID.TID 0000.0001) %MON vort_p_mean                  =  -2.4719485005016E-05
(PID.TID 0000.0001) %MON vort_p_sd                    =   1.2782267184684E-04
(PID.TID 0000.0001) %MON surfExpan_theta_mean         =   8.4664546923379E-08
(PID.TID 0000.0001) %MON surfExpan_salt_mean          =   2.0573162615946E-08
(PID.TID 0000.0001) // =======================================================
(PID.TID 0000.0001) // End MONITOR dynamic field statistics
(PID.TID 0000.0001) // =======================================================
(PID.TID 0000.0001) // =======================================================
(PID.TID 0000.0001) // Begin MONITOR Therm.SeaIce statistics
(PID.TID 0000.0001) // =======================================================
(PID.TID 0000.0001) %MON thSI_time_sec                =   3.1104000000000E+09
(PID.TID 0000.0001) %MON thSI_Ice_Area_G              =   2.4716044426698E+13
(PID.TID 0000.0001) %MON thSI_Ice_Area_S              =   1.2123515471256E+13
(PID.TID 0000.0001) %MON thSI_Ice_Area_N              =   1.2592528955442E+13
(PID.TID 0000.0001) %MON thSI_IceH_ave_G              =   4.5665991101486E+00
(PID.TID 0000.0001) %MON thSI_IceH_ave_S              =   5.6548113929333E+00
(PID.TID 0000.0001) %MON thSI_IceH_ave_N              =   3.5189177037341E+00
(PID.TID 0000.0001) %MON thSI_IceH_max_S              =   1.0000000000000E+01
(PID.TID 0000.0001) %MON thSI_IceH_max_N              =   1.0000000000000E+01
(PID.TID 0000.0001) %MON thSI_SnwH_ave_G              =   1.0642325960795E+00
(PID.TID 0000.0001) %MON thSI_SnwH_ave_S              =   1.8039252994821E+00
(PID.TID 0000.0001) %MON thSI_SnwH_ave_N              =   3.5209002603598E-01
(PID.TID 0000.0001) %MON thSI_SnwH_max_S              =   4.0920173287519E+00
(PID.TID 0000.0001) %MON thSI_SnwH_max_N              =   4.0933581672150E+00
(PID.TID 0000.0001) %MON thSI_TotEnerg_G              =  -3.7927617991529E+22
(PID.TID 0000.0001) %MON thSI_Tsrf_ave_G              =  -1.6644740861567E+01
(PID.TID 0000.0001) %MON thSI_Tsrf_ave_S              =  -1.2271804409750E-01
(PID.TID 0000.0001) %MON thSI_Tsrf_ave_N              =  -3.2551394715834E+01
(PID.TID 0000.0001) %MON thSI_Tsrf_min_S              =  -5.2879155123950E+00
(PID.TID 0000.0001) %MON thSI_Tsrf_min_N              =  -4.6099403861095E+01
(PID.TID 0000.0001) %MON thSI_Tsrf_max_S              =   0.0000000000000E+00
(PID.TID 0000.0001) %MON thSI_Tsrf_max_N              =  -1.7223298637424E+00
(PID.TID 0000.0001) %MON thSI_Tic1_ave_G              =  -8.3503593345479E+00
(PID.TID 0000.0001) %MON thSI_Tic1_ave_S              =  -5.1859254669298E+00
(PID.TID 0000.0001) %MON thSI_Tic1_ave_N              =  -1.3246125323351E+01
(PID.TID 0000.0001) %MON thSI_Tic1_min_S              =  -1.7372153208148E+01
(PID.TID 0000.0001) %MON thSI_Tic1_min_N              =  -2.0584120855350E+01
(PID.TID 0000.0001) %MON thSI_Tic1_max_S              =  -1.5363024655854E-01
(PID.TID 0000.0001) %MON thSI_Tic1_max_N              =  -5.8630083767312E-01
(PID.TID 0000.0001) %MON thSI_Tic2_ave_G              =  -3.7701031784537E+00
(PID.TID 0000.0001) %MON thSI_Tic2_ave_S              =  -3.1173552909385E+00
(PID.TID 0000.0001) %MON thSI_Tic2_ave_N              =  -4.7799839472262E+00
(PID.TID 0000.0001) %MON thSI_Tic2_min_S              =  -8.8326933331569E+00
(PID.TID 0000.0001) %MON thSI_Tic2_min_N              =  -7.3985906582730E+00
(PID.TID 0000.0001) %MON thSI_Tic2_max_S              =  -1.1778332319913E+00
(PID.TID 0000.0001) %MON thSI_Tic2_max_N              =  -1.1561961802541E+00
(PID.TID 0000.0001) // =======================================================
(PID.TID 0000.0001) // End MONITOR Therm.SeaIce statistics
(PID.TID 0000.0001) // =======================================================
S/R BULKF_FIELDS_LOAD: Reading new data:   12    1     36000  3.110400000000E+09
(PID.TID 0000.0001)  MDSREADFIELD: opening global file: ncep_tair_cs.bin
(PID.TID 0000.0001)  MDSREADFIELD: opening global file: ncep_tair_cs.bin
(PID.TID 0000.0001)  MDSREADFIELD: opening global file: ncep_qair_cs.bin
(PID.TID 0000.0001)  MDSREADFIELD: opening global file: ncep_qair_cs.bin
(PID.TID 0000.0001)  MDSREADFIELD: opening global file: ncep_downsolar_cs.bin
(PID.TID 0000.0001)  MDSREADFIELD: opening global file: ncep_downsolar_cs.bin
(PID.TID 0000.0001)  MDSREADFIELD: opening global file: ncep_downlw_cs.bin
(PID.TID 0000.0001)  MDSREADFIELD: opening global file: ncep_downlw_cs.bin
(PID.TID 0000.0001)  MDSREADFIELD: opening global file: ncep_windspeed_cs.bin
(PID.TID 0000.0001)  MDSREADFIELD: opening global file: ncep_windspeed_cs.bin
(PID.TID 0000.0001)  MDSREADFIELD: opening global file: ncep_pr_scal_cs.bin
(PID.TID 0000.0001)  MDSREADFIELD: opening global file: ncep_pr_scal_cs.bin
S/R EXTERNAL_FIELDS_LOAD: Reading new data:   12    1     36000  3.110400000000E+09
(PID.TID 0000.0001)  MDSREADFIELD: opening global file: trenberth_taux.bin
(PID.TID 0000.0001)  MDSREADFIELD: opening global file: trenberth_taux.bin
(PID.TID 0000.0001)  MDSREADFIELD: opening global file: trenberth_tauy.bin
(PID.TID 0000.0001)  MDSREADFIELD: opening global file: trenberth_tauy.bin
(PID.TID 0000.0001)  MDSREADFIELD: opening global file: lev_surfT_cs_12m.bin
(PID.TID 0000.0001)  MDSREADFIELD: opening global file: lev_surfT_cs_12m.bin
(PID.TID 0000.0001)  MDSREADFIELD: opening global file: lev_surfS_cs_12m.bin
(PID.TID 0000.0001)  MDSREADFIELD: opening global file: lev_surfS_cs_12m.bin
 cg2d: Sum(rhs),rhsMax =   3.90289325938286E+02  2.29381049687594E+02
(PID.TID 0000.0001)                    cg2d_init_res =    2.72226824003653E+00
(PID.TID 0000.0001)                       cg2d_iters =    70
(PID.TID 0000.0001)                         cg2d_res =    5.23489116409268E-07
(PID.TID 0000.0001) // =======================================================
(PID.TID 0000.0001) // Begin MONITOR dynamic field statistics
(PID.TID 0000.0001) // =======================================================
(PID.TID 0000.0001) %MON time_tsnumber                =                 36001
(PID.TID 0000.0001) %MON time_secondsf                =   3.1104864000000E+09
(PID.TID 0000.0001) %MON dynstat_eta_max              =   7.3364164879859E-01
(PID.TID 0000.0001) %MON dynstat_eta_min              =  -1.1985262839272E+01
(PID.TID 0000.0001) %MON dynstat_eta_mean             =  -5.8049410898974E-01
(PID.TID 0000.0001) %MON dynstat_eta_sd               =   1.6988083963297E+00
(PID.TID 0000.0001) %MON dynstat_eta_del2             =   9.6452590000758E-02
(PID.TID 0000.0001) %MON dynstat_uvel_max             =   1.7283785322873E-01
(PID.TID 0000.0001) %MON dynstat_uvel_min             =  -2.7114247823162E-01
(PID.TID 0000.0001) %MON dynstat_uvel_mean            =  -5.2855026675769E-04
(PID.TID 0000.0001) %MON dynstat_uvel_sd              =   1.2989432141127E-02
(PID.TID 0000.0001) %MON dynstat_uvel_del2            =   1.7920769731559E-03
(PID.TID 0000.0001) %MON dynstat_vvel_max             =   1.9354675233826E-01
(PID.TID 0000.0001) %MON dynstat_vvel_min             =  -2.1061392972789E-01
(PID.TID 0000.0001) %MON dynstat_vvel_mean            =  -4.2479013027779E-04
(PID.TID 0000.0001) %MON dynstat_vvel_sd              =   1.3474904197754E-02
(PID.TID 0000.0001) %MON dynstat_vvel_del2            =   1.8307943717889E-03
(PID.TID 0000.0001) %MON dynstat_wvel_max             =   8.3873825771363E-05
(PID.TID 0000.0001) %MON dynstat_wvel_min             =  -1.7706104088122E-04
(PID.TID 0000.0001) %MON dynstat_wvel_mean            =  -1.1123915672728E-09
(PID.TID 0000.0001) %MON dynstat_wvel_sd              =   4.6270069344646E-06
(PID.TID 0000.0001) %MON dynstat_wvel_del2            =   1.1368855083104E-06
(PID.TID 0000.0001) %MON dynstat_theta_max            =   3.0146913789449E+01
(PID.TID 0000.0001) %MON dynstat_theta_min            =  -5.5027137017355E+00
(PID.TID 0000.0001) %MON dynstat_theta_mean           =   3.5027708413056E+00
(PID.TID 0000.0001) %MON dynstat_theta_sd             =   4.7490710016378E+00
(PID.TID 0000.0001) %MON dynstat_theta_del2           =   9.5258934667259E-02
(PID.TID 0000.0001) %MON dynstat_salt_max             =   4.0818099758811E+01
(PID.TID 0000.0001) %MON dynstat_salt_min             =   1.8030808752363E+01
(PID.TID 0000.0001) %MON dynstat_salt_mean            =   3.4756093444270E+01
(PID.TID 0000.0001) %MON dynstat_salt_sd              =   5.1192753002860E-01
(PID.TID 0000.0001) %MON dynstat_salt_del2            =   2.0043601737515E-02
(PID.TID 0000.0001) %MON extforcing_qnet_max          =   7.7549616936275E+02
(PID.TID 0000.0001) %MON extforcing_qnet_min          =  -2.4069156055538E+02
(PID.TID 0000.0001) %MON extforcing_qnet_mean         =  -4.4721104550911E+00
(PID.TID 0000.0001) %MON extforcing_qnet_sd           =   1.2156430563105E+02
(PID.TID 0000.0001) %MON extforcing_qnet_del2         =   1.2206400577027E+01
(PID.TID 0000.0001) %MON extforcing_qsw_max           =   0.0000000000000E+00
(PID.TID 0000.0001) %MON extforcing_qsw_min           =   0.0000000000000E+00
(PID.TID 0000.0001) %MON extforcing_qsw_mean          =   0.0000000000000E+00
(PID.TID 0000.0001) %MON extforcing_qsw_sd            =   0.0000000000000E+00
(PID.TID 0000.0001) %MON extforcing_qsw_del2          =   0.0000000000000E+00
(PID.TID 0000.0001) %MON extforcing_empmr_max         =   9.4768243132575E-07
(PID.TID 0000.0001) %MON extforcing_empmr_min         =  -4.0448513424106E-07
(PID.TID 0000.0001) %MON extforcing_empmr_mean        =   4.6076799885593E-10
(PID.TID 0000.0001) %MON extforcing_empmr_sd          =   5.9444449466385E-08
(PID.TID 0000.0001) %MON extforcing_empmr_del2        =   9.2366607943261E-09
(PID.TID 0000.0001) %MON extforcing_fu_max            =   2.4760613571392E-01
(PID.TID 0000.0001) %MON extforcing_fu_min            =  -1.9244755495625E-01
(PID.TID 0000.0001) %MON extforcing_fu_mean           =  -1.4713067633654E-03
(PID.TID 0000.0001) %MON extforcing_fu_sd             =   6.1390754177136E-02
(PID.TID 0000.0001) %MON extforcing_fu_del2           =   3.3540311124505E-03
(PID.TID 0000.0001) %MON extforcing_fv_max            =   2.5281098043587E-01
(PID.TID 0000.0001) %MON extforcing_fv_min            =  -3.2691992401999E-01
(PID.TID 0000.0001) %MON extforcing_fv_mean           =  -4.7616642545506E-03
(PID.TID 0000.0001) %MON extforcing_fv_sd             =   6.7215108136440E-02
(PID.TID 0000.0001) %MON extforcing_fv_del2           =   3.3046708266940E-03
(PID.TID 0000.0001) %MON advcfl_uvel_max              =   7.6901150043157E-02
(PID.TID 0000.0001) %MON advcfl_vvel_max              =   8.4364302616145E-02
(PID.TID 0000.0001) %MON advcfl_wvel_max              =   5.7728580875990E-02
(PID.TID 0000.0001) %MON advcfl_W_hf_max              =   1.3123583025944E-01
(PID.TID 0000.0001) %MON pe_b_mean                    =  -1.9133641844718E-03
(PID.TID 0000.0001) %MON ke_max                       =   3.6816950973246E-02
(PID.TID 0000.0001) %MON ke_mean                      =   1.6196482659883E-04
(PID.TID 0000.0001) %MON ke_vol                       =   1.3395912252519E+18
(PID.TID 0000.0001) %MON vort_r_min                   =  -1.2135055973192E-06
(PID.TID 0000.0001) %MON vort_r_max                   =   1.3680147941269E-06
(PID.TID 0000.0001) %MON vort_a_mean                  =  -2.0493733748264E-05
(PID.TID 0000.0001) %MON vort_a_sd                    =   7.5054014056508E-05
(PID.TID 0000.0001) %MON vort_p_mean                  =  -2.4719484734269E-05
(PID.TID 0000.0001) %MON vort_p_sd                    =   1.2782267838298E-04
(PID.TID 0000.0001) %MON surfExpan_theta_mean         =   8.2657406153308E-08
(PID.TID 0000.0001) %MON surfExpan_salt_mean          =   1.8729880161429E-08
(PID.TID 0000.0001) // =======================================================
(PID.TID 0000.0001) // End MONITOR dynamic field statistics
(PID.TID 0000.0001) // =======================================================
(PID.TID 0000.0001) // =======================================================
(PID.TID 0000.0001) // Begin MONITOR Therm.SeaIce statistics
(PID.TID 0000.0001) // =======================================================
(PID.TID 0000.0001) %MON thSI_time_sec                =   3.1104864000000E+09
(PID.TID 0000.0001) %MON thSI_Ice_Area_G              =   2.4728883099595E+13
(PID.TID 0000.0001) %MON thSI_Ice_Area_S              =   1.2065961868429E+13
(PID.TID 0000.0001) %MON thSI_Ice_Area_N              =   1.2662921231167E+13
(PID.TID 0000.0001) %MON thSI_IceH_ave_G              =   4.5654407614691E+00
(PID.TID 0000.0001) %MON thSI_IceH_ave_S              =   5.6742582922090E+00
(PID.TID 0000.0001) %MON thSI_IceH_ave_N              =   3.5088954508955E+00
(PID.TID 0000.0001) %MON thSI_IceH_max_S              =   1.0000000000000E+01
(PID.TID 0000.0001) %MON thSI_IceH_max_N              =   1.0000000000000E+01
(PID.TID 0000.0001) %MON thSI_SnwH_ave_G              =   1.0588371685031E+00
(PID.TID 0000.0001) %MON thSI_SnwH_ave_S              =   1.7996814543254E+00
(PID.TID 0000.0001) %MON thSI_SnwH_ave_N              =   3.5291799393107E-01
(PID.TID 0000.0001) %MON thSI_SnwH_max_S              =   4.0920142046519E+00
(PID.TID 0000.0001) %MON thSI_SnwH_max_N              =   4.0933709551204E+00
(PID.TID 0000.0001) %MON thSI_TotEnerg_G              =  -3.7928505610144E+22
(PID.TID 0000.0001) %MON thSI_Tsrf_ave_G              =  -1.6732848320405E+01
(PID.TID 0000.0001) %MON thSI_Tsrf_ave_S              =  -1.0597900522313E-01
(PID.TID 0000.0001) %MON thSI_Tsrf_ave_N              =  -3.2575888602023E+01
(PID.TID 0000.0001) %MON thSI_Tsrf_min_S              =  -5.3043441467213E+00
(PID.TID 0000.0001) %MON thSI_Tsrf_min_N              =  -4.6213990021686E+01
(PID.TID 0000.0001) %MON thSI_Tsrf_max_S              =   0.0000000000000E+00
(PID.TID 0000.0001) %MON thSI_Tsrf_max_N              =  -6.7474323125520E+00
(PID.TID 0000.0001) %MON thSI_Tic1_ave_G              =  -8.3787022045759E+00
(PID.TID 0000.0001) %MON thSI_Tic1_ave_S              =  -5.1656406927223E+00
(PID.TID 0000.0001) %MON thSI_Tic1_ave_N              =  -1.3329620458183E+01
(PID.TID 0000.0001) %MON thSI_Tic1_min_S              =  -1.7216897768510E+01
(PID.TID 0000.0001) %MON thSI_Tic1_min_N              =  -2.0666395739877E+01
(PID.TID 0000.0001) %MON thSI_Tic1_max_S              =  -2.1831092533945E-01
(PID.TID 0000.0001) %MON thSI_Tic1_max_N              =  -5.9497842414135E-01
(PID.TID 0000.0001) %MON thSI_Tic2_ave_G              =  -3.7829629711607E+00
(PID.TID 0000.0001) %MON thSI_Tic2_ave_S              =  -3.1140487668830E+00
(PID.TID 0000.0001) %MON thSI_Tic2_ave_N              =  -4.8136745002859E+00
(PID.TID 0000.0001) %MON thSI_Tic2_min_S              =  -8.8094598422842E+00
(PID.TID 0000.0001) %MON thSI_Tic2_min_N              =  -7.4380986141887E+00
(PID.TID 0000.0001) %MON thSI_Tic2_max_S              =  -1.1539915958877E+00
(PID.TID 0000.0001) %MON thSI_Tic2_max_N              =  -1.1753502729289E+00
(PID.TID 0000.0001) // =======================================================
(PID.TID 0000.0001) // End MONITOR Therm.SeaIce statistics
(PID.TID 0000.0001) // =======================================================
 cg2d: Sum(rhs),rhsMax =   3.90298796408743E+02  2.29444544707321E+02
(PID.TID 0000.0001)                    cg2d_init_res =    2.71308605027915E+00
(PID.TID 0000.0001)                       cg2d_iters =    70
(PID.TID 0000.0001)                         cg2d_res =    4.90256327973350E-07
(PID.TID 0000.0001) // =======================================================
(PID.TID 0000.0001) // Begin MONITOR dynamic field statistics
(PID.TID 0000.0001) // =======================================================
(PID.TID 0000.0001) %MON time_tsnumber                =                 36002
(PID.TID 0000.0001) %MON time_secondsf                =   3.1105728000000E+09
(PID.TID 0000.0001) %MON dynstat_eta_max              =   7.3228517042750E-01
(PID.TID 0000.0001) %MON dynstat_eta_min              =  -1.1983690939175E+01
(PID.TID 0000.0001) %MON dynstat_eta_mean             =  -5.8050819482798E-01
(PID.TID 0000.0001) %MON dynstat_eta_sd               =   1.6981894458467E+00
(PID.TID 0000.0001) %MON dynstat_eta_del2             =   9.6466435880585E-02
(PID.TID 0000.0001) %MON dynstat_uvel_max             =   1.7327218931753E-01
(PID.TID 0000.0001) %MON dynstat_uvel_min             =  -2.7081469137613E-01
(PID.TID 0000.0001) %MON dynstat_uvel_mean            =  -5.2815246466662E-04
(PID.TID 0000.0001) %MON dynstat_uvel_sd              =   1.2989186453492E-02
(PID.TID 0000.0001) %MON dynstat_uvel_del2            =   1.7921141167682E-03
(PID.TID 0000.0001) %MON dynstat_vvel_max             =   1.9396956883914E-01
(PID.TID 0000.0001) %MON dynstat_vvel_min             =  -2.1072476095831E-01
(PID.TID 0000.0001) %MON dynstat_vvel_mean            =  -4.2477305633567E-04
(PID.TID 0000.0001) %MON dynstat_vvel_sd              =   1.3476968635429E-02
(PID.TID 0000.0001) %MON dynstat_vvel_del2            =   1.8296602694059E-03
(PID.TID 0000.0001) %MON dynstat_wvel_max             =   8.3825772543285E-05
(PID.TID 0000.0001) %MON dynstat_wvel_min             =  -1.7739767363231E-04
(PID.TID 0000.0001) %MON dynstat_wvel_mean            =  -1.1695329633537E-09
(PID.TID 0000.0001) %MON dynstat_wvel_sd              =   4.6271943561189E-06
(PID.TID 0000.0001) %MON dynstat_wvel_del2            =   1.1367604859388E-06
(PID.TID 0000.0001) %MON dynstat_theta_max            =   3.0130334922152E+01
(PID.TID 0000.0001) %MON dynstat_theta_min            =  -5.4965484170856E+00
(PID.TID 0000.0001) %MON dynstat_theta_mean           =   3.5028259663660E+00
(PID.TID 0000.0001) %MON dynstat_theta_sd             =   4.7491309249140E+00
(PID.TID 0000.0001) %MON dynstat_theta_del2           =   9.5345806817354E-02
(PID.TID 0000.0001) %MON dynstat_salt_max             =   4.0820622897724E+01
(PID.TID 0000.0001) %MON dynstat_salt_min             =   1.8031424297812E+01
(PID.TID 0000.0001) %MON dynstat_salt_mean            =   3.4756094316126E+01
(PID.TID 0000.0001) %MON dynstat_salt_sd              =   5.1191960987484E-01
(PID.TID 0000.0001) %MON dynstat_salt_del2            =   2.0051733059192E-02
(PID.TID 0000.0001) %MON extforcing_qnet_max          =   7.7879844478951E+02
(PID.TID 0000.0001) %MON extforcing_qnet_min          =  -2.4011430029303E+02
(PID.TID 0000.0001) %MON extforcing_qnet_mean         =  -4.4171504379692E+00
(PID.TID 0000.0001) %MON extforcing_qnet_sd           =   1.2143076637173E+02
(PID.TID 0000.0001) %MON extforcing_qnet_del2         =   1.2283389419199E+01
(PID.TID 0000.0001) %MON extforcing_qsw_max           =   0.0000000000000E+00
(PID.TID 0000.0001) %MON extforcing_qsw_min           =   0.0000000000000E+00
(PID.TID 0000.0001) %MON extforcing_qsw_mean          =   0.0000000000000E+00
(PID.TID 0000.0001) %MON extforcing_qsw_sd            =   0.0000000000000E+00
(PID.TID 0000.0001) %MON extforcing_qsw_del2          =   0.0000000000000E+00
(PID.TID 0000.0001) %MON extforcing_empmr_max         =   5.9641914073401E-07
(PID.TID 0000.0001) %MON extforcing_empmr_min         =  -3.9953529779390E-07
(PID.TID 0000.0001) %MON extforcing_empmr_mean        =   1.6873660385344E-10
(PID.TID 0000.0001) %MON extforcing_empmr_sd          =   5.5687578096415E-08
(PID.TID 0000.0001) %MON extforcing_empmr_del2        =   8.8379359343702E-09
(PID.TID 0000.0001) %MON extforcing_fu_max            =   2.4755808644372E-01
(PID.TID 0000.0001) %MON extforcing_fu_min            =  -1.9021211852269E-01
(PID.TID 0000.0001) %MON extforcing_fu_mean           =  -1.4735151054632E-03
(PID.TID 0000.0001) %MON extforcing_fu_sd             =   6.1360460766495E-02
(PID.TID 0000.0001) %MON extforcing_fu_del2           =   3.3527300417974E-03
(PID.TID 0000.0001) %MON extforcing_fv_max            =   2.5549422200851E-01
(PID.TID 0000.0001) %MON extforcing_fv_min            =  -3.2770782795392E-01
(PID.TID 0000.0001) %MON extforcing_fv_mean           =  -4.8228167834891E-03
(PID.TID 0000.0001) %MON extforcing_fv_sd             =   6.7376925509786E-02
(PID.TID 0000.0001) %MON extforcing_fv_del2           =   3.3051312271693E-03
(PID.TID 0000.0001) %MON advcfl_uvel_max              =   7.6808183473254E-02
(PID.TID 0000.0001) %MON advcfl_vvel_max              =   8.4548602372150E-02
(PID.TID 0000.0001) %MON advcfl_wvel_max              =   5.7838335855969E-02
(PID.TID 0000.0001) %MON advcfl_W_hf_max              =   1.3061251564728E-01
(PID.TID 0000.0001) %MON pe_b_mean                    =  -1.9120546454300E-03
(PID.TID 0000.0001) %MON ke_max                       =   3.6710234873888E-02
(PID.TID 0000.0001) %MON ke_mean                      =   1.6198750794251E-04
(PID.TID 0000.0001) %MON ke_vol                       =   1.3395912112553E+18
(PID.TID 0000.0001) %MON vort_r_min                   =  -1.2169537851385E-06
(PID.TID 0000.0001) %MON vort_r_max                   =   1.3705438311723E-06
(PID.TID 0000.0001) %MON vort_a_mean                  =  -2.0493733748264E-05
(PID.TID 0000.0001) %MON vort_a_sd                    =   7.5054013911548E-05
(PID.TID 0000.0001) %MON vort_p_mean                  =  -2.4719484499731E-05
(PID.TID 0000.0001) %MON vort_p_sd                    =   1.2782268719075E-04
(PID.TID 0000.0001) %MON surfExpan_theta_mean         =   8.3557898668425E-08
(PID.TID 0000.0001) %MON surfExpan_salt_mean          =   1.8821459009103E-08
(PID.TID 0000.0001) // =======================================================
(PID.TID 0000.0001) // End MONITOR dynamic field statistics
(PID.TID 0000.0001) // =======================================================
(PID.TID 0000.0001) // =======================================================
(PID.TID 0000.0001) // Begin MONITOR Therm.SeaIce statistics
(PID.TID 0000.0001) // =======================================================
(PID.TID 0000.0001) %MON thSI_time_sec                =   3.1105728000000E+09
(PID.TID 0000.0001) %MON thSI_Ice_Area_G              =   2.4705533343767E+13
(PID.TID 0000.0001) %MON thSI_Ice_Area_S              =   1.2008133744738E+13
(PID.TID 0000.0001) %MON thSI_Ice_Area_N              =   1.2697399599029E+13
(PID.TID 0000.0001) %MON thSI_IceH_ave_G              =   4.5704225751699E+00
(PID.TID 0000.0001) %MON thSI_IceH_ave_S              =   5.6940423647804E+00
(PID.TID 0000.0001) %MON thSI_IceH_ave_N              =   3.5077973811965E+00
(PID.TID 0000.0001) %MON thSI_IceH_max_S              =   1.0000000000000E+01
(PID.TID 0000.0001) %MON thSI_IceH_max_N              =   1.0000000000000E+01
(PID.TID 0000.0001) %MON thSI_SnwH_ave_G              =   1.0553613525399E+00
(PID.TID 0000.0001) %MON thSI_SnwH_ave_S              =   1.7961539398663E+00
(PID.TID 0000.0001) %MON thSI_SnwH_ave_N              =   3.5478196253589E-01
(PID.TID 0000.0001) %MON thSI_SnwH_max_S              =   4.0920110700155E+00
(PID.TID 0000.0001) %MON thSI_SnwH_max_N              =   4.0933837398610E+00
(PID.TID 0000.0001) %MON thSI_TotEnerg_G              =  -3.7925464887216E+22
(PID.TID 0000.0001) %MON thSI_Tsrf_ave_G              =  -1.6860676611376E+01
(PID.TID 0000.0001) %MON thSI_Tsrf_ave_S              =  -1.2618544221201E-01
(PID.TID 0000.0001) %MON thSI_Tsrf_ave_N              =  -3.2686752379269E+01
(PID.TID 0000.0001) %MON thSI_Tsrf_min_S              =  -5.3207316990421E+00
(PID.TID 0000.0001) %MON thSI_Tsrf_min_N              =  -4.6328624533670E+01
(PID.TID 0000.0001) %MON thSI_Tsrf_max_S              =   0.0000000000000E+00
(PID.TID 0000.0001) %MON thSI_Tsrf_max_N              =  -7.6783593043140E+00
(PID.TID 0000.0001) %MON thSI_Tic1_ave_G              =  -8.4026736391094E+00
(PID.TID 0000.0001) %MON thSI_Tic1_ave_S              =  -5.1397427775930E+00
(PID.TID 0000.0001) %MON thSI_Tic1_ave_N              =  -1.3411717044333E+01
(PID.TID 0000.0001) %MON thSI_Tic1_min_S              =  -1.6709878458336E+01
(PID.TID 0000.0001) %MON thSI_Tic1_min_N              =  -2.0745814204814E+01
(PID.TID 0000.0001) %MON thSI_Tic1_max_S              =  -2.1539207746412E-01
(PID.TID 0000.0001) %MON thSI_Tic1_max_N              =  -6.0389629796181E-01
(PID.TID 0000.0001) %MON thSI_Tic2_ave_G              =  -3.7954240388789E+00
(PID.TID 0000.0001) %MON thSI_Tic2_ave_S              =  -3.1106987821032E+00
(PID.TID 0000.0001) %MON thSI_Tic2_ave_N              =  -4.8465705931301E+00
(PID.TID 0000.0001) %MON thSI_Tic2_min_S              =  -8.7846354017726E+00
(PID.TID 0000.0001) %MON thSI_Tic2_min_N              =  -7.4763916476458E+00
(PID.TID 0000.0001) %MON thSI_Tic2_max_S              =  -1.2642148384105E+00
(PID.TID 0000.0001) %MON thSI_Tic2_max_N              =  -1.1939219607007E+00
(PID.TID 0000.0001) // =======================================================
(PID.TID 0000.0001) // End MONITOR Therm.SeaIce statistics
(PID.TID 0000.0001) // =======================================================
 cg2d: Sum(rhs),rhsMax =   3.90304646713363E+02  2.29518028670760E+02
(PID.TID 0000.0001)                    cg2d_init_res =    2.71765809424005E+00
(PID.TID 0000.0001)                       cg2d_iters =    70
(PID.TID 0000.0001)                         cg2d_res =    4.79439269902361E-07
(PID.TID 0000.0001) // =======================================================
(PID.TID 0000.0001) // Begin MONITOR dynamic field statistics
(PID.TID 0000.0001) // =======================================================
(PID.TID 0000.0001) %MON time_tsnumber                =                 36003
(PID.TID 0000.0001) %MON time_secondsf                =   3.1106592000000E+09
(PID.TID 0000.0001) %MON dynstat_eta_max              =   7.3098011605887E-01
(PID.TID 0000.0001) %MON dynstat_eta_min              =  -1.1981956397916E+01
(PID.TID 0000.0001) %MON dynstat_eta_mean             =  -5.8051689623778E-01
(PID.TID 0000.0001) %MON dynstat_eta_sd               =   1.6975668583847E+00
(PID.TID 0000.0001) %MON dynstat_eta_del2             =   9.6482489297055E-02
(PID.TID 0000.0001) %MON dynstat_uvel_max             =   1.7365113885862E-01
(PID.TID 0000.0001) %MON dynstat_uvel_min             =  -2.7047568468655E-01
(PID.TID 0000.0001) %MON dynstat_uvel_mean            =  -5.2766610499522E-04
(PID.TID 0000.0001) %MON dynstat_uvel_sd              =   1.2988703715777E-02
(PID.TID 0000.0001) %MON dynstat_uvel_del2            =   1.7921047793636E-03
(PID.TID 0000.0001) %MON dynstat_vvel_max             =   1.9433339792970E-01
(PID.TID 0000.0001) %MON dynstat_vvel_min             =  -2.1082782201404E-01
(PID.TID 0000.0001) %MON dynstat_vvel_mean            =  -4.2458185674365E-04
(PID.TID 0000.0001) %MON dynstat_vvel_sd              =   1.3479069361029E-02
(PID.TID 0000.0001) %MON dynstat_vvel_del2            =   1.8285250394292E-03
(PID.TID 0000.0001) %MON dynstat_wvel_max             =   8.3754062844374E-05
(PID.TID 0000.0001) %MON dynstat_wvel_min             =  -1.7768596930259E-04
(PID.TID 0000.0001) %MON dynstat_wvel_mean            =  -1.1813407433396E-09
(PID.TID 0000.0001) %MON dynstat_wvel_sd              =   4.6269819741369E-06
(PID.TID 0000.0001) %MON dynstat_wvel_del2            =   1.1365242555306E-06
(PID.TID 0000.0001) %MON dynstat_theta_max            =   3.0113090998318E+01
(PID.TID 0000.0001) %MON dynstat_theta_min            =  -5.4903237757646E+00
(PID.TID 0000.0001) %MON dynstat_theta_mean           =   3.5028812735437E+00
(PID.TID 0000.0001) %MON dynstat_theta_sd             =   4.7491961483678E+00
(PID.TID 0000.0001) %MON dynstat_theta_del2           =   9.5392522102804E-02
(PID.TID 0000.0001) %MON dynstat_salt_max             =   4.0822997008373E+01
(PID.TID 0000.0001) %MON dynstat_salt_min             =   1.8032025862680E+01
(PID.TID 0000.0001) %MON dynstat_salt_mean            =   3.4756095165729E+01
(PID.TID 0000.0001) %MON dynstat_salt_sd              =   5.1191187138538E-01
(PID.TID 0000.0001) %MON dynstat_salt_del2            =   2.0051399938518E-02
(PID.TID 0000.0001) %MON extforcing_qnet_max          =   7.8158937184953E+02
(PID.TID 0000.0001) %MON extforcing_qnet_min          =  -2.3950851696919E+02
(PID.TID 0000.0001) %MON extforcing_qnet_mean         =  -4.4194975444146E+00
(PID.TID 0000.0001) %MON extforcing_qnet_sd           =   1.2124133674942E+02
(PID.TID 0000.0001) %MON extforcing_qnet_del2         =   1.2326504916519E+01
(PID.TID 0000.0001) %MON extforcing_qsw_max           =   0.0000000000000E+00
(PID.TID 0000.0001) %MON extforcing_qsw_min           =   0.0000000000000E+00
(PID.TID 0000.0001) %MON extforcing_qsw_mean          =   0.0000000000000E+00
(PID.TID 0000.0001) %MON extforcing_qsw_sd            =   0.0000000000000E+00
(PID.TID 0000.0001) %MON extforcing_qsw_del2          =   0.0000000000000E+00
(PID.TID 0000.0001) %MON extforcing_empmr_max         =   4.5086797535772E-07
(PID.TID 0000.0001) %MON extforcing_empmr_min         =  -3.9326688528786E-07
(PID.TID 0000.0001) %MON extforcing_empmr_mean        =   1.0423563828699E-10
(PID.TID 0000.0001) %MON extforcing_empmr_sd          =   5.4532935861899E-08
(PID.TID 0000.0001) %MON extforcing_empmr_del2        =   8.7338763597129E-09
(PID.TID 0000.0001) %MON extforcing_fu_max            =   2.4751003717351E-01
(PID.TID 0000.0001) %MON extforcing_fu_min            =  -1.9188096691302E-01
(PID.TID 0000.0001) %MON extforcing_fu_mean           =  -1.4757232794329E-03
(PID.TID 0000.0001) %MON extforcing_fu_sd             =   6.1342749025303E-02
(PID.TID 0000.0001) %MON extforcing_fu_del2           =   3.3537349379800E-03
(PID.TID 0000.0001) %MON extforcing_fv_max            =   2.5817746358114E-01
(PID.TID 0000.0001) %MON extforcing_fv_min            =  -3.2849573188785E-01
(PID.TID 0000.0001) %MON extforcing_fv_mean           =  -4.8839696802922E-03
(PID.TID 0000.0001) %MON extforcing_fv_sd             =   6.7547018230418E-02
(PID.TID 0000.0001) %MON extforcing_fv_del2           =   3.3071746233448E-03
(PID.TID 0000.0001) %MON advcfl_uvel_max              =   7.6712034745578E-02
(PID.TID 0000.0001) %MON advcfl_vvel_max              =   8.4707190347024E-02
(PID.TID 0000.0001) %MON advcfl_wvel_max              =   5.7932331123562E-02
(PID.TID 0000.0001) %MON advcfl_W_hf_max              =   1.2991684442302E-01
(PID.TID 0000.0001) %MON pe_b_mean                    =  -1.9107292852902E-03
(PID.TID 0000.0001) %MON ke_max                       =   3.6600858640782E-02
(PID.TID 0000.0001) %MON ke_mean                      =   1.6200770941528E-04
(PID.TID 0000.0001) %MON ke_vol                       =   1.3395912061296E+18
(PID.TID 0000.0001) %MON vort_r_min                   =  -1.2207069364970E-06
(PID.TID 0000.0001) %MON vort_r_max                   =   1.3733576128944E-06
(PID.TID 0000.0001) %MON vort_a_mean                  =  -2.0493733748264E-05
(PID.TID 0000.0001) %MON vort_a_sd                    =   7.5054013782783E-05
(PID.TID 0000.0001) %MON vort_p_mean                  =  -2.4719484102415E-05
(PID.TID 0000.0001) %MON vort_p_sd                    =   1.2782269309007E-04
(PID.TID 0000.0001) %MON surfExpan_theta_mean         =   8.4043849769080E-08
(PID.TID 0000.0001) %MON surfExpan_salt_mean          =   1.8902781774667E-08
(PID.TID 0000.0001) // =======================================================
(PID.TID 0000.0001) // End MONITOR dynamic field statistics
(PID.TID 0000.0001) // =======================================================
(PID.TID 0000.0001) // =======================================================
(PID.TID 0000.0001) // Begin MONITOR Therm.SeaIce statistics
(PID.TID 0000.0001) // =======================================================
(PID.TID 0000.0001) %MON thSI_time_sec                =   3.1106592000000E+09
(PID.TID 0000.0001) %MON thSI_Ice_Area_G              =   2.4677890708385E+13
(PID.TID 0000.0001) %MON thSI_Ice_Area_S              =   1.1953979322509E+13
(PID.TID 0000.0001) %MON thSI_Ice_Area_N              =   1.2723911385876E+13
(PID.TID 0000.0001) %MON thSI_IceH_ave_G              =   4.5760597306578E+00
(PID.TID 0000.0001) %MON thSI_IceH_ave_S              =   5.7123356271406E+00
(PID.TID 0000.0001) %MON thSI_IceH_ave_N              =   3.5085406196479E+00
(PID.TID 0000.0001) %MON thSI_IceH_max_S              =   1.0000000000000E+01
(PID.TID 0000.0001) %MON thSI_IceH_max_N              =   1.0000000000000E+01
(PID.TID 0000.0001) %MON thSI_SnwH_ave_G              =   1.0522118269486E+00
(PID.TID 0000.0001) %MON thSI_SnwH_ave_S              =   1.7923282221559E+00
(PID.TID 0000.0001) %MON thSI_SnwH_ave_N              =   3.5688035093890E-01
(PID.TID 0000.0001) %MON thSI_SnwH_max_S              =   4.0920079241251E+00
(PID.TID 0000.0001) %MON thSI_SnwH_max_N              =   4.0933965216221E+00
(PID.TID 0000.0001) %MON thSI_TotEnerg_G              =  -3.7921747609200E+22
(PID.TID 0000.0001) %MON thSI_Tsrf_ave_G              =  -1.6942913674625E+01
(PID.TID 0000.0001) %MON thSI_Tsrf_ave_S              =  -1.0897359954174E-01
(PID.TID 0000.0001) %MON thSI_Tsrf_ave_N              =  -3.2758221206338E+01
(PID.TID 0000.0001) %MON thSI_Tsrf_min_S              =  -5.3370784703156E+00
(PID.TID 0000.0001) %MON thSI_Tsrf_min_N              =  -4.6443308336923E+01
(PID.TID 0000.0001) %MON thSI_Tsrf_max_S              =   0.0000000000000E+00
(PID.TID 0000.0001) %MON thSI_Tsrf_max_N              =  -8.2047521155984E+00
(PID.TID 0000.0001) %MON thSI_Tic1_ave_G              =  -8.4290283173012E+00
(PID.TID 0000.0001) %MON thSI_Tic1_ave_S              =  -5.1189385606264E+00
(PID.TID 0000.0001) %MON thSI_Tic1_ave_N              =  -1.3492155564189E+01
(PID.TID 0000.0001) %MON thSI_Tic1_min_S              =  -1.6561945359315E+01
(PID.TID 0000.0001) %MON thSI_Tic1_min_N              =  -2.0822485827160E+01
(PID.TID 0000.0001) %MON thSI_Tic1_max_S              =  -2.1257251484126E-01
(PID.TID 0000.0001) %MON thSI_Tic1_max_N              =  -6.1306443817098E-01
(PID.TID 0000.0001) %MON thSI_Tic2_ave_G              =  -3.8076074567995E+00
(PID.TID 0000.0001) %MON thSI_Tic2_ave_S              =  -3.1072531762399E+00
(PID.TID 0000.0001) %MON thSI_Tic2_ave_N              =  -4.8788723169819E+00
(PID.TID 0000.0001) %MON thSI_Tic2_min_S              =  -8.7595626480508E+00
(PID.TID 0000.0001) %MON thSI_Tic2_min_N              =  -7.5135005201979E+00
(PID.TID 0000.0001) %MON thSI_Tic2_max_S              =  -1.2267372080291E+00
(PID.TID 0000.0001) %MON thSI_Tic2_max_N              =  -1.2119487281801E+00
(PID.TID 0000.0001) // =======================================================
(PID.TID 0000.0001) // End MONITOR Therm.SeaIce statistics
(PID.TID 0000.0001) // =======================================================
 cg2d: Sum(rhs),rhsMax =   3.90319916878030E+02  2.29601158274975E+02
(PID.TID 0000.0001)                    cg2d_init_res =    2.78773982617383E+00
(PID.TID 0000.0001)                       cg2d_iters =    70
(PID.TID 0000.0001)                         cg2d_res =    4.83272699356322E-07
(PID.TID 0000.0001) // =======================================================
(PID.TID 0000.0001) // Begin MONITOR dynamic field statistics
(PID.TID 0000.0001) // =======================================================
(PID.TID 0000.0001) %MON time_tsnumber                =                 36004
(PID.TID 0000.0001) %MON time_secondsf                =   3.1107456000000E+09
(PID.TID 0000.0001) %MON dynstat_eta_max              =   7.2971432185652E-01
(PID.TID 0000.0001) %MON dynstat_eta_min              =  -1.1980154678748E+01
(PID.TID 0000.0001) %MON dynstat_eta_mean             =  -5.8053960821078E-01
(PID.TID 0000.0001) %MON dynstat_eta_sd               =   1.6969377953860E+00
(PID.TID 0000.0001) %MON dynstat_eta_del2             =   9.6487740773786E-02
(PID.TID 0000.0001) %MON dynstat_uvel_max             =   1.7397151760540E-01
(PID.TID 0000.0001) %MON dynstat_uvel_min             =  -2.7012558277954E-01
(PID.TID 0000.0001) %MON dynstat_uvel_mean            =  -5.2715365536768E-04
(PID.TID 0000.0001) %MON dynstat_uvel_sd              =   1.2988047268517E-02
(PID.TID 0000.0001) %MON dynstat_uvel_del2            =   1.7920298728640E-03
(PID.TID 0000.0001) %MON dynstat_vvel_max             =   1.9463706228198E-01
(PID.TID 0000.0001) %MON dynstat_vvel_min             =  -2.1092331364691E-01
(PID.TID 0000.0001) %MON dynstat_vvel_mean            =  -4.2423492565550E-04
(PID.TID 0000.0001) %MON dynstat_vvel_sd              =   1.3481135691697E-02
(PID.TID 0000.0001) %MON dynstat_vvel_del2            =   1.8275232839593E-03
(PID.TID 0000.0001) %MON dynstat_wvel_max             =   8.3857932882690E-05
(PID.TID 0000.0001) %MON dynstat_wvel_min             =  -1.7791298224622E-04
(PID.TID 0000.0001) %MON dynstat_wvel_mean            =  -1.0976687065295E-09
(PID.TID 0000.0001) %MON dynstat_wvel_sd              =   4.6265393938258E-06
(PID.TID 0000.0001) %MON dynstat_wvel_del2            =   1.1361141299879E-06
(PID.TID 0000.0001) %MON dynstat_theta_max            =   3.0095304079539E+01
(PID.TID 0000.0001) %MON dynstat_theta_min            =  -5.4840114809560E+00
(PID.TID 0000.0001) %MON dynstat_theta_mean           =   3.5029369743098E+00
(PID.TID 0000.0001) %MON dynstat_theta_sd             =   4.7492656307652E+00
(PID.TID 0000.0001) %MON dynstat_theta_del2           =   9.5427720694963E-02
(PID.TID 0000.0001) %MON dynstat_salt_max             =   4.0825224245091E+01
(PID.TID 0000.0001) %MON dynstat_salt_min             =   1.8032614601284E+01
(PID.TID 0000.0001) %MON dynstat_salt_mean            =   3.4756096154508E+01
(PID.TID 0000.0001) %MON dynstat_salt_sd              =   5.1190368128052E-01
(PID.TID 0000.0001) %MON dynstat_salt_del2            =   2.0053281217082E-02
(PID.TID 0000.0001) %MON extforcing_qnet_max          =   7.8348121556439E+02
(PID.TID 0000.0001) %MON extforcing_qnet_min          =  -2.3887244738841E+02
(PID.TID 0000.0001) %MON extforcing_qnet_mean         =  -4.4669257787677E+00
(PID.TID 0000.0001) %MON extforcing_qnet_sd           =   1.2103954952385E+02
(PID.TID 0000.0001) %MON extforcing_qnet_del2         =   1.2404173531749E+01
(PID.TID 0000.0001) %MON extforcing_qsw_max           =   0.0000000000000E+00
(PID.TID 0000.0001) %MON extforcing_qsw_min           =   0.0000000000000E+00
(PID.TID 0000.0001) %MON extforcing_qsw_mean          =   0.0000000000000E+00
(PID.TID 0000.0001) %MON extforcing_qsw_sd            =   0.0000000000000E+00
(PID.TID 0000.0001) %MON extforcing_qsw_del2          =   0.0000000000000E+00
(PID.TID 0000.0001) %MON extforcing_empmr_max         =   4.3307517304504E-07
(PID.TID 0000.0001) %MON extforcing_empmr_min         =  -3.8551320887221E-07
(PID.TID 0000.0001) %MON extforcing_empmr_mean        =   2.7207050988902E-10
(PID.TID 0000.0001) %MON extforcing_empmr_sd          =   5.4355044241458E-08
(PID.TID 0000.0001) %MON extforcing_empmr_del2        =   8.8302512541636E-09
(PID.TID 0000.0001) %MON extforcing_fu_max            =   2.4746198790331E-01
(PID.TID 0000.0001) %MON extforcing_fu_min            =  -1.9354981530334E-01
(PID.TID 0000.0001) %MON extforcing_fu_mean           =  -1.4779314637673E-03
(PID.TID 0000.0001) %MON extforcing_fu_sd             =   6.1337629650081E-02
(PID.TID 0000.0001) %MON extforcing_fu_del2           =   3.3576808392742E-03
(PID.TID 0000.0001) %MON extforcing_fv_max            =   2.6086070515377E-01
(PID.TID 0000.0001) %MON extforcing_fv_min            =  -3.2928363582178E-01
(PID.TID 0000.0001) %MON extforcing_fv_mean           =  -4.9451225560651E-03
(PID.TID 0000.0001) %MON extforcing_fv_sd             =   6.7725323823624E-02
(PID.TID 0000.0001) %MON extforcing_fv_del2           =   3.3110159854204E-03
(PID.TID 0000.0001) %MON advcfl_uvel_max              =   7.6612739203778E-02
(PID.TID 0000.0001) %MON advcfl_vvel_max              =   8.4839553360093E-02
(PID.TID 0000.0001) %MON advcfl_wvel_max              =   5.8006345909710E-02
(PID.TID 0000.0001) %MON advcfl_W_hf_max              =   1.2915071385800E-01
(PID.TID 0000.0001) %MON pe_b_mean                    =  -1.9094599872445E-03
(PID.TID 0000.0001) %MON ke_max                       =   3.6488943749877E-02
(PID.TID 0000.0001) %MON ke_mean                      =   1.6202534062968E-04
(PID.TID 0000.0001) %MON ke_vol                       =   1.3395912029633E+18
(PID.TID 0000.0001) %MON vort_r_min                   =  -1.2247375588026E-06
(PID.TID 0000.0001) %MON vort_r_max                   =   1.3764054535182E-06
(PID.TID 0000.0001) %MON vort_a_mean                  =  -2.0493733748264E-05
(PID.TID 0000.0001) %MON vort_a_sd                    =   7.5054013667563E-05
(PID.TID 0000.0001) %MON vort_p_mean                  =  -2.4719483687646E-05
(PID.TID 0000.0001) %MON vort_p_sd                    =   1.2782269696129E-04
(PID.TID 0000.0001) %MON surfExpan_theta_mean         =   8.3960187589166E-08
(PID.TID 0000.0001) %MON surfExpan_salt_mean          =   1.8793721809868E-08
(PID.TID 0000.0001) // =======================================================
(PID.TID 0000.0001) // End MONITOR dynamic field statistics
(PID.TID 0000.0001) // =======================================================
(PID.TID 0000.0001) // =======================================================
(PID.TID 0000.0001) // Begin MONITOR Therm.SeaIce statistics
(PID.TID 0000.0001) // =======================================================
(PID.TID 0000.0001) %MON thSI_time_sec                =   3.1107456000000E+09
(PID.TID 0000.0001) %MON thSI_Ice_Area_G              =   2.4670337606619E+13
(PID.TID 0000.0001) %MON thSI_Ice_Area_S              =   1.1902013912793E+13
(PID.TID 0000.0001) %MON thSI_Ice_Area_N              =   1.2768323693827E+13
(PID.TID 0000.0001) %MON thSI_IceH_ave_G              =   4.5781687972171E+00
(PID.TID 0000.0001) %MON thSI_IceH_ave_S              =   5.7299575924757E+00
(PID.TID 0000.0001) %MON thSI_IceH_ave_N              =   3.5045269790358E+00
(PID.TID 0000.0001) %MON thSI_IceH_max_S              =   1.0000000000000E+01
(PID.TID 0000.0001) %MON thSI_IceH_max_N              =   1.0000000000000E+01
(PID.TID 0000.0001) %MON thSI_SnwH_ave_G              =   1.0483089906894E+00
(PID.TID 0000.0001) %MON thSI_SnwH_ave_S              =   1.7883489343456E+00
(PID.TID 0000.0001) %MON thSI_SnwH_ave_N              =   3.5847954113703E-01
(PID.TID 0000.0001) %MON thSI_SnwH_max_S              =   4.0920047672533E+00
(PID.TID 0000.0001) %MON thSI_SnwH_max_N              =   4.0934093004358E+00
(PID.TID 0000.0001) %MON thSI_TotEnerg_G              =  -3.7918951955716E+22
(PID.TID 0000.0001) %MON thSI_Tsrf_ave_G              =  -1.7028659182352E+01
(PID.TID 0000.0001) %MON thSI_Tsrf_ave_S              =  -1.2961840530616E-01
(PID.TID 0000.0001) %MON thSI_Tsrf_ave_N              =  -3.2781127812082E+01
(PID.TID 0000.0001) %MON thSI_Tsrf_min_S              =  -5.3533847628703E+00
(PID.TID 0000.0001) %MON thSI_Tsrf_min_N              =  -4.6558042372634E+01
(PID.TID 0000.0001) %MON thSI_Tsrf_max_S              =   0.0000000000000E+00
(PID.TID 0000.0001) %MON thSI_Tsrf_max_N              =  -1.8311116004096E+00
(PID.TID 0000.0001) %MON thSI_Tic1_ave_G              =  -8.4509294633214E+00
(PID.TID 0000.0001) %MON thSI_Tic1_ave_S              =  -5.0923066907802E+00
(PID.TID 0000.0001) %MON thSI_Tic1_ave_N              =  -1.3569748753411E+01
(PID.TID 0000.0001) %MON thSI_Tic1_min_S              =  -1.6066572330472E+01
(PID.TID 0000.0001) %MON thSI_Tic1_min_N              =  -2.0896515527637E+01
(PID.TID 0000.0001) %MON thSI_Tic1_max_S              =  -1.9814646394424E-01
(PID.TID 0000.0001) %MON thSI_Tic1_max_N              =  -6.2249332951434E-01
(PID.TID 0000.0001) %MON thSI_Tic2_ave_G              =  -3.8193865624287E+00
(PID.TID 0000.0001) %MON thSI_Tic2_ave_S              =  -3.1036629089371E+00
(PID.TID 0000.0001) %MON thSI_Tic2_ave_N              =  -4.9102086916118E+00
(PID.TID 0000.0001) %MON thSI_Tic2_min_S              =  -8.7329604792463E+00
(PID.TID 0000.0001) %MON thSI_Tic2_min_N              =  -7.5494561695916E+00
(PID.TID 0000.0001) %MON thSI_Tic2_max_S              =  -1.2608429900059E+00
(PID.TID 0000.0001) %MON thSI_Tic2_max_N              =  -1.2294517935967E+00
(PID.TID 0000.0001) // =======================================================
(PID.TID 0000.0001) // End MONITOR Therm.SeaIce statistics
(PID.TID 0000.0001) // =======================================================
 cg2d: Sum(rhs),rhsMax =   3.90354537828784E+02  2.29693632718720E+02
(PID.TID 0000.0001)                    cg2d_init_res =    2.75812954038907E+00
(PID.TID 0000.0001)                       cg2d_iters =    69
(PID.TID 0000.0001)                         cg2d_res =    5.75587243921897E-07
(PID.TID 0000.0001) // =======================================================
(PID.TID 0000.0001) // Begin MONITOR dynamic field statistics
(PID.TID 0000.0001) // =======================================================
(PID.TID 0000.0001) %MON time_tsnumber                =                 36005
(PID.TID 0000.0001) %MON time_secondsf                =   3.1108320000000E+09
(PID.TID 0000.0001) %MON dynstat_eta_max              =   7.2845921389774E-01
(PID.TID 0000.0001) %MON dynstat_eta_min              =  -1.1978299407517E+01
(PID.TID 0000.0001) %MON dynstat_eta_mean             =  -5.8059110144061E-01
(PID.TID 0000.0001) %MON dynstat_eta_sd               =   1.6962926336336E+00
(PID.TID 0000.0001) %MON dynstat_eta_del2             =   9.6461424269296E-02
(PID.TID 0000.0001) %MON dynstat_uvel_max             =   1.7423077568995E-01
(PID.TID 0000.0001) %MON dynstat_uvel_min             =  -2.6976437876037E-01
(PID.TID 0000.0001) %MON dynstat_uvel_mean            =  -5.2666544444890E-04
(PID.TID 0000.0001) %MON dynstat_uvel_sd              =   1.2987274860584E-02
(PID.TID 0000.0001) %MON dynstat_uvel_del2            =   1.7919254688521E-03
(PID.TID 0000.0001) %MON dynstat_vvel_max             =   1.9488015431419E-01
(PID.TID 0000.0001) %MON dynstat_vvel_min             =  -2.1101142203993E-01
(PID.TID 0000.0001) %MON dynstat_vvel_mean            =  -4.2376002396772E-04
(PID.TID 0000.0001) %MON dynstat_vvel_sd              =   1.3483108092717E-02
(PID.TID 0000.0001) %MON dynstat_vvel_del2            =   1.8265752626281E-03
(PID.TID 0000.0001) %MON dynstat_wvel_max             =   8.4549939944467E-05
(PID.TID 0000.0001) %MON dynstat_wvel_min             =  -1.7808036127154E-04
(PID.TID 0000.0001) %MON dynstat_wvel_mean            =  -1.0935268823868E-09
(PID.TID 0000.0001) %MON dynstat_wvel_sd              =   4.6260859343821E-06
(PID.TID 0000.0001) %MON dynstat_wvel_del2            =   1.1356552321677E-06
(PID.TID 0000.0001) %MON dynstat_theta_max            =   3.0077061090975E+01
(PID.TID 0000.0001) %MON dynstat_theta_min            =  -5.4775877014206E+00
(PID.TID 0000.0001) %MON dynstat_theta_mean           =   3.5029935182717E+00
(PID.TID 0000.0001) %MON dynstat_theta_sd             =   4.7493391497217E+00
(PID.TID 0000.0001) %MON dynstat_theta_del2           =   9.5416068616993E-02
(PID.TID 0000.0001) %MON dynstat_salt_max             =   4.0827306781604E+01
(PID.TID 0000.0001) %MON dynstat_salt_min             =   1.8033191954618E+01
(PID.TID 0000.0001) %MON dynstat_salt_mean            =   3.4756097379382E+01
(PID.TID 0000.0001) %MON dynstat_salt_sd              =   5.1189433382522E-01
(PID.TID 0000.0001) %MON dynstat_salt_del2            =   2.0034293378236E-02
(PID.TID 0000.0001) %MON extforcing_qnet_max          =   7.8371294470299E+02
(PID.TID 0000.0001) %MON extforcing_qnet_min          =  -2.3820442706055E+02
(PID.TID 0000.0001) %MON extforcing_qnet_mean         =  -4.5954424396094E+00
(PID.TID 0000.0001) %MON extforcing_qnet_sd           =   1.2061141312367E+02
(PID.TID 0000.0001) %MON extforcing_qnet_del2         =   1.2399633698179E+01
(PID.TID 0000.0001) %MON extforcing_qsw_max           =   0.0000000000000E+00
(PID.TID 0000.0001) %MON extforcing_qsw_min           =   0.0000000000000E+00
(PID.TID 0000.0001) %MON extforcing_qsw_mean          =   0.0000000000000E+00
(PID.TID 0000.0001) %MON extforcing_qsw_sd            =   0.0000000000000E+00
(PID.TID 0000.0001) %MON extforcing_qsw_del2          =   0.0000000000000E+00
(PID.TID 0000.0001) %MON extforcing_empmr_max         =   1.1361754242230E-06
(PID.TID 0000.0001) %MON extforcing_empmr_min         =  -3.7614884298625E-07
(PID.TID 0000.0001) %MON extforcing_empmr_mean        =   6.1684598233781E-10
(PID.TID 0000.0001) %MON extforcing_empmr_sd          =   5.7077655734834E-08
(PID.TID 0000.0001) %MON extforcing_empmr_del2        =   9.0804688921809E-09
(PID.TID 0000.0001) %MON extforcing_fu_max            =   2.4741393863310E-01
(PID.TID 0000.0001) %MON extforcing_fu_min            =  -1.9521866369366E-01
(PID.TID 0000.0001) %MON extforcing_fu_mean           =  -1.4801396957276E-03
(PID.TID 0000.0001) %MON extforcing_fu_sd             =   6.1345105766647E-02
(PID.TID 0000.0001) %MON extforcing_fu_del2           =   3.3640471809518E-03
(PID.TID 0000.0001) %MON extforcing_fv_max            =   2.6354394672640E-01
(PID.TID 0000.0001) %MON extforcing_fv_min            =  -3.3007153975572E-01
(PID.TID 0000.0001) %MON extforcing_fv_mean           =  -5.0062753795854E-03
(PID.TID 0000.0001) %MON extforcing_fv_sd             =   6.7911777591215E-02
(PID.TID 0000.0001) %MON extforcing_fv_del2           =   3.3167920859268E-03
(PID.TID 0000.0001) %MON advcfl_uvel_max              =   7.6510294892375E-02
(PID.TID 0000.0001) %MON advcfl_vvel_max              =   8.4945513752199E-02
(PID.TID 0000.0001) %MON advcfl_wvel_max              =   5.8060917788154E-02
(PID.TID 0000.0001) %MON advcfl_W_hf_max              =   1.2831606094182E-01
(PID.TID 0000.0001) %MON pe_b_mean                    =  -1.9082220652982E-03
(PID.TID 0000.0001) %MON ke_max                       =   3.6374567716028E-02
(PID.TID 0000.0001) %MON ke_mean                      =   1.6204038127155E-04
(PID.TID 0000.0001) %MON ke_vol                       =   1.3395911946987E+18
(PID.TID 0000.0001) %MON vort_r_min                   =  -1.2290177945458E-06
(PID.TID 0000.0001) %MON vort_r_max                   =   1.3796425180111E-06
(PID.TID 0000.0001) %MON vort_a_mean                  =  -2.0493733748264E-05
(PID.TID 0000.0001) %MON vort_a_sd                    =   7.5054013565059E-05
(PID.TID 0000.0001) %MON vort_p_mean                  =  -2.4719483388452E-05
(PID.TID 0000.0001) %MON vort_p_sd                    =   1.2782270234673E-04
(PID.TID 0000.0001) %MON surfExpan_theta_mean         =   8.4012298173972E-08
(PID.TID 0000.0001) %MON surfExpan_salt_mean          =   1.8851797841985E-08
(PID.TID 0000.0001) // =======================================================
(PID.TID 0000.0001) // End MONITOR dynamic field statistics
(PID.TID 0000.0001) // =======================================================
(PID.TID 0000.0001) // =======================================================
(PID.TID 0000.0001) // Begin MONITOR Therm.SeaIce statistics
(PID.TID 0000.0001) // =======================================================
(PID.TID 0000.0001) %MON thSI_time_sec                =   3.1108320000000E+09
(PID.TID 0000.0001) %MON thSI_Ice_Area_G              =   2.4722516614622E+13
(PID.TID 0000.0001) %MON thSI_Ice_Area_S              =   1.1856993034361E+13
(PID.TID 0000.0001) %MON thSI_Ice_Area_N              =   1.2865523580261E+13
(PID.TID 0000.0001) %MON thSI_IceH_ave_G              =   4.5696762998660E+00
(PID.TID 0000.0001) %MON thSI_IceH_ave_S              =   5.7444574285110E+00
(PID.TID 0000.0001) %MON thSI_IceH_ave_N              =   3.4869864604402E+00
(PID.TID 0000.0001) %MON thSI_IceH_max_S              =   1.0000000000000E+01
(PID.TID 0000.0001) %MON thSI_IceH_max_N              =   1.0000000000000E+01
(PID.TID 0000.0001) %MON thSI_SnwH_ave_G              =   1.0419222389595E+00
(PID.TID 0000.0001) %MON thSI_SnwH_ave_S              =   1.7833555298996E+00
(PID.TID 0000.0001) %MON thSI_SnwH_ave_N              =   3.5861002774039E-01
(PID.TID 0000.0001) %MON thSI_SnwH_max_S              =   4.0920697517832E+00
(PID.TID 0000.0001) %MON thSI_SnwH_max_N              =   4.0934220762947E+00
(PID.TID 0000.0001) %MON thSI_TotEnerg_G              =  -3.7920066904658E+22
(PID.TID 0000.0001) %MON thSI_Tsrf_ave_G              =  -1.7062941480124E+01
(PID.TID 0000.0001) %MON thSI_Tsrf_ave_S              =  -1.1187067010218E-01
(PID.TID 0000.0001) %MON thSI_Tsrf_ave_N              =  -3.2685215013379E+01
(PID.TID 0000.0001) %MON thSI_Tsrf_min_S              =  -5.3696508804391E+00
(PID.TID 0000.0001) %MON thSI_Tsrf_min_N              =  -4.6672827582881E+01
(PID.TID 0000.0001) %MON thSI_Tsrf_max_S              =   0.0000000000000E+00
(PID.TID 0000.0001) %MON thSI_Tsrf_max_N              =  -1.6927841997550E+00
(PID.TID 0000.0001) %MON thSI_Tic1_ave_G              =  -8.4751978797909E+00
(PID.TID 0000.0001) %MON thSI_Tic1_ave_S              =  -5.0713911761591E+00
(PID.TID 0000.0001) %MON thSI_Tic1_ave_N              =  -1.3643057918048E+01
(PID.TID 0000.0001) %MON thSI_Tic1_min_S              =  -1.5925034538303E+01
(PID.TID 0000.0001) %MON thSI_Tic1_min_N              =  -2.0968003795342E+01
(PID.TID 0000.0001) %MON thSI_Tic1_max_S              =  -1.8495997832306E-01
(PID.TID 0000.0001) %MON thSI_Tic1_max_N              =  -6.3219399267157E-01
(PID.TID 0000.0001) %MON thSI_Tic2_ave_G              =  -3.8307460059557E+00
(PID.TID 0000.0001) %MON thSI_Tic2_ave_S              =  -3.0999901207197E+00
(PID.TID 0000.0001) %MON thSI_Tic2_ave_N              =  -4.9402226789415E+00
(PID.TID 0000.0001) %MON thSI_Tic2_min_S              =  -8.7061562993255E+00
(PID.TID 0000.0001) %MON thSI_Tic2_min_N              =  -7.5842895724309E+00
(PID.TID 0000.0001) %MON thSI_Tic2_max_S              =  -1.2559989688147E+00
(PID.TID 0000.0001) %MON thSI_Tic2_max_N              =  -1.2464474888775E+00
(PID.TID 0000.0001) // =======================================================
(PID.TID 0000.0001) // End MONITOR Therm.SeaIce statistics
(PID.TID 0000.0001) // =======================================================
 cg2d: Sum(rhs),rhsMax =   3.90392464537088E+02  2.29795026190007E+02
(PID.TID 0000.0001)                    cg2d_init_res =    2.71302075207947E+00
(PID.TID 0000.0001)                       cg2d_iters =    69
(PID.TID 0000.0001)                         cg2d_res =    5.65999927679616E-07
(PID.TID 0000.0001) // =======================================================
(PID.TID 0000.0001) // Begin MONITOR dynamic field statistics
(PID.TID 0000.0001) // =======================================================
(PID.TID 0000.0001) %MON time_tsnumber                =                 36006
(PID.TID 0000.0001) %MON time_secondsf                =   3.1109184000000E+09
(PID.TID 0000.0001) %MON dynstat_eta_max              =   7.2720368893839E-01
(PID.TID 0000.0001) %MON dynstat_eta_min              =  -1.1976366248061E+01
(PID.TID 0000.0001) %MON dynstat_eta_mean             =  -5.8064751146589E-01
(PID.TID 0000.0001) %MON dynstat_eta_sd               =   1.6956556919520E+00
(PID.TID 0000.0001) %MON dynstat_eta_del2             =   9.6453679194683E-02
(PID.TID 0000.0001) %MON dynstat_uvel_max             =   1.7442722971689E-01
(PID.TID 0000.0001) %MON dynstat_uvel_min             =  -2.6939182660646E-01
(PID.TID 0000.0001) %MON dynstat_uvel_mean            =  -5.2621622341090E-04
(PID.TID 0000.0001) %MON dynstat_uvel_sd              =   1.2986431568705E-02
(PID.TID 0000.0001) %MON dynstat_uvel_del2            =   1.7917445873467E-03
(PID.TID 0000.0001) %MON dynstat_vvel_max             =   1.9506264085612E-01
(PID.TID 0000.0001) %MON dynstat_vvel_min             =  -2.1109235270064E-01
(PID.TID 0000.0001) %MON dynstat_vvel_mean            =  -4.2318302643275E-04
(PID.TID 0000.0001) %MON dynstat_vvel_sd              =   1.3484924479614E-02
(PID.TID 0000.0001) %MON dynstat_vvel_del2            =   1.8256117817377E-03
(PID.TID 0000.0001) %MON dynstat_wvel_max             =   8.5273178023720E-05
(PID.TID 0000.0001) %MON dynstat_wvel_min             =  -1.7819115029290E-04
(PID.TID 0000.0001) %MON dynstat_wvel_mean            =  -1.1008332407847E-09
(PID.TID 0000.0001) %MON dynstat_wvel_sd              =   4.6256161451754E-06
(PID.TID 0000.0001) %MON dynstat_wvel_del2            =   1.1352122684467E-06
(PID.TID 0000.0001) %MON dynstat_theta_max            =   3.0058438716535E+01
(PID.TID 0000.0001) %MON dynstat_theta_min            =  -5.4710313126790E+00
(PID.TID 0000.0001) %MON dynstat_theta_mean           =   3.5030506436585E+00
(PID.TID 0000.0001) %MON dynstat_theta_sd             =   4.7494167759363E+00
(PID.TID 0000.0001) %MON dynstat_theta_del2           =   9.5443987907876E-02
(PID.TID 0000.0001) %MON dynstat_salt_max             =   4.0829246859667E+01
(PID.TID 0000.0001) %MON dynstat_salt_min             =   1.8033759810305E+01
(PID.TID 0000.0001) %MON dynstat_salt_mean            =   3.4756098685742E+01
(PID.TID 0000.0001) %MON dynstat_salt_sd              =   5.1188494565855E-01
(PID.TID 0000.0001) %MON dynstat_salt_del2            =   2.0026781573654E-02
(PID.TID 0000.0001) %MON extforcing_qnet_max          =   7.8716421546035E+02
(PID.TID 0000.0001) %MON extforcing_qnet_min          =  -2.3750289536937E+02
(PID.TID 0000.0001) %MON extforcing_qnet_mean         =  -4.6783492223963E+00
(PID.TID 0000.0001) %MON extforcing_qnet_sd           =   1.2044842219738E+02
(PID.TID 0000.0001) %MON extforcing_qnet_del2         =   1.2468403752962E+01
(PID.TID 0000.0001) %MON extforcing_qsw_max           =   0.0000000000000E+00
(PID.TID 0000.0001) %MON extforcing_qsw_min           =   0.0000000000000E+00
(PID.TID 0000.0001) %MON extforcing_qsw_mean          =   0.0000000000000E+00
(PID.TID 0000.0001) %MON extforcing_qsw_sd            =   0.0000000000000E+00
(PID.TID 0000.0001) %MON extforcing_qsw_del2          =   0.0000000000000E+00
(PID.TID 0000.0001) %MON extforcing_empmr_max         =   1.2130628059951E-06
(PID.TID 0000.0001) %MON extforcing_empmr_min         =  -3.6504164308705E-07
(PID.TID 0000.0001) %MON extforcing_empmr_mean        =   6.7574509454123E-10
(PID.TID 0000.0001) %MON extforcing_empmr_sd          =   5.7553592639975E-08
(PID.TID 0000.0001) %MON extforcing_empmr_del2        =   9.0010907632578E-09
(PID.TID 0000.0001) %MON extforcing_fu_max            =   2.4736588936290E-01
(PID.TID 0000.0001) %MON extforcing_fu_min            =  -1.9688751208399E-01
(PID.TID 0000.0001) %MON extforcing_fu_mean           =  -1.4823479495418E-03
(PID.TID 0000.0001) %MON extforcing_fu_sd             =   6.1365172805616E-02
(PID.TID 0000.0001) %MON extforcing_fu_del2           =   3.3732971611955E-03
(PID.TID 0000.0001) %MON extforcing_fv_max            =   2.6622718829904E-01
(PID.TID 0000.0001) %MON extforcing_fv_min            =  -3.3085944368965E-01
(PID.TID 0000.0001) %MON extforcing_fv_mean           =  -5.0674282122700E-03
(PID.TID 0000.0001) %MON extforcing_fv_sd             =   6.8106312635140E-02
(PID.TID 0000.0001) %MON extforcing_fv_del2           =   3.3244437858630E-03
(PID.TID 0000.0001) %MON advcfl_uvel_max              =   7.6404632034701E-02
(PID.TID 0000.0001) %MON advcfl_vvel_max              =   8.5025057064916E-02
(PID.TID 0000.0001) %MON advcfl_wvel_max              =   5.8097039189835E-02
(PID.TID 0000.0001) %MON advcfl_W_hf_max              =   1.2741523258455E-01
(PID.TID 0000.0001) %MON pe_b_mean                    =  -1.9070393203379E-03
(PID.TID 0000.0001) %MON ke_max                       =   3.6257732647392E-02
(PID.TID 0000.0001) %MON ke_mean                      =   1.6205260949947E-04
(PID.TID 0000.0001) %MON ke_vol                       =   1.3395911759610E+18
(PID.TID 0000.0001) %MON vort_r_min                   =  -1.2335193297353E-06
(PID.TID 0000.0001) %MON vort_r_max                   =   1.3830281109081E-06
(PID.TID 0000.0001) %MON vort_a_mean                  =  -2.0493733748264E-05
(PID.TID 0000.0001) %MON vort_a_sd                    =   7.5054013472741E-05
(PID.TID 0000.0001) %MON vort_p_mean                  =  -2.4719483285683E-05
(PID.TID 0000.0001) %MON vort_p_sd                    =   1.2782270833490E-04
(PID.TID 0000.0001) %MON surfExpan_theta_mean         =   8.4294265166573E-08
(PID.TID 0000.0001) %MON surfExpan_salt_mean          =   1.8942060734201E-08
(PID.TID 0000.0001) // =======================================================
(PID.TID 0000.0001) // End MONITOR dynamic field statistics
(PID.TID 0000.0001) // =======================================================
(PID.TID 0000.0001) // =======================================================
(PID.TID 0000.0001) // Begin MONITOR Therm.SeaIce statistics
(PID.TID 0000.0001) // =======================================================
(PID.TID 0000.0001) %MON thSI_time_sec                =   3.1109184000000E+09
(PID.TID 0000.0001) %MON thSI_Ice_Area_G              =   2.4729443471203E+13
(PID.TID 0000.0001) %MON thSI_Ice_Area_S              =   1.1810627479852E+13
(PID.TID 0000.0001) %MON thSI_Ice_Area_N              =   1.2918815991351E+13
(PID.TID 0000.0001) %MON thSI_IceH_ave_G              =   4.5696213960034E+00
(PID.TID 0000.0001) %MON thSI_IceH_ave_S              =   5.7598094434635E+00
(PID.TID 0000.0001) %MON thSI_IceH_ave_N              =   3.4815288286246E+00
(PID.TID 0000.0001) %MON thSI_IceH_max_S              =   1.0000000000000E+01
(PID.TID 0000.0001) %MON thSI_IceH_max_N              =   1.0000000000000E+01
(PID.TID 0000.0001) %MON thSI_SnwH_ave_G              =   1.0375371472564E+00
(PID.TID 0000.0001) %MON thSI_SnwH_ave_S              =   1.7786490494115E+00
(PID.TID 0000.0001) %MON thSI_SnwH_ave_N              =   3.5999853976332E-01
(PID.TID 0000.0001) %MON thSI_SnwH_max_S              =   4.0920927556252E+00
(PID.TID 0000.0001) %MON thSI_SnwH_max_N              =   4.0934348491688E+00
(PID.TID 0000.0001) %MON thSI_TotEnerg_G              =  -3.7921598896390E+22
(PID.TID 0000.0001) %MON thSI_Tsrf_ave_G              =  -1.7169220480731E+01
(PID.TID 0000.0001) %MON thSI_Tsrf_ave_S              =  -1.3317917976226E-01
(PID.TID 0000.0001) %MON thSI_Tsrf_ave_N              =  -3.2743893707118E+01
(PID.TID 0000.0001) %MON thSI_Tsrf_min_S              =  -5.3858771282037E+00
(PID.TID 0000.0001) %MON thSI_Tsrf_min_N              =  -4.6787664910377E+01
(PID.TID 0000.0001) %MON thSI_Tsrf_max_S              =   0.0000000000000E+00
(PID.TID 0000.0001) %MON thSI_Tsrf_max_N              =  -7.0393950779515E+00
(PID.TID 0000.0001) %MON thSI_Tic1_ave_G              =  -8.4974295364927E+00
(PID.TID 0000.0001) %MON thSI_Tic1_ave_S              =  -5.0455996630643E+00
(PID.TID 0000.0001) %MON thSI_Tic1_ave_N              =  -1.3718238018344E+01
(PID.TID 0000.0001) %MON thSI_Tic1_min_S              =  -1.5773796113890E+01
(PID.TID 0000.0001) %MON thSI_Tic1_min_N              =  -2.1037046900021E+01
(PID.TID 0000.0001) %MON thSI_Tic1_max_S              =  -1.8069770215440E-01
(PID.TID 0000.0001) %MON thSI_Tic1_max_N              =  -6.4217801634770E-01
(PID.TID 0000.0001) %MON thSI_Tic2_ave_G              =  -3.8424432168354E+00
(PID.TID 0000.0001) %MON thSI_Tic2_ave_S              =  -3.0962742322520E+00
(PID.TID 0000.0001) %MON thSI_Tic2_ave_N              =  -4.9710056044532E+00
(PID.TID 0000.0001) %MON thSI_Tic2_min_S              =  -8.6778825009501E+00
(PID.TID 0000.0001) %MON thSI_Tic2_min_N              =  -7.6180316239987E+00
(PID.TID 0000.0001) %MON thSI_Tic2_max_S              =  -1.2541720156254E+00
(PID.TID 0000.0001) %MON thSI_Tic2_max_N              =  -1.2629477758733E+00
(PID.TID 0000.0001) // =======================================================
(PID.TID 0000.0001) // End MONITOR Therm.SeaIce statistics
(PID.TID 0000.0001) // =======================================================
 cg2d: Sum(rhs),rhsMax =   3.90426414774885E+02  2.29904632514144E+02
(PID.TID 0000.0001)                    cg2d_init_res =    2.68721759635728E+00
(PID.TID 0000.0001)                       cg2d_iters =    69
(PID.TID 0000.0001)                         cg2d_res =    5.65949782004410E-07
(PID.TID 0000.0001) // =======================================================
(PID.TID 0000.0001) // Begin MONITOR dynamic field statistics
(PID.TID 0000.0001) // =======================================================
(PID.TID 0000.0001) %MON time_tsnumber                =                 36007
(PID.TID 0000.0001) %MON time_secondsf                =   3.1110048000000E+09
(PID.TID 0000.0001) %MON dynstat_eta_max              =   7.2593587455307E-01
(PID.TID 0000.0001) %MON dynstat_eta_min              =  -1.1974344171038E+01
(PID.TID 0000.0001) %MON dynstat_eta_mean             =  -5.8069800711548E-01
(PID.TID 0000.0001) %MON dynstat_eta_sd               =   1.6950376637012E+00
(PID.TID 0000.0001) %MON dynstat_eta_del2             =   9.6466096922437E-02
(PID.TID 0000.0001) %MON dynstat_uvel_max             =   1.7456012897478E-01
(PID.TID 0000.0001) %MON dynstat_uvel_min             =  -2.6900749430071E-01
(PID.TID 0000.0001) %MON dynstat_uvel_mean            =  -5.2579575826912E-04
(PID.TID 0000.0001) %MON dynstat_uvel_sd              =   1.2985567851261E-02
(PID.TID 0000.0001) %MON dynstat_uvel_del2            =   1.7914798735211E-03
(PID.TID 0000.0001) %MON dynstat_vvel_max             =   1.9518452022067E-01
(PID.TID 0000.0001) %MON dynstat_vvel_min             =  -2.1116636570728E-01
(PID.TID 0000.0001) %MON dynstat_vvel_mean            =  -4.2253319735131E-04
(PID.TID 0000.0001) %MON dynstat_vvel_sd              =   1.3486525349737E-02
(PID.TID 0000.0001) %MON dynstat_vvel_del2            =   1.8245590596114E-03
(PID.TID 0000.0001) %MON dynstat_wvel_max             =   8.6020483939617E-05
(PID.TID 0000.0001) %MON dynstat_wvel_min             =  -1.7824939369272E-04
(PID.TID 0000.0001) %MON dynstat_wvel_mean            =  -1.1066624366991E-09
(PID.TID 0000.0001) %MON dynstat_wvel_sd              =   4.6251542218711E-06
(PID.TID 0000.0001) %MON dynstat_wvel_del2            =   1.1347203822626E-06
(PID.TID 0000.0001) %MON dynstat_theta_max            =   3.0039510154107E+01
(PID.TID 0000.0001) %MON dynstat_theta_min            =  -5.4643242794439E+00
(PID.TID 0000.0001) %MON dynstat_theta_mean           =   3.5031078148250E+00
(PID.TID 0000.0001) %MON dynstat_theta_sd             =   4.7494990785542E+00
(PID.TID 0000.0001) %MON dynstat_theta_del2           =   9.5476678081806E-02
(PID.TID 0000.0001) %MON dynstat_salt_max             =   4.0831046677996E+01
(PID.TID 0000.0001) %MON dynstat_salt_min             =   1.8034320779829E+01
(PID.TID 0000.0001) %MON dynstat_salt_mean            =   3.4756099980375E+01
(PID.TID 0000.0001) %MON dynstat_salt_sd              =   5.1187675113197E-01
(PID.TID 0000.0001) %MON dynstat_salt_del2            =   2.0026999856136E-02
(PID.TID 0000.0001) %MON extforcing_qnet_max          =   7.9044495530858E+02
(PID.TID 0000.0001) %MON extforcing_qnet_min          =  -2.3676642245624E+02
(PID.TID 0000.0001) %MON extforcing_qnet_mean         =  -4.6781792765798E+00
(PID.TID 0000.0001) %MON extforcing_qnet_sd           =   1.2022431528033E+02
(PID.TID 0000.0001) %MON extforcing_qnet_del2         =   1.2436599585565E+01
(PID.TID 0000.0001) %MON extforcing_qsw_max           =   0.0000000000000E+00
(PID.TID 0000.0001) %MON extforcing_qsw_min           =   0.0000000000000E+00
(PID.TID 0000.0001) %MON extforcing_qsw_mean          =   0.0000000000000E+00
(PID.TID 0000.0001) %MON extforcing_qsw_sd            =   0.0000000000000E+00
(PID.TID 0000.0001) %MON extforcing_qsw_del2          =   0.0000000000000E+00
(PID.TID 0000.0001) %MON extforcing_empmr_max         =   6.8999391228072E-07
(PID.TID 0000.0001) %MON extforcing_empmr_min         =  -3.5200905987361E-07
(PID.TID 0000.0001) %MON extforcing_empmr_mean        =   6.0489580231088E-10
(PID.TID 0000.0001) %MON extforcing_empmr_sd          =   5.5165574188478E-08
(PID.TID 0000.0001) %MON extforcing_empmr_del2        =   8.7121952428859E-09
(PID.TID 0000.0001) %MON extforcing_fu_max            =   2.4731784009269E-01
(PID.TID 0000.0001) %MON extforcing_fu_min            =  -1.9855636047431E-01
(PID.TID 0000.0001) %MON extforcing_fu_mean           =  -1.4845562072787E-03
(PID.TID 0000.0001) %MON extforcing_fu_sd             =   6.1397818456311E-02
(PID.TID 0000.0001) %MON extforcing_fu_del2           =   3.3852475017162E-03
(PID.TID 0000.0001) %MON extforcing_fv_max            =   2.6891042987167E-01
(PID.TID 0000.0001) %MON extforcing_fv_min            =  -3.3164734762358E-01
(PID.TID 0000.0001) %MON extforcing_fv_mean           =  -5.1285811184007E-03
(PID.TID 0000.0001) %MON extforcing_fv_sd             =   6.8308859987475E-02
(PID.TID 0000.0001) %MON extforcing_fv_del2           =   3.3339640091174E-03
(PID.TID 0000.0001) %MON advcfl_uvel_max              =   7.6295628102511E-02
(PID.TID 0000.0001) %MON advcfl_vvel_max              =   8.5078182562865E-02
(PID.TID 0000.0001) %MON advcfl_wvel_max              =   5.8116028736040E-02
(PID.TID 0000.0001) %MON advcfl_W_hf_max              =   1.2645066591146E-01
(PID.TID 0000.0001) %MON pe_b_mean                    =  -1.9058640775124E-03
(PID.TID 0000.0001) %MON ke_max                       =   3.6138382538913E-02
(PID.TID 0000.0001) %MON ke_mean                      =   1.6206188867085E-04
(PID.TID 0000.0001) %MON ke_vol                       =   1.3395911554342E+18
(PID.TID 0000.0001) %MON vort_r_min                   =  -1.2382133704984E-06
(PID.TID 0000.0001) %MON vort_r_max                   =   1.3865174170625E-06
(PID.TID 0000.0001) %MON vort_a_mean                  =  -2.0493733748264E-05
(PID.TID 0000.0001) %MON vort_a_sd                    =   7.5054013387232E-05
(PID.TID 0000.0001) %MON vort_p_mean                  =  -2.4719483207258E-05
(PID.TID 0000.0001) %MON vort_p_sd                    =   1.2782271419307E-04
(PID.TID 0000.0001) %MON surfExpan_theta_mean         =   8.4960475364409E-08
(PID.TID 0000.0001) %MON surfExpan_salt_mean          =   1.9087505681111E-08
(PID.TID 0000.0001) // =======================================================
(PID.TID 0000.0001) // End MONITOR dynamic field statistics
(PID.TID 0000.0001) // =======================================================
(PID.TID 0000.0001) // =======================================================
(PID.TID 0000.0001) // Begin MONITOR Therm.SeaIce statistics
(PID.TID 0000.0001) // =======================================================
(PID.TID 0000.0001) %MON thSI_time_sec                =   3.1110048000000E+09
(PID.TID 0000.0001) %MON thSI_Ice_Area_G              =   2.4743087512399E+13
(PID.TID 0000.0001) %MON thSI_Ice_Area_S              =   1.1761270552485E+13
(PID.TID 0000.0001) %MON thSI_Ice_Area_N              =   1.2981816959915E+13
(PID.TID 0000.0001) %MON thSI_IceH_ave_G              =   4.5681520520274E+00
(PID.TID 0000.0001) %MON thSI_IceH_ave_S              =   5.7767133552016E+00
(PID.TID 0000.0001) %MON thSI_IceH_ave_N              =   3.4732193080375E+00
(PID.TID 0000.0001) %MON thSI_IceH_max_S              =   1.0000000000000E+01
(PID.TID 0000.0001) %MON thSI_IceH_max_N              =   1.0000000000000E+01
(PID.TID 0000.0001) %MON thSI_SnwH_ave_G              =   1.0330555766451E+00
(PID.TID 0000.0001) %MON thSI_SnwH_ave_S              =   1.7747083865650E+00
(PID.TID 0000.0001) %MON thSI_SnwH_ave_N              =   3.6113273407133E-01
(PID.TID 0000.0001) %MON thSI_SnwH_max_S              =   4.0920950170871E+00
(PID.TID 0000.0001) %MON thSI_SnwH_max_N              =   4.0934476190664E+00
(PID.TID 0000.0001) %MON thSI_TotEnerg_G              =  -3.7922435455878E+22
(PID.TID 0000.0001) %MON thSI_Tsrf_ave_G              =  -1.7230602164673E+01
(PID.TID 0000.0001) %MON thSI_Tsrf_ave_S              =  -1.1531436955566E-01
(PID.TID 0000.0001) %MON thSI_Tsrf_ave_N              =  -3.2736715905421E+01
(PID.TID 0000.0001) %MON thSI_Tsrf_min_S              =  -5.4020638128444E+00
(PID.TID 0000.0001) %MON thSI_Tsrf_min_N              =  -4.6902555298214E+01
(PID.TID 0000.0001) %MON thSI_Tsrf_max_S              =   0.0000000000000E+00
(PID.TID 0000.0001) %MON thSI_Tsrf_max_N              =  -1.8883329796904E+00
(PID.TID 0000.0001) %MON thSI_Tic1_ave_G              =  -8.5217435492910E+00
(PID.TID 0000.0001) %MON thSI_Tic1_ave_S              =  -5.0252764309993E+00
(PID.TID 0000.0001) %MON thSI_Tic1_ave_N              =  -1.3790362854043E+01
(PID.TID 0000.0001) %MON thSI_Tic1_min_S              =  -1.5629889357691E+01
(PID.TID 0000.0001) %MON thSI_Tic1_min_N              =  -2.1103737092142E+01
(PID.TID 0000.0001) %MON thSI_Tic1_max_S              =  -1.9866724342078E-01
(PID.TID 0000.0001) %MON thSI_Tic1_max_N              =  -6.5245759140829E-01
(PID.TID 0000.0001) %MON thSI_Tic2_ave_G              =  -3.8536984827385E+00
(PID.TID 0000.0001) %MON thSI_Tic2_ave_S              =  -3.0925350629735E+00
(PID.TID 0000.0001) %MON thSI_Tic2_ave_N              =  -5.0006505780307E+00
(PID.TID 0000.0001) %MON thSI_Tic2_min_S              =  -8.6494508335333E+00
(PID.TID 0000.0001) %MON thSI_Tic2_min_N              =  -7.6507130333156E+00
(PID.TID 0000.0001) %MON thSI_Tic2_max_S              =  -1.2518198716198E+00
(PID.TID 0000.0001) %MON thSI_Tic2_max_N              =  -1.2789625617380E+00
(PID.TID 0000.0001) // =======================================================
(PID.TID 0000.0001) // End MONITOR Therm.SeaIce statistics
(PID.TID 0000.0001) // =======================================================
 cg2d: Sum(rhs),rhsMax =   3.90460021368568E+02  2.30021680983488E+02
(PID.TID 0000.0001)                    cg2d_init_res =    2.63838693927059E+00
(PID.TID 0000.0001)                       cg2d_iters =    69
(PID.TID 0000.0001)                         cg2d_res =    5.69997265879360E-07
(PID.TID 0000.0001) // =======================================================
(PID.TID 0000.0001) // Begin MONITOR dynamic field statistics
(PID.TID 0000.0001) // =======================================================
(PID.TID 0000.0001) %MON time_tsnumber                =                 36008
(PID.TID 0000.0001) %MON time_secondsf                =   3.1110912000000E+09
(PID.TID 0000.0001) %MON dynstat_eta_max              =   7.2464489281832E-01
(PID.TID 0000.0001) %MON dynstat_eta_min              =  -1.1972228642860E+01
(PID.TID 0000.0001) %MON dynstat_eta_mean             =  -5.8074799164839E-01
(PID.TID 0000.0001) %MON dynstat_eta_sd               =   1.6944576813094E+00
(PID.TID 0000.0001) %MON dynstat_eta_del2             =   9.6486405063947E-02
(PID.TID 0000.0001) %MON dynstat_uvel_max             =   1.7462968225347E-01
(PID.TID 0000.0001) %MON dynstat_uvel_min             =  -2.6861087758221E-01
(PID.TID 0000.0001) %MON dynstat_uvel_mean            =  -5.2538658046214E-04
(PID.TID 0000.0001) %MON dynstat_uvel_sd              =   1.2984736980086E-02
(PID.TID 0000.0001) %MON dynstat_uvel_del2            =   1.7911089678250E-03
(PID.TID 0000.0001) %MON dynstat_vvel_max             =   1.9524526699111E-01
(PID.TID 0000.0001) %MON dynstat_vvel_min             =  -2.1123376810787E-01
(PID.TID 0000.0001) %MON dynstat_vvel_mean            =  -4.2184277880283E-04
(PID.TID 0000.0001) %MON dynstat_vvel_sd              =   1.3487852961103E-02
(PID.TID 0000.0001) %MON dynstat_vvel_del2            =   1.8234590876035E-03
(PID.TID 0000.0001) %MON dynstat_wvel_max             =   8.6779753296823E-05
(PID.TID 0000.0001) %MON dynstat_wvel_min             =  -1.7825704249344E-04
(PID.TID 0000.0001) %MON dynstat_wvel_mean            =  -1.0779523281595E-09
(PID.TID 0000.0001) %MON dynstat_wvel_sd              =   4.6247182867189E-06
(PID.TID 0000.0001) %MON dynstat_wvel_del2            =   1.1343298122644E-06
(PID.TID 0000.0001) %MON dynstat_theta_max            =   3.0020345126049E+01
(PID.TID 0000.0001) %MON dynstat_theta_min            =  -5.4574517855921E+00
(PID.TID 0000.0001) %MON dynstat_theta_mean           =   3.5031650456019E+00
(PID.TID 0000.0001) %MON dynstat_theta_sd             =   4.7495854181260E+00
(PID.TID 0000.0001) %MON dynstat_theta_del2           =   9.5515692908756E-02
(PID.TID 0000.0001) %MON dynstat_salt_max             =   4.0832708215574E+01
(PID.TID 0000.0001) %MON dynstat_salt_min             =   1.8034878718115E+01
(PID.TID 0000.0001) %MON dynstat_salt_mean            =   3.4756101284326E+01
(PID.TID 0000.0001) %MON dynstat_salt_sd              =   5.1186840638152E-01
(PID.TID 0000.0001) %MON dynstat_salt_del2            =   2.0022307460695E-02
(PID.TID 0000.0001) %MON extforcing_qnet_max          =   7.9369312004707E+02
(PID.TID 0000.0001) %MON extforcing_qnet_min          =  -2.3630884777381E+02
(PID.TID 0000.0001) %MON extforcing_qnet_mean         =  -4.6842894407544E+00
(PID.TID 0000.0001) %MON extforcing_qnet_sd           =   1.2015323091303E+02
(PID.TID 0000.0001) %MON extforcing_qnet_del2         =   1.2484097397944E+01
(PID.TID 0000.0001) %MON extforcing_qsw_max           =   0.0000000000000E+00
(PID.TID 0000.0001) %MON extforcing_qsw_min           =   0.0000000000000E+00
(PID.TID 0000.0001) %MON extforcing_qsw_mean          =   0.0000000000000E+00
(PID.TID 0000.0001) %MON extforcing_qsw_sd            =   0.0000000000000E+00
(PID.TID 0000.0001) %MON extforcing_qsw_del2          =   0.0000000000000E+00
(PID.TID 0000.0001) %MON extforcing_empmr_max         =   7.7326121468162E-07
(PID.TID 0000.0001) %MON extforcing_empmr_min         =  -3.3780246126556E-07
(PID.TID 0000.0001) %MON extforcing_empmr_mean        =   5.9877305047969E-10
(PID.TID 0000.0001) %MON extforcing_empmr_sd          =   5.4359632459950E-08
(PID.TID 0000.0001) %MON extforcing_empmr_del2        =   8.5554770196313E-09
(PID.TID 0000.0001) %MON extforcing_fu_max            =   2.4726979082249E-01
(PID.TID 0000.0001) %MON extforcing_fu_min            =  -2.0022520886463E-01
(PID.TID 0000.0001) %MON extforcing_fu_mean           =  -1.4867644831649E-03
(PID.TID 0000.0001) %MON extforcing_fu_sd             =   6.1443022663819E-02
(PID.TID 0000.0001) %MON extforcing_fu_del2           =   3.3994041068143E-03
(PID.TID 0000.0001) %MON extforcing_fv_max            =   2.7159367144430E-01
(PID.TID 0000.0001) %MON extforcing_fv_min            =  -3.3243525155752E-01
(PID.TID 0000.0001) %MON extforcing_fv_mean           =  -5.1897341226384E-03
(PID.TID 0000.0001) %MON extforcing_fv_sd             =   6.8519348682065E-02
(PID.TID 0000.0001) %MON extforcing_fv_del2           =   3.3461490794461E-03
(PID.TID 0000.0001) %MON advcfl_uvel_max              =   7.6183140077846E-02
(PID.TID 0000.0001) %MON advcfl_vvel_max              =   8.5104661224284E-02
(PID.TID 0000.0001) %MON advcfl_wvel_max              =   5.8118522533710E-02
(PID.TID 0000.0001) %MON advcfl_W_hf_max              =   1.2542241843311E-01
(PID.TID 0000.0001) %MON pe_b_mean                    =  -1.9047428374386E-03
(PID.TID 0000.0001) %MON ke_max                       =   3.6016439241669E-02
(PID.TID 0000.0001) %MON ke_mean                      =   1.6206813504512E-04
(PID.TID 0000.0001) %MON ke_vol                       =   1.3395911370595E+18
(PID.TID 0000.0001) %MON vort_r_min                   =  -1.2430704827574E-06
(PID.TID 0000.0001) %MON vort_r_max                   =   1.3900645376189E-06
(PID.TID 0000.0001) %MON vort_a_mean                  =  -2.0493733748264E-05
(PID.TID 0000.0001) %MON vort_a_sd                    =   7.5054013305844E-05
(PID.TID 0000.0001) %MON vort_p_mean                  =  -2.4719483054427E-05
(PID.TID 0000.0001) %MON vort_p_sd                    =   1.2782272032350E-04
(PID.TID 0000.0001) %MON surfExpan_theta_mean         =   8.5573963147993E-08
(PID.TID 0000.0001) %MON surfExpan_salt_mean          =   1.9155631523540E-08
(PID.TID 0000.0001) // =======================================================
(PID.TID 0000.0001) // End MONITOR dynamic field statistics
(PID.TID 0000.0001) // =======================================================
(PID.TID 0000.0001) // =======================================================
(PID.TID 0000.0001) // Begin MONITOR Therm.SeaIce statistics
(PID.TID 0000.0001) // =======================================================
(PID.TID 0000.0001) %MON thSI_time_sec                =   3.1110912000000E+09
(PID.TID 0000.0001) %MON thSI_Ice_Area_G              =   2.4741382757548E+13
(PID.TID 0000.0001) %MON thSI_Ice_Area_S              =   1.1720609327318E+13
(PID.TID 0000.0001) %MON thSI_Ice_Area_N              =   1.3020773430230E+13
(PID.TID 0000.0001) %MON thSI_IceH_ave_G              =   4.5693897455331E+00
(PID.TID 0000.0001) %MON thSI_IceH_ave_S              =   5.7895483355059E+00
(PID.TID 0000.0001) %MON thSI_IceH_ave_N              =   3.4710677274845E+00
(PID.TID 0000.0001) %MON thSI_IceH_max_S              =   1.0000000000000E+01
(PID.TID 0000.0001) %MON thSI_IceH_max_N              =   1.0000000000000E+01
(PID.TID 0000.0001) %MON thSI_SnwH_ave_G              =   1.0295275151834E+00
(PID.TID 0000.0001) %MON thSI_SnwH_ave_S              =   1.7700578306847E+00
(PID.TID 0000.0001) %MON thSI_SnwH_ave_N              =   3.6294141954685E-01
(PID.TID 0000.0001) %MON thSI_SnwH_max_S              =   4.0920946912801E+00
(PID.TID 0000.0001) %MON thSI_SnwH_max_N              =   4.0934603860051E+00
(PID.TID 0000.0001) %MON thSI_TotEnerg_G              =  -3.7922482819253E+22
(PID.TID 0000.0001) %MON thSI_Tsrf_ave_G              =  -1.7327209207065E+01
(PID.TID 0000.0001) %MON thSI_Tsrf_ave_S              =  -1.3712777191481E-01
(PID.TID 0000.0001) %MON thSI_Tsrf_ave_N              =  -3.2800808366575E+01
(PID.TID 0000.0001) %MON thSI_Tsrf_min_S              =  -5.4182112425927E+00
(PID.TID 0000.0001) %MON thSI_Tsrf_min_N              =  -4.7017499689621E+01
(PID.TID 0000.0001) %MON thSI_Tsrf_max_S              =   0.0000000000000E+00
(PID.TID 0000.0001) %MON thSI_Tsrf_max_N              =  -8.1883366210853E+00
(PID.TID 0000.0001) %MON thSI_Tic1_ave_G              =  -8.5427789454386E+00
(PID.TID 0000.0001) %MON thSI_Tic1_ave_S              =  -4.9996548662437E+00
(PID.TID 0000.0001) %MON thSI_Tic1_ave_N              =  -1.3862408205245E+01
(PID.TID 0000.0001) %MON thSI_Tic1_min_S              =  -1.5487612963864E+01
(PID.TID 0000.0001) %MON thSI_Tic1_min_N              =  -2.1168162791628E+01
(PID.TID 0000.0001) %MON thSI_Tic1_max_S              =  -1.9853630631258E-01
(PID.TID 0000.0001) %MON thSI_Tic1_max_N              =  -6.6304554716763E-01
(PID.TID 0000.0001) %MON thSI_Tic2_ave_G              =  -3.8648902353631E+00
(PID.TID 0000.0001) %MON thSI_Tic2_ave_S              =  -3.0887335120440E+00
(PID.TID 0000.0001) %MON thSI_Tic2_ave_N              =  -5.0302081647602E+00
(PID.TID 0000.0001) %MON thSI_Tic2_min_S              =  -8.6196076804757E+00
(PID.TID 0000.0001) %MON thSI_Tic2_min_N              =  -7.6823642324955E+00
(PID.TID 0000.0001) %MON thSI_Tic2_max_S              =  -1.1979956858860E+00
(PID.TID 0000.0001) %MON thSI_Tic2_max_N              =  -1.2945015524298E+00
(PID.TID 0000.0001) // =======================================================
(PID.TID 0000.0001) // End MONITOR Therm.SeaIce statistics
(PID.TID 0000.0001) // =======================================================
 cg2d: Sum(rhs),rhsMax =   3.90490772854136E+02  2.30144555829134E+02
(PID.TID 0000.0001)                    cg2d_init_res =    2.64991086588603E+00
(PID.TID 0000.0001)                       cg2d_iters =    70
(PID.TID 0000.0001)                         cg2d_res =    4.69945019545953E-07
(PID.TID 0000.0001) // =======================================================
(PID.TID 0000.0001) // Begin MONITOR dynamic field statistics
(PID.TID 0000.0001) // =======================================================
(PID.TID 0000.0001) %MON time_tsnumber                =                 36009
(PID.TID 0000.0001) %MON time_secondsf                =   3.1111776000000E+09
(PID.TID 0000.0001) %MON dynstat_eta_max              =   7.2331554958450E-01
(PID.TID 0000.0001) %MON dynstat_eta_min              =  -1.1970012241367E+01
(PID.TID 0000.0001) %MON dynstat_eta_mean             =  -5.8079372965614E-01
(PID.TID 0000.0001) %MON dynstat_eta_sd               =   1.6939277516302E+00
(PID.TID 0000.0001) %MON dynstat_eta_del2             =   9.6507778462927E-02
(PID.TID 0000.0001) %MON dynstat_uvel_max             =   1.7463707596562E-01
(PID.TID 0000.0001) %MON dynstat_uvel_min             =  -2.6820149757866E-01
(PID.TID 0000.0001) %MON dynstat_uvel_mean            =  -5.2496748062261E-04
(PID.TID 0000.0001) %MON dynstat_uvel_sd              =   1.2983986579678E-02
(PID.TID 0000.0001) %MON dynstat_uvel_del2            =   1.7906940269830E-03
(PID.TID 0000.0001) %MON dynstat_vvel_max             =   1.9524444423653E-01
(PID.TID 0000.0001) %MON dynstat_vvel_min             =  -2.1129488853118E-01
(PID.TID 0000.0001) %MON dynstat_vvel_mean            =  -4.2114650371882E-04
(PID.TID 0000.0001) %MON dynstat_vvel_sd              =   1.3488855741333E-02
(PID.TID 0000.0001) %MON dynstat_vvel_del2            =   1.8224069075064E-03
(PID.TID 0000.0001) %MON dynstat_wvel_max             =   8.7539823200144E-05
(PID.TID 0000.0001) %MON dynstat_wvel_min             =  -1.7821696486063E-04
(PID.TID 0000.0001) %MON dynstat_wvel_mean            =  -1.0729891903355E-09
(PID.TID 0000.0001) %MON dynstat_wvel_sd              =   4.6242986053321E-06
(PID.TID 0000.0001) %MON dynstat_wvel_del2            =   1.1341124529903E-06
(PID.TID 0000.0001) %MON dynstat_theta_max            =   3.0001008930484E+01
(PID.TID 0000.0001) %MON dynstat_theta_min            =  -5.4504020133911E+00
(PID.TID 0000.0001) %MON dynstat_theta_mean           =   3.5032221283350E+00
(PID.TID 0000.0001) %MON dynstat_theta_sd             =   4.7496762922161E+00
(PID.TID 0000.0001) %MON dynstat_theta_del2           =   9.5538068494997E-02
(PID.TID 0000.0001) %MON dynstat_salt_max             =   4.0834233149470E+01
(PID.TID 0000.0001) %MON dynstat_salt_min             =   1.8035439776851E+01
(PID.TID 0000.0001) %MON dynstat_salt_mean            =   3.4756102572952E+01
(PID.TID 0000.0001) %MON dynstat_salt_sd              =   5.1186015085575E-01
(PID.TID 0000.0001) %MON dynstat_salt_del2            =   2.0020352933608E-02
(PID.TID 0000.0001) %MON extforcing_qnet_max          =   7.9689315390172E+02
(PID.TID 0000.0001) %MON extforcing_qnet_min          =  -2.3592580084196E+02
(PID.TID 0000.0001) %MON extforcing_qnet_mean         =  -4.6545818307650E+00
(PID.TID 0000.0001) %MON extforcing_qnet_sd           =   1.2007751300148E+02
(PID.TID 0000.0001) %MON extforcing_qnet_del2         =   1.2519934207025E+01
(PID.TID 0000.0001) %MON extforcing_qsw_max           =   0.0000000000000E+00
(PID.TID 0000.0001) %MON extforcing_qsw_min           =   0.0000000000000E+00
(PID.TID 0000.0001) %MON extforcing_qsw_mean          =   0.0000000000000E+00
(PID.TID 0000.0001) %MON extforcing_qsw_sd            =   0.0000000000000E+00
(PID.TID 0000.0001) %MON extforcing_qsw_del2          =   0.0000000000000E+00
(PID.TID 0000.0001) %MON extforcing_empmr_max         =   5.1427906490637E-07
(PID.TID 0000.0001) %MON extforcing_empmr_min         =  -2.9904383509857E-07
(PID.TID 0000.0001) %MON extforcing_empmr_mean        =   5.4790321786604E-10
(PID.TID 0000.0001) %MON extforcing_empmr_sd          =   5.2975095462695E-08
(PID.TID 0000.0001) %MON extforcing_empmr_del2        =   8.4725172988556E-09
(PID.TID 0000.0001) %MON extforcing_fu_max            =   2.4722174155228E-01
(PID.TID 0000.0001) %MON extforcing_fu_min            =  -2.0189405725496E-01
(PID.TID 0000.0001) %MON extforcing_fu_mean           =  -1.4889728263834E-03
(PID.TID 0000.0001) %MON extforcing_fu_sd             =   6.1500757693637E-02
(PID.TID 0000.0001) %MON extforcing_fu_del2           =   3.4156393841176E-03
(PID.TID 0000.0001) %MON extforcing_fv_max            =   2.7427691301694E-01
(PID.TID 0000.0001) %MON extforcing_fv_min            =  -3.3322315549145E-01
(PID.TID 0000.0001) %MON extforcing_fv_mean           =  -5.2508872132401E-03
(PID.TID 0000.0001) %MON extforcing_fv_sd             =   6.8737705822294E-02
(PID.TID 0000.0001) %MON extforcing_fv_del2           =   3.3610533236295E-03
(PID.TID 0000.0001) %MON advcfl_uvel_max              =   7.6067032143439E-02
(PID.TID 0000.0001) %MON advcfl_vvel_max              =   8.5104302597153E-02
(PID.TID 0000.0001) %MON advcfl_wvel_max              =   5.8105455713049E-02
(PID.TID 0000.0001) %MON advcfl_W_hf_max              =   1.2433401363725E-01
(PID.TID 0000.0001) %MON pe_b_mean                    =  -1.9037289520958E-03
(PID.TID 0000.0001) %MON ke_max                       =   3.5891832522887E-02
(PID.TID 0000.0001) %MON ke_mean                      =   1.6207127310400E-04
(PID.TID 0000.0001) %MON ke_vol                       =   1.3395911188708E+18
(PID.TID 0000.0001) %MON vort_r_min                   =  -1.2480607064945E-06
(PID.TID 0000.0001) %MON vort_r_max                   =   1.3936229757564E-06
(PID.TID 0000.0001) %MON vort_a_mean                  =  -2.0493733748264E-05
(PID.TID 0000.0001) %MON vort_a_sd                    =   7.5054013227227E-05
(PID.TID 0000.0001) %MON vort_p_mean                  =  -2.4719482910295E-05
(PID.TID 0000.0001) %MON vort_p_sd                    =   1.2782272713575E-04
(PID.TID 0000.0001) %MON surfExpan_theta_mean         =   8.6032928541221E-08
(PID.TID 0000.0001) %MON surfExpan_salt_mean          =   1.9247563969116E-08
(PID.TID 0000.0001) // =======================================================
(PID.TID 0000.0001) // End MONITOR dynamic field statistics
(PID.TID 0000.0001) // =======================================================
(PID.TID 0000.0001) // =======================================================
(PID.TID 0000.0001) // Begin MONITOR Therm.SeaIce statistics
(PID.TID 0000.0001) // =======================================================
(PID.TID 0000.0001) %MON thSI_time_sec                =   3.1111776000000E+09
(PID.TID 0000.0001) %MON thSI_Ice_Area_G              =   2.4732224965322E+13
(PID.TID 0000.0001) %MON thSI_Ice_Area_S              =   1.1685703597001E+13
(PID.TID 0000.0001) %MON thSI_Ice_Area_N              =   1.3046521368322E+13
(PID.TID 0000.0001) %MON thSI_IceH_ave_G              =   4.5718528840073E+00
(PID.TID 0000.0001) %MON thSI_IceH_ave_S              =   5.7996736239068E+00
(PID.TID 0000.0001) %MON thSI_IceH_ave_N              =   3.4721000202629E+00
(PID.TID 0000.0001) %MON thSI_IceH_max_S              =   1.0000000000000E+01
(PID.TID 0000.0001) %MON thSI_IceH_max_N              =   1.0000000000000E+01
(PID.TID 0000.0001) %MON thSI_SnwH_ave_G              =   1.0265022002321E+00
(PID.TID 0000.0001) %MON thSI_SnwH_ave_S              =   1.7649270421476E+00
(PID.TID 0000.0001) %MON thSI_SnwH_ave_N              =   3.6509878182829E-01
(PID.TID 0000.0001) %MON thSI_SnwH_max_S              =   4.0920940252000E+00
(PID.TID 0000.0001) %MON thSI_SnwH_max_N              =   4.0934731499928E+00
(PID.TID 0000.0001) %MON thSI_TotEnerg_G              =  -3.7921915367031E+22
(PID.TID 0000.0001) %MON thSI_Tsrf_ave_G              =  -1.7399289122984E+01
(PID.TID 0000.0001) %MON thSI_Tsrf_ave_S              =  -1.1865683642387E-01
(PID.TID 0000.0001) %MON thSI_Tsrf_ave_N              =  -3.2877464582062E+01
(PID.TID 0000.0001) %MON thSI_Tsrf_min_S              =  -5.4343197272875E+00
(PID.TID 0000.0001) %MON thSI_Tsrf_min_N              =  -4.7132499027744E+01
(PID.TID 0000.0001) %MON thSI_Tsrf_max_S              =   0.0000000000000E+00
(PID.TID 0000.0001) %MON thSI_Tsrf_max_N              =  -9.3206745173149E+00
(PID.TID 0000.0001) %MON thSI_Tic1_ave_G              =  -8.5657665973894E+00
(PID.TID 0000.0001) %MON thSI_Tic1_ave_S              =  -4.9781560238521E+00
(PID.TID 0000.0001) %MON thSI_Tic1_ave_N              =  -1.3933324756439E+01
(PID.TID 0000.0001) %MON thSI_Tic1_min_S              =  -1.5346949224623E+01
(PID.TID 0000.0001) %MON thSI_Tic1_min_N              =  -2.1230408766073E+01
(PID.TID 0000.0001) %MON thSI_Tic1_max_S              =  -1.9101775587243E-01
(PID.TID 0000.0001) %MON thSI_Tic1_max_N              =  -6.7395538992553E-01
(PID.TID 0000.0001) %MON thSI_Tic2_ave_G              =  -3.8758562853655E+00
(PID.TID 0000.0001) %MON thSI_Tic2_ave_S              =  -3.0848831337571E+00
(PID.TID 0000.0001) %MON thSI_Tic2_ave_N              =  -5.0592607565255E+00
(PID.TID 0000.0001) %MON thSI_Tic2_min_S              =  -8.5896487087344E+00
(PID.TID 0000.0001) %MON thSI_Tic2_min_N              =  -7.7130152989312E+00
(PID.TID 0000.0001) %MON thSI_Tic2_max_S              =  -1.1510050227024E+00
(PID.TID 0000.0001) %MON thSI_Tic2_max_N              =  -1.3095768804024E+00
(PID.TID 0000.0001) // =======================================================
(PID.TID 0000.0001) // End MONITOR Therm.SeaIce statistics
(PID.TID 0000.0001) // =======================================================
 cg2d: Sum(rhs),rhsMax =   3.90517712518637E+02  2.30272615667943E+02
(PID.TID 0000.0001)                    cg2d_init_res =    2.62971866764261E+00
(PID.TID 0000.0001)                       cg2d_iters =    70
(PID.TID 0000.0001)                         cg2d_res =    4.76470386136976E-07
(PID.TID 0000.0001) // =======================================================
(PID.TID 0000.0001) // Begin MONITOR dynamic field statistics
(PID.TID 0000.0001) // =======================================================
(PID.TID 0000.0001) %MON time_tsnumber                =                 36010
(PID.TID 0000.0001) %MON time_secondsf                =   3.1112640000000E+09
(PID.TID 0000.0001) %MON dynstat_eta_max              =   7.2194265754181E-01
(PID.TID 0000.0001) %MON dynstat_eta_min              =  -1.1967683267714E+01
(PID.TID 0000.0001) %MON dynstat_eta_mean             =  -5.8083379817839E-01
(PID.TID 0000.0001) %MON dynstat_eta_sd               =   1.6934235543100E+00
(PID.TID 0000.0001) %MON dynstat_eta_del2             =   9.6525472809415E-02
(PID.TID 0000.0001) %MON dynstat_uvel_max             =   1.7458441371614E-01
(PID.TID 0000.0001) %MON dynstat_uvel_min             =  -2.6777898044364E-01
(PID.TID 0000.0001) %MON dynstat_uvel_mean            =  -5.2451907495902E-04
(PID.TID 0000.0001) %MON dynstat_uvel_sd              =   1.2983356936350E-02
(PID.TID 0000.0001) %MON dynstat_uvel_del2            =   1.7903164162486E-03
(PID.TID 0000.0001) %MON dynstat_vvel_max             =   1.9518194396988E-01
(PID.TID 0000.0001) %MON dynstat_vvel_min             =  -2.1135005447570E-01
(PID.TID 0000.0001) %MON dynstat_vvel_mean            =  -4.2047230928255E-04
(PID.TID 0000.0001) %MON dynstat_vvel_sd              =   1.3489493933358E-02
(PID.TID 0000.0001) %MON dynstat_vvel_del2            =   1.8214118685995E-03
(PID.TID 0000.0001) %MON dynstat_wvel_max             =   8.8290285124892E-05
(PID.TID 0000.0001) %MON dynstat_wvel_min             =  -1.7813381076802E-04
(PID.TID 0000.0001) %MON dynstat_wvel_mean            =  -1.0620973461906E-09
(PID.TID 0000.0001) %MON dynstat_wvel_sd              =   4.6239200029512E-06
(PID.TID 0000.0001) %MON dynstat_wvel_del2            =   1.1339095268645E-06
(PID.TID 0000.0001) %MON dynstat_theta_max            =   2.9981562433568E+01
(PID.TID 0000.0001) %MON dynstat_theta_min            =  -5.4431661342277E+00
(PID.TID 0000.0001) %MON dynstat_theta_mean           =   3.5032789204659E+00
(PID.TID 0000.0001) %MON dynstat_theta_sd             =   4.7497710148112E+00
(PID.TID 0000.0001) %MON dynstat_theta_del2           =   9.5571583971086E-02
(PID.TID 0000.0001) %MON dynstat_salt_max             =   4.0835622921304E+01
(PID.TID 0000.0001) %MON dynstat_salt_min             =   1.8036014793303E+01
(PID.TID 0000.0001) %MON dynstat_salt_mean            =   3.4756103830025E+01
(PID.TID 0000.0001) %MON dynstat_salt_sd              =   5.1185174750018E-01
(PID.TID 0000.0001) %MON dynstat_salt_del2            =   2.0021599424187E-02
(PID.TID 0000.0001) %MON extforcing_qnet_max          =   8.0007085008990E+02
(PID.TID 0000.0001) %MON extforcing_qnet_min          =  -2.3554462777589E+02
(PID.TID 0000.0001) %MON extforcing_qnet_mean         =  -4.6112824392231E+00
(PID.TID 0000.0001) %MON extforcing_qnet_sd           =   1.2005949118098E+02
(PID.TID 0000.0001) %MON extforcing_qnet_del2         =   1.2557234959792E+01
(PID.TID 0000.0001) %MON extforcing_qsw_max           =   0.0000000000000E+00
(PID.TID 0000.0001) %MON extforcing_qsw_min           =   0.0000000000000E+00
(PID.TID 0000.0001) %MON extforcing_qsw_mean          =   0.0000000000000E+00
(PID.TID 0000.0001) %MON extforcing_qsw_sd            =   0.0000000000000E+00
(PID.TID 0000.0001) %MON extforcing_qsw_del2          =   0.0000000000000E+00
(PID.TID 0000.0001) %MON extforcing_empmr_max         =   3.9164018261503E-07
(PID.TID 0000.0001) %MON extforcing_empmr_min         =  -3.0559260446670E-07
(PID.TID 0000.0001) %MON extforcing_empmr_mean        =   4.7998750613709E-10
(PID.TID 0000.0001) %MON extforcing_empmr_sd          =   5.2431337008068E-08
(PID.TID 0000.0001) %MON extforcing_empmr_del2        =   8.4508690218475E-09
(PID.TID 0000.0001) %MON extforcing_fu_max            =   2.4734156444157E-01
(PID.TID 0000.0001) %MON extforcing_fu_min            =  -2.0356290564528E-01
(PID.TID 0000.0001) %MON extforcing_fu_mean           =  -1.4911812784853E-03
(PID.TID 0000.0001) %MON extforcing_fu_sd             =   6.1570988233217E-02
(PID.TID 0000.0001) %MON extforcing_fu_del2           =   3.4345095694594E-03
(PID.TID 0000.0001) %MON extforcing_fv_max            =   2.7696015458957E-01
(PID.TID 0000.0001) %MON extforcing_fv_min            =  -3.3401105942538E-01
(PID.TID 0000.0001) %MON extforcing_fv_mean           =  -5.3120403393443E-03
(PID.TID 0000.0001) %MON extforcing_fv_sd             =   6.8963856667715E-02
(PID.TID 0000.0001) %MON extforcing_fv_del2           =   3.3780333545283E-03
(PID.TID 0000.0001) %MON advcfl_uvel_max              =   7.5947198269352E-02
(PID.TID 0000.0001) %MON advcfl_vvel_max              =   8.5077059611437E-02
(PID.TID 0000.0001) %MON advcfl_wvel_max              =   5.8078344340969E-02
(PID.TID 0000.0001) %MON advcfl_W_hf_max              =   1.2318697199296E-01
(PID.TID 0000.0001) %MON pe_b_mean                    =  -1.9027400866958E-03
(PID.TID 0000.0001) %MON ke_max                       =   3.5764523461755E-02
(PID.TID 0000.0001) %MON ke_mean                      =   1.6207128602247E-04
(PID.TID 0000.0001) %MON ke_vol                       =   1.3395911022273E+18
(PID.TID 0000.0001) %MON vort_r_min                   =  -1.2531539004872E-06
(PID.TID 0000.0001) %MON vort_r_max                   =   1.3971481545930E-06
(PID.TID 0000.0001) %MON vort_a_mean                  =  -2.0493733748264E-05
(PID.TID 0000.0001) %MON vort_a_sd                    =   7.5054013150890E-05
(PID.TID 0000.0001) %MON vort_p_mean                  =  -2.4719482764483E-05
(PID.TID 0000.0001) %MON vort_p_sd                    =   1.2782273448565E-04
(PID.TID 0000.0001) %MON surfExpan_theta_mean         =   8.6368905473003E-08
(PID.TID 0000.0001) %MON surfExpan_salt_mean          =   1.9394499708547E-08
(PID.TID 0000.0001) // =======================================================
(PID.TID 0000.0001) // End MONITOR dynamic field statistics
(PID.TID 0000.0001) // =======================================================
(PID.TID 0000.0001) // =======================================================
(PID.TID 0000.0001) // Begin MONITOR Therm.SeaIce statistics
(PID.TID 0000.0001) // =======================================================
(PID.TID 0000.0001) %MON thSI_time_sec                =   3.1112640000000E+09
(PID.TID 0000.0001) %MON thSI_Ice_Area_G              =   2.4718930624350E+13
(PID.TID 0000.0001) %MON thSI_Ice_Area_S              =   1.1651089213311E+13
(PID.TID 0000.0001) %MON thSI_Ice_Area_N              =   1.3067841411039E+13
(PID.TID 0000.0001) %MON thSI_IceH_ave_G              =   4.5749475728410E+00
(PID.TID 0000.0001) %MON thSI_IceH_ave_S              =   5.8097256192244E+00
(PID.TID 0000.0001) %MON thSI_IceH_ave_N              =   3.4740381935079E+00
(PID.TID 0000.0001) %MON thSI_IceH_max_S              =   1.0000000000000E+01
(PID.TID 0000.0001) %MON thSI_IceH_max_N              =   1.0000000000000E+01
(PID.TID 0000.0001) %MON thSI_SnwH_ave_G              =   1.0237197325191E+00
(PID.TID 0000.0001) %MON thSI_SnwH_ave_S              =   1.7598723691600E+00
(PID.TID 0000.0001) %MON thSI_SnwH_ave_N              =   3.6737720628748E-01
(PID.TID 0000.0001) %MON thSI_SnwH_max_S              =   4.0920933044168E+00
(PID.TID 0000.0001) %MON thSI_SnwH_max_N              =   4.0934859110812E+00
(PID.TID 0000.0001) %MON thSI_TotEnerg_G              =  -3.7920098135465E+22
(PID.TID 0000.0001) %MON thSI_Tsrf_ave_G              =  -1.7491068748754E+01
(PID.TID 0000.0001) %MON thSI_Tsrf_ave_S              =  -1.4088690102214E-01
(PID.TID 0000.0001) %MON thSI_Tsrf_ave_N              =  -3.2960227748826E+01
(PID.TID 0000.0001) %MON thSI_Tsrf_min_S              =  -5.4503895784328E+00
(PID.TID 0000.0001) %MON thSI_Tsrf_min_N              =  -4.7247554255434E+01
(PID.TID 0000.0001) %MON thSI_Tsrf_max_S              =   0.0000000000000E+00
(PID.TID 0000.0001) %MON thSI_Tsrf_max_N              =  -9.9296949093200E+00
(PID.TID 0000.0001) %MON thSI_Tic1_ave_G              =  -8.5856218250249E+00
(PID.TID 0000.0001) %MON thSI_Tic1_ave_S              =  -4.9521984947287E+00
(PID.TID 0000.0001) %MON thSI_Tic1_ave_N              =  -1.4003131632188E+01
(PID.TID 0000.0001) %MON thSI_Tic1_min_S              =  -1.5207880588930E+01
(PID.TID 0000.0001) %MON thSI_Tic1_min_N              =  -2.1290556299125E+01
(PID.TID 0000.0001) %MON thSI_Tic1_max_S              =  -1.8400638607186E-01
(PID.TID 0000.0001) %MON thSI_Tic1_max_N              =  -6.8520134387985E-01
(PID.TID 0000.0001) %MON thSI_Tic2_ave_G              =  -3.8865933609807E+00
(PID.TID 0000.0001) %MON thSI_Tic2_ave_S              =  -3.0809833837355E+00
(PID.TID 0000.0001) %MON thSI_Tic2_ave_N              =  -5.0877746040478E+00
(PID.TID 0000.0001) %MON thSI_Tic2_min_S              =  -8.5583347947253E+00
(PID.TID 0000.0001) %MON thSI_Tic2_min_N              =  -7.7426958889331E+00
(PID.TID 0000.0001) %MON thSI_Tic2_max_S              =  -1.1097591850911E+00
(PID.TID 0000.0001) %MON thSI_Tic2_max_N              =  -1.3242035519954E+00
(PID.TID 0000.0001) // =======================================================
(PID.TID 0000.0001) // End MONITOR Therm.SeaIce statistics
(PID.TID 0000.0001) // =======================================================
 Compute Stats, Diag. #  23  ETAN      vol(  0 ): 3.639E+15  Parms: SM      M1      
 Compute Stats, Diag. #  30  UVEL      vol(  0 ): 1.231E+19  Parms: UU   031MR      
 Compute Stats, Diag. #  31  VVEL      vol(  0 ): 1.243E+19  Parms: VV   030MR      
 Compute Stats, Diag. #  32  WVEL      vol(  0 ): 1.315E+19  Parms: WM      LR      
 Compute Stats, Diag. #  26  THETA     vol(  0 ): 1.340E+19  Parms: SM      MR      
 Compute Stats, Diag. #  27  SALT      vol(  0 ): 1.340E+19  Parms: SM      MR      
 Compute Stats, Diag. #  70  CONVADJ   vol(  0 ): 1.315E+19  Parms: SM      LR      
 Compute Stats, Diag. #  25  DETADT2   vol(  0 ): 3.639E+15  Parms: SM      M1      
 Compute Stats, Diag. # 181  SI_Fract  vol(  0 ): 3.639E+15  Parms: SM P    M1      
 Compute Stats, Diag. # 181  SI_Fract  vol(  1 ): 1.289E+15  Parms: SM P    M1      
 Compute Stats, Diag. # 181  SI_Fract  vol(  3 ): 7.935E+14  Parms: SM P    M1      
 Compute Stats, Diag. # 182  SI_Thick  vol(  0 ): 2.472E+14  Parms: SM PC181M1      
    use Counter Mate  # 181  SI_Fract  vol(  0 ): 3.639E+15 integral 2.472E+14
 Compute Stats, Diag. # 182  SI_Thick  vol(  1 ): 1.189E+14  Parms: SM PC181M1      
    use Counter Mate  # 181  SI_Fract  vol(  1 ): 1.289E+15 integral 1.189E+14
 Compute Stats, Diag. # 182  SI_Thick  vol(  3 ): 1.283E+14  Parms: SM PC181M1      
    use Counter Mate  # 181  SI_Fract  vol(  3 ): 7.935E+14 integral 1.283E+14
 Compute Stats, Diag. # 183  SI_SnowH  vol(  0 ): 2.472E+14  Parms: SM PC181M1      
    use Counter Mate  # 181  SI_Fract  vol(  0 ): 3.639E+15 integral 2.472E+14
 Compute Stats, Diag. # 183  SI_SnowH  vol(  1 ): 1.189E+14  Parms: SM PC181M1      
    use Counter Mate  # 181  SI_Fract  vol(  1 ): 1.289E+15 integral 1.189E+14
 Compute Stats, Diag. # 183  SI_SnowH  vol(  3 ): 1.283E+14  Parms: SM PC181M1      
    use Counter Mate  # 181  SI_Fract  vol(  3 ): 7.935E+14 integral 1.283E+14
 Compute Stats, Diag. # 184  SI_Tsrf   vol(  0 ): 2.472E+14  Parms: SM  C181M1      
    use Counter Mate  # 181  SI_Fract  vol(  0 ): 3.639E+15 integral 2.472E+14
 Compute Stats, Diag. # 184  SI_Tsrf   vol(  1 ): 1.189E+14  Parms: SM  C181M1      
    use Counter Mate  # 181  SI_Fract  vol(  1 ): 1.289E+15 integral 1.189E+14
 Compute Stats, Diag. # 184  SI_Tsrf   vol(  3 ): 1.283E+14  Parms: SM  C181M1      
    use Counter Mate  # 181  SI_Fract  vol(  3 ): 7.935E+14 integral 1.283E+14
 Compute Stats, Diag. # 185  SI_Tice1  vol(  0 ): 2.472E+14  Parms: SM  C181M1      
    use Counter Mate  # 181  SI_Fract  vol(  0 ): 3.639E+15 integral 2.472E+14
 Compute Stats, Diag. # 185  SI_Tice1  vol(  1 ): 1.189E+14  Parms: SM  C181M1      
    use Counter Mate  # 181  SI_Fract  vol(  1 ): 1.289E+15 integral 1.189E+14
 Compute Stats, Diag. # 185  SI_Tice1  vol(  3 ): 1.283E+14  Parms: SM  C181M1      
    use Counter Mate  # 181  SI_Fract  vol(  3 ): 7.935E+14 integral 1.283E+14
 Compute Stats, Diag. # 186  SI_Tice2  vol(  0 ): 2.472E+14  Parms: SM  C181M1      
    use Counter Mate  # 181  SI_Fract  vol(  0 ): 3.639E+15 integral 2.472E+14
 Compute Stats, Diag. # 186  SI_Tice2  vol(  1 ): 1.189E+14  Parms: SM  C181M1      
    use Counter Mate  # 181  SI_Fract  vol(  1 ): 1.289E+15 integral 1.189E+14
 Compute Stats, Diag. # 186  SI_Tice2  vol(  3 ): 1.283E+14  Parms: SM  C181M1      
    use Counter Mate  # 181  SI_Fract  vol(  3 ): 7.935E+14 integral 1.283E+14
 Compute Stats, Diag. # 187  SI_Qice1  vol(  0 ): 1.130E+15  Parms: SM  C182M1      
    use Counter Mate  # 182  SI_Thick  vol(  0 ): 2.472E+14 integral 1.130E+15
 Compute Stats, Diag. # 187  SI_Qice1  vol(  1 ): 6.816E+14  Parms: SM  C182M1      
    use Counter Mate  # 182  SI_Thick  vol(  1 ): 1.189E+14 integral 6.816E+14
 Compute Stats, Diag. # 187  SI_Qice1  vol(  3 ): 4.481E+14  Parms: SM  C182M1      
    use Counter Mate  # 182  SI_Thick  vol(  3 ): 1.283E+14 integral 4.481E+14
 Compute Stats, Diag. # 188  SI_Qice2  vol(  0 ): 1.130E+15  Parms: SM  C182M1      
    use Counter Mate  # 182  SI_Thick  vol(  0 ): 2.472E+14 integral 1.130E+15
 Compute Stats, Diag. # 188  SI_Qice2  vol(  1 ): 6.816E+14  Parms: SM  C182M1      
    use Counter Mate  # 182  SI_Thick  vol(  1 ): 1.189E+14 integral 6.816E+14
 Compute Stats, Diag. # 188  SI_Qice2  vol(  3 ): 4.481E+14  Parms: SM  C182M1      
    use Counter Mate  # 182  SI_Thick  vol(  3 ): 1.283E+14 integral 4.481E+14
 Compute Stats, Diag. # 191  SIsnwPrc  vol(  0 ): 2.472E+14  Parms: SM  C181M1      
    use Counter Mate  # 181  SI_Fract  vol(  0 ): 3.639E+15 integral 2.472E+14
 Compute Stats, Diag. # 191  SIsnwPrc  vol(  1 ): 1.189E+14  Parms: SM  C181M1      
    use Counter Mate  # 181  SI_Fract  vol(  1 ): 1.289E+15 integral 1.189E+14
 Compute Stats, Diag. # 191  SIsnwPrc  vol(  3 ): 1.283E+14  Parms: SM  C181M1      
    use Counter Mate  # 181  SI_Fract  vol(  3 ): 7.935E+14 integral 1.283E+14
 Compute Stats, Diag. # 189  SIalbedo  vol(  0 ): 2.472E+14  Parms: SM PC181M1      
    use Counter Mate  # 181  SI_Fract  vol(  0 ): 3.639E+15 integral 2.472E+14
 Compute Stats, Diag. # 189  SIalbedo  vol(  1 ): 1.189E+14  Parms: SM PC181M1      
    use Counter Mate  # 181  SI_Fract  vol(  1 ): 1.289E+15 integral 1.189E+14
 Compute Stats, Diag. # 189  SIalbedo  vol(  3 ): 1.283E+14  Parms: SM PC181M1      
    use Counter Mate  # 181  SI_Fract  vol(  3 ): 7.935E+14 integral 1.283E+14
 Compute Stats, Diag. # 190  SIsnwAge  vol(  0 ): 3.639E+15  Parms: SM P    M1      
 Compute Stats, Diag. # 190  SIsnwAge  vol(  1 ): 1.289E+15  Parms: SM P    M1      
 Compute Stats, Diag. # 190  SIsnwAge  vol(  3 ): 7.935E+14  Parms: SM P    M1      
 Compute Stats, Diag. # 194  SIflx2oc  vol(  0 ): 3.639E+15  Parms: SM      M1      
 Compute Stats, Diag. # 194  SIflx2oc  vol(  1 ): 1.289E+15  Parms: SM      M1      
 Compute Stats, Diag. # 194  SIflx2oc  vol(  3 ): 7.935E+14  Parms: SM      M1      
 Compute Stats, Diag. # 195  SIfrw2oc  vol(  0 ): 3.639E+15  Parms: SM      M1      
 Compute Stats, Diag. # 195  SIfrw2oc  vol(  1 ): 1.289E+15  Parms: SM      M1      
 Compute Stats, Diag. # 195  SIfrw2oc  vol(  3 ): 7.935E+14  Parms: SM      M1      
 Compute Stats, Diag. # 196  SIsaltFx  vol(  0 ): 3.639E+15  Parms: SM      M1      
 Compute Stats, Diag. # 196  SIsaltFx  vol(  1 ): 1.289E+15  Parms: SM      M1      
 Compute Stats, Diag. # 196  SIsaltFx  vol(  3 ): 7.935E+14  Parms: SM      M1      
 Compute Stats, Diag. # 192  SIflxAtm  vol(  0 ): 3.639E+15  Parms: SM      M1      
 Compute Stats, Diag. # 192  SIflxAtm  vol(  1 ): 1.289E+15  Parms: SM      M1      
 Compute Stats, Diag. # 192  SIflxAtm  vol(  3 ): 7.935E+14  Parms: SM      M1      
 Compute Stats, Diag. # 193  SIfrwAtm  vol(  0 ): 3.639E+15  Parms: SM      M1      
 Compute Stats, Diag. # 193  SIfrwAtm  vol(  1 ): 1.289E+15  Parms: SM      M1      
 Compute Stats, Diag. # 193  SIfrwAtm  vol(  3 ): 7.935E+14  Parms: SM      M1      
 cg2d: Sum(rhs),rhsMax =   3.90546287361004E+02  2.30404705109913E+02
(PID.TID 0000.0001)                    cg2d_init_res =    2.66685028357407E+00
(PID.TID 0000.0001)                       cg2d_iters =    70
(PID.TID 0000.0001)                         cg2d_res =    4.94656370211477E-07
(PID.TID 0000.0001) // =======================================================
(PID.TID 0000.0001) // Begin MONITOR dynamic field statistics
(PID.TID 0000.0001) // =======================================================
(PID.TID 0000.0001) %MON time_tsnumber                =                 36011
(PID.TID 0000.0001) %MON time_secondsf                =   3.1113504000000E+09
(PID.TID 0000.0001) %MON dynstat_eta_max              =   7.2054031576163E-01
(PID.TID 0000.0001) %MON dynstat_eta_min              =  -1.1965225655404E+01
(PID.TID 0000.0001) %MON dynstat_eta_mean             =  -5.8087629877104E-01
(PID.TID 0000.0001) %MON dynstat_eta_sd               =   1.6929303077537E+00
(PID.TID 0000.0001) %MON dynstat_eta_del2             =   9.6516932945901E-02
(PID.TID 0000.0001) %MON dynstat_uvel_max             =   1.7447465029648E-01
(PID.TID 0000.0001) %MON dynstat_uvel_min             =  -2.6734308507696E-01
(PID.TID 0000.0001) %MON dynstat_uvel_mean            =  -5.2402298854738E-04
(PID.TID 0000.0001) %MON dynstat_uvel_sd              =   1.2982878903926E-02
(PID.TID 0000.0001) %MON dynstat_uvel_del2            =   1.7900397944049E-03
(PID.TID 0000.0001) %MON dynstat_vvel_max             =   1.9505867018070E-01
(PID.TID 0000.0001) %MON dynstat_vvel_min             =  -2.1139957613889E-01
(PID.TID 0000.0001) %MON dynstat_vvel_mean            =  -4.1983806063854E-04
(PID.TID 0000.0001) %MON dynstat_vvel_sd              =   1.3489741030644E-02
(PID.TID 0000.0001) %MON dynstat_vvel_del2            =   1.8204587873000E-03
(PID.TID 0000.0001) %MON dynstat_wvel_max             =   8.9024587019528E-05
(PID.TID 0000.0001) %MON dynstat_wvel_min             =  -1.7801173190271E-04
(PID.TID 0000.0001) %MON dynstat_wvel_mean            =  -1.0371414240278E-09
(PID.TID 0000.0001) %MON dynstat_wvel_sd              =   4.6235845590488E-06
(PID.TID 0000.0001) %MON dynstat_wvel_del2            =   1.1337155442439E-06
(PID.TID 0000.0001) %MON dynstat_theta_max            =   2.9962062343350E+01
(PID.TID 0000.0001) %MON dynstat_theta_min            =  -5.4357384295605E+00
(PID.TID 0000.0001) %MON dynstat_theta_mean           =   3.5033357036599E+00
(PID.TID 0000.0001) %MON dynstat_theta_sd             =   4.7498694456563E+00
(PID.TID 0000.0001) %MON dynstat_theta_del2           =   9.5625794025246E-02
(PID.TID 0000.0001) %MON dynstat_salt_max             =   4.0836878881609E+01
(PID.TID 0000.0001) %MON dynstat_salt_min             =   1.8036625592389E+01
(PID.TID 0000.0001) %MON dynstat_salt_mean            =   3.4756105126759E+01
(PID.TID 0000.0001) %MON dynstat_salt_sd              =   5.1184276250292E-01
(PID.TID 0000.0001) %MON dynstat_salt_del2            =   2.0024740387476E-02
(PID.TID 0000.0001) %MON extforcing_qnet_max          =   8.0322164395658E+02
(PID.TID 0000.0001) %MON extforcing_qnet_min          =  -2.3516530280319E+02
(PID.TID 0000.0001) %MON extforcing_qnet_mean         =  -4.6141559296837E+00
(PID.TID 0000.0001) %MON extforcing_qnet_sd           =   1.1999494298578E+02
(PID.TID 0000.0001) %MON extforcing_qnet_del2         =   1.2598138223633E+01
(PID.TID 0000.0001) %MON extforcing_qsw_max           =   0.0000000000000E+00
(PID.TID 0000.0001) %MON extforcing_qsw_min           =   0.0000000000000E+00
(PID.TID 0000.0001) %MON extforcing_qsw_mean          =   0.0000000000000E+00
(PID.TID 0000.0001) %MON extforcing_qsw_sd            =   0.0000000000000E+00
(PID.TID 0000.0001) %MON extforcing_qsw_del2          =   0.0000000000000E+00
(PID.TID 0000.0001) %MON extforcing_empmr_max         =   7.3907890466781E-07
(PID.TID 0000.0001) %MON extforcing_empmr_min         =  -3.1143124689721E-07
(PID.TID 0000.0001) %MON extforcing_empmr_mean        =   5.0912168283269E-10
(PID.TID 0000.0001) %MON extforcing_empmr_sd          =   5.3199864640495E-08
(PID.TID 0000.0001) %MON extforcing_empmr_del2        =   8.5796234298535E-09
(PID.TID 0000.0001) %MON extforcing_fu_max            =   2.4760593894036E-01
(PID.TID 0000.0001) %MON extforcing_fu_min            =  -2.0523175403560E-01
(PID.TID 0000.0001) %MON extforcing_fu_mean           =  -1.4933898498647E-03
(PID.TID 0000.0001) %MON extforcing_fu_sd             =   6.1653671521148E-02
(PID.TID 0000.0001) %MON extforcing_fu_del2           =   3.4557020502382E-03
(PID.TID 0000.0001) %MON extforcing_fv_max            =   2.7964339616220E-01
(PID.TID 0000.0001) %MON extforcing_fv_min            =  -3.3479896335931E-01
(PID.TID 0000.0001) %MON extforcing_fv_mean           =  -5.3731934254391E-03
(PID.TID 0000.0001) %MON extforcing_fv_sd             =   6.9197724732422E-02
(PID.TID 0000.0001) %MON extforcing_fv_del2           =   3.3965934382679E-03
(PID.TID 0000.0001) %MON advcfl_uvel_max              =   7.5823570074999E-02
(PID.TID 0000.0001) %MON advcfl_vvel_max              =   8.5023326303440E-02
(PID.TID 0000.0001) %MON advcfl_wvel_max              =   5.8038542024129E-02
(PID.TID 0000.0001) %MON advcfl_W_hf_max              =   1.2198350696027E-01
(PID.TID 0000.0001) %MON pe_b_mean                    =  -1.9017414569728E-03
(PID.TID 0000.0001) %MON ke_max                       =   3.5634510914471E-02
(PID.TID 0000.0001) %MON ke_mean                      =   1.6206820714075E-04
(PID.TID 0000.0001) %MON ke_vol                       =   1.3395910876469E+18
(PID.TID 0000.0001) %MON vort_r_min                   =  -1.2583201514404E-06
(PID.TID 0000.0001) %MON vort_r_max                   =   1.4005949459561E-06
(PID.TID 0000.0001) %MON vort_a_mean                  =  -2.0493733748264E-05
(PID.TID 0000.0001) %MON vort_a_sd                    =   7.5054013076849E-05
(PID.TID 0000.0001) %MON vort_p_mean                  =  -2.4719482599602E-05
(PID.TID 0000.0001) %MON vort_p_sd                    =   1.2782274200487E-04
(PID.TID 0000.0001) %MON surfExpan_theta_mean         =   8.5985789686821E-08
(PID.TID 0000.0001) %MON surfExpan_salt_mean          =   1.9350808684258E-08
(PID.TID 0000.0001) // =======================================================
(PID.TID 0000.0001) // End MONITOR dynamic field statistics
(PID.TID 0000.0001) // =======================================================
(PID.TID 0000.0001) // =======================================================
(PID.TID 0000.0001) // Begin MONITOR Therm.SeaIce statistics
(PID.TID 0000.0001) // =======================================================
(PID.TID 0000.0001) %MON thSI_time_sec                =   3.1113504000000E+09
(PID.TID 0000.0001) %MON thSI_Ice_Area_G              =   2.4731370036564E+13
(PID.TID 0000.0001) %MON thSI_Ice_Area_S              =   1.1617416001713E+13
(PID.TID 0000.0001) %MON thSI_Ice_Area_N              =   1.3113954034852E+13
(PID.TID 0000.0001) %MON thSI_IceH_ave_G              =   4.5732612525520E+00
(PID.TID 0000.0001) %MON thSI_IceH_ave_S              =   5.8192361292260E+00
(PID.TID 0000.0001) %MON thSI_IceH_ave_N              =   3.4694745203782E+00
(PID.TID 0000.0001) %MON thSI_IceH_max_S              =   1.0000000000000E+01
(PID.TID 0000.0001) %MON thSI_IceH_max_N              =   1.0000000000000E+01
(PID.TID 0000.0001) %MON thSI_SnwH_ave_G              =   1.0200118195623E+00
(PID.TID 0000.0001) %MON thSI_SnwH_ave_S              =   1.7549400780018E+00
(PID.TID 0000.0001) %MON thSI_SnwH_ave_N              =   3.6895209440125E-01
(PID.TID 0000.0001) %MON thSI_SnwH_max_S              =   4.0920925657703E+00
(PID.TID 0000.0001) %MON thSI_SnwH_max_N              =   4.0934986693258E+00
(PID.TID 0000.0001) %MON thSI_TotEnerg_G              =  -3.7918812244101E+22
(PID.TID 0000.0001) %MON thSI_Tsrf_ave_G              =  -1.7544901136924E+01
(PID.TID 0000.0001) %MON thSI_Tsrf_ave_S              =  -1.2194859303453E-01
(PID.TID 0000.0001) %MON thSI_Tsrf_ave_N              =  -3.2979581412800E+01
(PID.TID 0000.0001) %MON thSI_Tsrf_min_S              =  -5.4664211092594E+00
(PID.TID 0000.0001) %MON thSI_Tsrf_min_N              =  -4.7362666315053E+01
(PID.TID 0000.0001) %MON thSI_Tsrf_max_S              =   0.0000000000000E+00
(PID.TID 0000.0001) %MON thSI_Tsrf_max_N              =  -1.7602832345657E+00
(PID.TID 0000.0001) %MON thSI_Tic1_ave_G              =  -8.6082978885611E+00
(PID.TID 0000.0001) %MON thSI_Tic1_ave_S              =  -4.9320569029125E+00
(PID.TID 0000.0001) %MON thSI_Tic1_ave_N              =  -1.4070680717337E+01
(PID.TID 0000.0001) %MON thSI_Tic1_min_S              =  -1.5070389662048E+01
(PID.TID 0000.0001) %MON thSI_Tic1_min_N              =  -2.1348683349712E+01
(PID.TID 0000.0001) %MON thSI_Tic1_max_S              =  -1.7745127651535E-01
(PID.TID 0000.0001) %MON thSI_Tic1_max_N              =  -6.9679839453563E-01
(PID.TID 0000.0001) %MON thSI_Tic2_ave_G              =  -3.8971464047732E+00
(PID.TID 0000.0001) %MON thSI_Tic2_ave_S              =  -3.0771178740064E+00
(PID.TID 0000.0001) %MON thSI_Tic2_ave_N              =  -5.1155947554263E+00
(PID.TID 0000.0001) %MON thSI_Tic2_min_S              =  -8.5269450886228E+00
(PID.TID 0000.0001) %MON thSI_Tic2_min_N              =  -7.7714351815931E+00
(PID.TID 0000.0001) %MON thSI_Tic2_max_S              =  -1.0731315428970E+00
(PID.TID 0000.0001) %MON thSI_Tic2_max_N              =  -1.3383998116535E+00
(PID.TID 0000.0001) // =======================================================
(PID.TID 0000.0001) // End MONITOR Therm.SeaIce statistics
(PID.TID 0000.0001) // =======================================================
 cg2d: Sum(rhs),rhsMax =   3.90570599938419E+02  2.30539478161891E+02
(PID.TID 0000.0001)                    cg2d_init_res =    2.66882345477664E+00
(PID.TID 0000.0001)                       cg2d_iters =    70
(PID.TID 0000.0001)                         cg2d_res =    5.01908959923181E-07
(PID.TID 0000.0001) // =======================================================
(PID.TID 0000.0001) // Begin MONITOR dynamic field statistics
(PID.TID 0000.0001) // =======================================================
(PID.TID 0000.0001) %MON time_tsnumber                =                 36012
(PID.TID 0000.0001) %MON time_secondsf                =   3.1114368000000E+09
(PID.TID 0000.0001) %MON dynstat_eta_max              =   7.1912742173200E-01
(PID.TID 0000.0001) %MON dynstat_eta_min              =  -1.1962623080611E+01
(PID.TID 0000.0001) %MON dynstat_eta_mean             =  -5.8091245991363E-01
(PID.TID 0000.0001) %MON dynstat_eta_sd               =   1.6924470103874E+00
(PID.TID 0000.0001) %MON dynstat_eta_del2             =   9.6521277801103E-02
(PID.TID 0000.0001) %MON dynstat_uvel_max             =   1.7431151891693E-01
(PID.TID 0000.0001) %MON dynstat_uvel_min             =  -2.6689368578751E-01
(PID.TID 0000.0001) %MON dynstat_uvel_mean            =  -5.2346413572567E-04
(PID.TID 0000.0001) %MON dynstat_uvel_sd              =   1.2982571289778E-02
(PID.TID 0000.0001) %MON dynstat_uvel_del2            =   1.7898472446468E-03
(PID.TID 0000.0001) %MON dynstat_vvel_max             =   1.9487693723717E-01
(PID.TID 0000.0001) %MON dynstat_vvel_min             =  -2.1144373712108E-01
(PID.TID 0000.0001) %MON dynstat_vvel_mean            =  -4.1924631208394E-04
(PID.TID 0000.0001) %MON dynstat_vvel_sd              =   1.3489584883801E-02
(PID.TID 0000.0001) %MON dynstat_vvel_del2            =   1.8195735735383E-03
(PID.TID 0000.0001) %MON dynstat_wvel_max             =   8.9732380663003E-05
(PID.TID 0000.0001) %MON dynstat_wvel_min             =  -1.7785589335008E-04
(PID.TID 0000.0001) %MON dynstat_wvel_mean            =  -1.0415805484240E-09
(PID.TID 0000.0001) %MON dynstat_wvel_sd              =   4.6232923076837E-06
(PID.TID 0000.0001) %MON dynstat_wvel_del2            =   1.1335053165293E-06
(PID.TID 0000.0001) %MON dynstat_theta_max            =   2.9942561421213E+01
(PID.TID 0000.0001) %MON dynstat_theta_min            =  -5.4281163283861E+00
(PID.TID 0000.0001) %MON dynstat_theta_mean           =   3.5033922857508E+00
(PID.TID 0000.0001) %MON dynstat_theta_sd             =   4.7499706625004E+00
(PID.TID 0000.0001) %MON dynstat_theta_del2           =   9.5637591179766E-02
(PID.TID 0000.0001) %MON dynstat_salt_max             =   4.0838002427370E+01
(PID.TID 0000.0001) %MON dynstat_salt_min             =   1.8037325786051E+01
(PID.TID 0000.0001) %MON dynstat_salt_mean            =   3.4756106388564E+01
(PID.TID 0000.0001) %MON dynstat_salt_sd              =   5.1183338107991E-01
(PID.TID 0000.0001) %MON dynstat_salt_del2            =   2.0018942427640E-02
(PID.TID 0000.0001) %MON extforcing_qnet_max          =   8.0634677124507E+02
(PID.TID 0000.0001) %MON extforcing_qnet_min          =  -2.3478779070832E+02
(PID.TID 0000.0001) %MON extforcing_qnet_mean         =  -4.5928884658509E+00
(PID.TID 0000.0001) %MON extforcing_qnet_sd           =   1.2001559775221E+02
(PID.TID 0000.0001) %MON extforcing_qnet_del2         =   1.2681705112118E+01
(PID.TID 0000.0001) %MON extforcing_qsw_max           =   0.0000000000000E+00
(PID.TID 0000.0001) %MON extforcing_qsw_min           =   0.0000000000000E+00
(PID.TID 0000.0001) %MON extforcing_qsw_mean          =   0.0000000000000E+00
(PID.TID 0000.0001) %MON extforcing_qsw_sd            =   0.0000000000000E+00
(PID.TID 0000.0001) %MON extforcing_qsw_del2          =   0.0000000000000E+00
(PID.TID 0000.0001) %MON extforcing_empmr_max         =   7.4912894948956E-07
(PID.TID 0000.0001) %MON extforcing_empmr_min         =  -3.1542095424551E-07
(PID.TID 0000.0001) %MON extforcing_empmr_mean        =   4.3318035387314E-10
(PID.TID 0000.0001) %MON extforcing_empmr_sd          =   5.3072006121642E-08
(PID.TID 0000.0001) %MON extforcing_empmr_del2        =   8.5904869254842E-09
(PID.TID 0000.0001) %MON extforcing_fu_max            =   2.4787031343914E-01
(PID.TID 0000.0001) %MON extforcing_fu_min            =  -2.0690060242593E-01
(PID.TID 0000.0001) %MON extforcing_fu_mean           =  -1.4955985147949E-03
(PID.TID 0000.0001) %MON extforcing_fu_sd             =   6.1748757497398E-02
(PID.TID 0000.0001) %MON extforcing_fu_del2           =   3.4785310933711E-03
(PID.TID 0000.0001) %MON extforcing_fv_max            =   2.8232663773484E-01
(PID.TID 0000.0001) %MON extforcing_fv_min            =  -3.3558686729325E-01
(PID.TID 0000.0001) %MON extforcing_fv_mean           =  -5.4343464139098E-03
(PID.TID 0000.0001) %MON extforcing_fv_sd             =   6.9439231944788E-02
(PID.TID 0000.0001) %MON extforcing_fv_del2           =   3.4171694032282E-03
(PID.TID 0000.0001) %MON advcfl_uvel_max              =   7.5696111911995E-02
(PID.TID 0000.0001) %MON advcfl_vvel_max              =   8.4944111473648E-02
(PID.TID 0000.0001) %MON advcfl_wvel_max              =   5.7987732775272E-02
(PID.TID 0000.0001) %MON advcfl_W_hf_max              =   1.2072558421602E-01
(PID.TID 0000.0001) %MON pe_b_mean                    =  -1.9007621255690E-03
(PID.TID 0000.0001) %MON ke_max                       =   3.5501825109777E-02
(PID.TID 0000.0001) %MON ke_mean                      =   1.6206210170718E-04
(PID.TID 0000.0001) %MON ke_vol                       =   1.3395910721815E+18
(PID.TID 0000.0001) %MON vort_r_min                   =  -1.2635302165324E-06
(PID.TID 0000.0001) %MON vort_r_max                   =   1.4039207388984E-06
(PID.TID 0000.0001) %MON vort_a_mean                  =  -2.0493733748264E-05
(PID.TID 0000.0001) %MON vort_a_sd                    =   7.5054013005731E-05
(PID.TID 0000.0001) %MON vort_p_mean                  =  -2.4719482472716E-05
(PID.TID 0000.0001) %MON vort_p_sd                    =   1.2782275122498E-04
(PID.TID 0000.0001) %MON surfExpan_theta_mean         =   8.5775499358672E-08
(PID.TID 0000.0001) %MON surfExpan_salt_mean          =   1.9474790832152E-08
(PID.TID 0000.0001) // =======================================================
(PID.TID 0000.0001) // End MONITOR dynamic field statistics
(PID.TID 0000.0001) // =======================================================
(PID.TID 0000.0001) // =======================================================
(PID.TID 0000.0001) // Begin MONITOR Therm.SeaIce statistics
(PID.TID 0000.0001) // =======================================================
(PID.TID 0000.0001) %MON thSI_time_sec                =   3.1114368000000E+09
(PID.TID 0000.0001) %MON thSI_Ice_Area_G              =   2.4722511447761E+13
(PID.TID 0000.0001) %MON thSI_Ice_Area_S              =   1.1580482724487E+13
(PID.TID 0000.0001) %MON thSI_Ice_Area_N              =   1.3142028723274E+13
(PID.TID 0000.0001) %MON thSI_IceH_ave_G              =   4.5753537581957E+00
(PID.TID 0000.0001) %MON thSI_IceH_ave_S              =   5.8303374097641E+00
(PID.TID 0000.0001) %MON thSI_IceH_ave_N              =   3.4694882329771E+00
(PID.TID 0000.0001) %MON thSI_IceH_max_S              =   1.0000000000000E+01
(PID.TID 0000.0001) %MON thSI_IceH_max_N              =   1.0000000000000E+01
(PID.TID 0000.0001) %MON thSI_SnwH_ave_G              =   1.0173136475468E+00
(PID.TID 0000.0001) %MON thSI_SnwH_ave_S              =   1.7507269048514E+00
(PID.TID 0000.0001) %MON thSI_SnwH_ave_N              =   3.7104511968369E-01
(PID.TID 0000.0001) %MON thSI_SnwH_max_S              =   4.0920918141081E+00
(PID.TID 0000.0001) %MON thSI_SnwH_max_N              =   4.0935114247143E+00
(PID.TID 0000.0001) %MON thSI_TotEnerg_G              =  -3.7916408971097E+22
(PID.TID 0000.0001) %MON thSI_Tsrf_ave_G              =  -1.7638750402431E+01
(PID.TID 0000.0001) %MON thSI_Tsrf_ave_S              =  -1.4469824523148E-01
(PID.TID 0000.0001) %MON thSI_Tsrf_ave_N              =  -3.3054145776583E+01
(PID.TID 0000.0001) %MON thSI_Tsrf_min_S              =  -5.4824146347894E+00
(PID.TID 0000.0001) %MON thSI_Tsrf_min_N              =  -4.7477836148296E+01
(PID.TID 0000.0001) %MON thSI_Tsrf_max_S              =   0.0000000000000E+00
(PID.TID 0000.0001) %MON thSI_Tsrf_max_N              =  -6.5212552728268E+00
(PID.TID 0000.0001) %MON thSI_Tic1_ave_G              =  -8.6283208217337E+00
(PID.TID 0000.0001) %MON thSI_Tic1_ave_S              =  -4.9074140491594E+00
(PID.TID 0000.0001) %MON thSI_Tic1_ave_N              =  -1.4138190282419E+01
(PID.TID 0000.0001) %MON thSI_Tic1_min_S              =  -1.4934459205143E+01
(PID.TID 0000.0001) %MON thSI_Tic1_min_N              =  -2.1404864702709E+01
(PID.TID 0000.0001) %MON thSI_Tic1_max_S              =  -1.7130856028188E-01
(PID.TID 0000.0001) %MON thSI_Tic1_max_N              =  -7.0876233473066E-01
(PID.TID 0000.0001) %MON thSI_Tic2_ave_G              =  -3.9077605445169E+00
(PID.TID 0000.0001) %MON thSI_Tic2_ave_S              =  -3.0733053981928E+00
(PID.TID 0000.0001) %MON thSI_Tic2_ave_N              =  -5.1434106717739E+00
(PID.TID 0000.0001) %MON thSI_Tic2_min_S              =  -8.4942554726384E+00
(PID.TID 0000.0001) %MON thSI_Tic2_min_N              =  -7.7992618318005E+00
(PID.TID 0000.0001) %MON thSI_Tic2_max_S              =  -1.0404282945287E+00
(PID.TID 0000.0001) %MON thSI_Tic2_max_N              =  -1.3521882851610E+00
(PID.TID 0000.0001) // =======================================================
(PID.TID 0000.0001) // End MONITOR Therm.SeaIce statistics
(PID.TID 0000.0001) // =======================================================
 cg2d: Sum(rhs),rhsMax =   3.90590734773494E+02  2.30675475004768E+02
(PID.TID 0000.0001)                    cg2d_init_res =    2.64111706817202E+00
(PID.TID 0000.0001)                       cg2d_iters =    70
(PID.TID 0000.0001)                         cg2d_res =    4.99243044881556E-07
(PID.TID 0000.0001) // =======================================================
(PID.TID 0000.0001) // Begin MONITOR dynamic field statistics
(PID.TID 0000.0001) // =======================================================
(PID.TID 0000.0001) %MON time_tsnumber                =                 36013
(PID.TID 0000.0001) %MON time_secondsf                =   3.1115232000000E+09
(PID.TID 0000.0001) %MON dynstat_eta_max              =   7.1774685189220E-01
(PID.TID 0000.0001) %MON dynstat_eta_min              =  -1.1959863872235E+01
(PID.TID 0000.0001) %MON dynstat_eta_mean             =  -5.8094240732026E-01
(PID.TID 0000.0001) %MON dynstat_eta_sd               =   1.6919716385267E+00
(PID.TID 0000.0001) %MON dynstat_eta_del2             =   9.6524953902389E-02
(PID.TID 0000.0001) %MON dynstat_uvel_max             =   1.7409943315937E-01
(PID.TID 0000.0001) %MON dynstat_uvel_min             =  -2.6643073420767E-01
(PID.TID 0000.0001) %MON dynstat_uvel_mean            =  -5.2283759366857E-04
(PID.TID 0000.0001) %MON dynstat_uvel_sd              =   1.2982438746813E-02
(PID.TID 0000.0001) %MON dynstat_uvel_del2            =   1.7897851579918E-03
(PID.TID 0000.0001) %MON dynstat_vvel_max             =   1.9463667207682E-01
(PID.TID 0000.0001) %MON dynstat_vvel_min             =  -2.1148279310415E-01
(PID.TID 0000.0001) %MON dynstat_vvel_mean            =  -4.1869216441353E-04
(PID.TID 0000.0001) %MON dynstat_vvel_sd              =   1.3489029500484E-02
(PID.TID 0000.0001) %MON dynstat_vvel_del2            =   1.8187813323524E-03
(PID.TID 0000.0001) %MON dynstat_wvel_max             =   9.0404686503874E-05
(PID.TID 0000.0001) %MON dynstat_wvel_min             =  -1.7767180901920E-04
(PID.TID 0000.0001) %MON dynstat_wvel_mean            =  -1.0406043492611E-09
(PID.TID 0000.0001) %MON dynstat_wvel_sd              =   4.6230324137039E-06
(PID.TID 0000.0001) %MON dynstat_wvel_del2            =   1.1333144837041E-06
(PID.TID 0000.0001) %MON dynstat_theta_max            =   2.9923108754573E+01
(PID.TID 0000.0001) %MON dynstat_theta_min            =  -5.4203004194440E+00
(PID.TID 0000.0001) %MON dynstat_theta_mean           =   3.5034484955970E+00
(PID.TID 0000.0001) %MON dynstat_theta_sd             =   4.7500757787531E+00
(PID.TID 0000.0001) %MON dynstat_theta_del2           =   9.5681512872241E-02
(PID.TID 0000.0001) %MON dynstat_salt_max             =   4.0838995047681E+01
(PID.TID 0000.0001) %MON dynstat_salt_min             =   1.8038300754235E+01
(PID.TID 0000.0001) %MON dynstat_salt_mean            =   3.4756107613187E+01
(PID.TID 0000.0001) %MON dynstat_salt_sd              =   5.1182404570757E-01
(PID.TID 0000.0001) %MON dynstat_salt_del2            =   2.0020780887341E-02
(PID.TID 0000.0001) %MON extforcing_qnet_max          =   8.0944791502192E+02
(PID.TID 0000.0001) %MON extforcing_qnet_min          =  -2.3441204947471E+02
(PID.TID 0000.0001) %MON extforcing_qnet_mean         =  -4.5483819999808E+00
(PID.TID 0000.0001) %MON extforcing_qnet_sd           =   1.2006781583047E+02
(PID.TID 0000.0001) %MON extforcing_qnet_del2         =   1.2730511284387E+01
(PID.TID 0000.0001) %MON extforcing_qsw_max           =   0.0000000000000E+00
(PID.TID 0000.0001) %MON extforcing_qsw_min           =   0.0000000000000E+00
(PID.TID 0000.0001) %MON extforcing_qsw_mean          =   0.0000000000000E+00
(PID.TID 0000.0001) %MON extforcing_qsw_sd            =   0.0000000000000E+00
(PID.TID 0000.0001) %MON extforcing_qsw_del2          =   0.0000000000000E+00
(PID.TID 0000.0001) %MON extforcing_empmr_max         =   4.8168787826856E-07
(PID.TID 0000.0001) %MON extforcing_empmr_min         =  -3.1787742834959E-07
(PID.TID 0000.0001) %MON extforcing_empmr_mean        =   3.5874497522606E-10
(PID.TID 0000.0001) %MON extforcing_empmr_sd          =   5.2276697370727E-08
(PID.TID 0000.0001) %MON extforcing_empmr_del2        =   8.5041479634248E-09
(PID.TID 0000.0001) %MON extforcing_fu_max            =   2.4813468793793E-01
(PID.TID 0000.0001) %MON extforcing_fu_min            =  -2.0889746845507E-01
(PID.TID 0000.0001) %MON extforcing_fu_mean           =  -1.4978072287504E-03
(PID.TID 0000.0001) %MON extforcing_fu_sd             =   6.1856188960422E-02
(PID.TID 0000.0001) %MON extforcing_fu_del2           =   3.5028131025095E-03
(PID.TID 0000.0001) %MON extforcing_fv_max            =   2.8500987930747E-01
(PID.TID 0000.0001) %MON extforcing_fv_min            =  -3.3637477122718E-01
(PID.TID 0000.0001) %MON extforcing_fv_mean           =  -5.4954992736459E-03
(PID.TID 0000.0001) %MON extforcing_fv_sd             =   6.9688298791232E-02
(PID.TID 0000.0001) %MON extforcing_fv_del2           =   3.4395473063931E-03
(PID.TID 0000.0001) %MON advcfl_uvel_max              =   7.5564810062370E-02
(PID.TID 0000.0001) %MON advcfl_vvel_max              =   8.4839383275160E-02
(PID.TID 0000.0001) %MON advcfl_wvel_max              =   5.7927714336825E-02
(PID.TID 0000.0001) %MON advcfl_W_hf_max              =   1.1941515995667E-01
(PID.TID 0000.0001) %MON pe_b_mean                    =  -1.8998093113561E-03
(PID.TID 0000.0001) %MON ke_max                       =   3.5366515447697E-02
(PID.TID 0000.0001) %MON ke_mean                      =   1.6205307094590E-04
(PID.TID 0000.0001) %MON ke_vol                       =   1.3395910590229E+18
(PID.TID 0000.0001) %MON vort_r_min                   =  -1.2687559087775E-06
(PID.TID 0000.0001) %MON vort_r_max                   =   1.4070842786944E-06
(PID.TID 0000.0001) %MON vort_a_mean                  =  -2.0493733748264E-05
(PID.TID 0000.0001) %MON vort_a_sd                    =   7.5054012937834E-05
(PID.TID 0000.0001) %MON vort_p_mean                  =  -2.4719482314917E-05
(PID.TID 0000.0001) %MON vort_p_sd                    =   1.2782276031371E-04
(PID.TID 0000.0001) %MON surfExpan_theta_mean         =   8.5500533835271E-08
(PID.TID 0000.0001) %MON surfExpan_salt_mean          =   1.9587418965886E-08
(PID.TID 0000.0001) // =======================================================
(PID.TID 0000.0001) // End MONITOR dynamic field statistics
(PID.TID 0000.0001) // =======================================================
(PID.TID 0000.0001) // =======================================================
(PID.TID 0000.0001) // Begin MONITOR Therm.SeaIce statistics
(PID.TID 0000.0001) // =======================================================
(PID.TID 0000.0001) %MON thSI_time_sec                =   3.1115232000000E+09
(PID.TID 0000.0001) %MON thSI_Ice_Area_G              =   2.4705048778498E+13
(PID.TID 0000.0001) %MON thSI_Ice_Area_S              =   1.1542955278527E+13
(PID.TID 0000.0001) %MON thSI_Ice_Area_N              =   1.3162093499970E+13
(PID.TID 0000.0001) %MON thSI_IceH_ave_G              =   4.5789276380571E+00
(PID.TID 0000.0001) %MON thSI_IceH_ave_S              =   5.8418840626243E+00
(PID.TID 0000.0001) %MON thSI_IceH_ave_N              =   3.4713341137031E+00
(PID.TID 0000.0001) %MON thSI_IceH_max_S              =   1.0000000000000E+01
(PID.TID 0000.0001) %MON thSI_IceH_max_N              =   1.0000000000000E+01
(PID.TID 0000.0001) %MON thSI_SnwH_ave_G              =   1.0149615271429E+00
(PID.TID 0000.0001) %MON thSI_SnwH_ave_S              =   1.7465564726520E+00
(PID.TID 0000.0001) %MON thSI_SnwH_ave_N              =   3.7336391669983E-01
(PID.TID 0000.0001) %MON thSI_SnwH_max_S              =   4.0920910501352E+00
(PID.TID 0000.0001) %MON thSI_SnwH_max_N              =   4.0935241772335E+00
(PID.TID 0000.0001) %MON thSI_TotEnerg_G              =  -3.7913202775549E+22
(PID.TID 0000.0001) %MON thSI_Tsrf_ave_G              =  -1.7715023241594E+01
(PID.TID 0000.0001) %MON thSI_Tsrf_ave_S              =  -1.2907261169925E-01
(PID.TID 0000.0001) %MON thSI_Tsrf_ave_N              =  -3.3137633759574E+01
(PID.TID 0000.0001) %MON thSI_Tsrf_min_S              =  -5.4983704719037E+00
(PID.TID 0000.0001) %MON thSI_Tsrf_min_N              =  -4.7593064696018E+01
(PID.TID 0000.0001) %MON thSI_Tsrf_max_S              =   0.0000000000000E+00
(PID.TID 0000.0001) %MON thSI_Tsrf_max_N              =  -7.1058692643772E+00
(PID.TID 0000.0001) %MON thSI_Tic1_ave_G              =  -8.6500919600235E+00
(PID.TID 0000.0001) %MON thSI_Tic1_ave_S              =  -4.8864430984379E+00
(PID.TID 0000.0001) %MON thSI_Tic1_ave_N              =  -1.4204754212644E+01
(PID.TID 0000.0001) %MON thSI_Tic1_min_S              =  -1.4800072134711E+01
(PID.TID 0000.0001) %MON thSI_Tic1_min_N              =  -2.1459172111613E+01
(PID.TID 0000.0001) %MON thSI_Tic1_max_S              =  -1.6554022672138E-01
(PID.TID 0000.0001) %MON thSI_Tic1_max_N              =  -7.2110981339162E-01
(PID.TID 0000.0001) %MON thSI_Tic2_ave_G              =  -3.9182094210969E+00
(PID.TID 0000.0001) %MON thSI_Tic2_ave_S              =  -3.0694729552026E+00
(PID.TID 0000.0001) %MON thSI_Tic2_ave_N              =  -5.1708354186080E+00
(PID.TID 0000.0001) %MON thSI_Tic2_min_S              =  -8.4615281302329E+00
(PID.TID 0000.0001) %MON thSI_Tic2_min_N              =  -7.8262039314587E+00
(PID.TID 0000.0001) %MON thSI_Tic2_max_S              =  -9.9209234216198E-01
(PID.TID 0000.0001) %MON thSI_Tic2_max_N              =  -1.3577821418903E+00
(PID.TID 0000.0001) // =======================================================
(PID.TID 0000.0001) // End MONITOR Therm.SeaIce statistics
(PID.TID 0000.0001) // =======================================================
 cg2d: Sum(rhs),rhsMax =   3.90606122744517E+02  2.30811149810718E+02
(PID.TID 0000.0001)                    cg2d_init_res =    2.63698174798659E+00
(PID.TID 0000.0001)                       cg2d_iters =    70
(PID.TID 0000.0001)                         cg2d_res =    4.97995953504688E-07
(PID.TID 0000.0001) // =======================================================
(PID.TID 0000.0001) // Begin MONITOR dynamic field statistics
(PID.TID 0000.0001) // =======================================================
(PID.TID 0000.0001) %MON time_tsnumber                =                 36014
(PID.TID 0000.0001) %MON time_secondsf                =   3.1116096000000E+09
(PID.TID 0000.0001) %MON dynstat_eta_max              =   7.1638649268844E-01
(PID.TID 0000.0001) %MON dynstat_eta_min              =  -1.1956944397126E+01
(PID.TID 0000.0001) %MON dynstat_eta_mean             =  -5.8096529451172E-01
(PID.TID 0000.0001) %MON dynstat_eta_sd               =   1.6914938985534E+00
(PID.TID 0000.0001) %MON dynstat_eta_del2             =   9.6530729588639E-02
(PID.TID 0000.0001) %MON dynstat_uvel_max             =   1.7384338244024E-01
(PID.TID 0000.0001) %MON dynstat_uvel_min             =  -2.6595421337589E-01
(PID.TID 0000.0001) %MON dynstat_uvel_mean            =  -5.2214588997140E-04
(PID.TID 0000.0001) %MON dynstat_uvel_sd              =   1.2982475120794E-02
(PID.TID 0000.0001) %MON dynstat_uvel_del2            =   1.7898630253762E-03
(PID.TID 0000.0001) %MON dynstat_vvel_max             =   1.9434205062752E-01
(PID.TID 0000.0001) %MON dynstat_vvel_min             =  -2.1151697873249E-01
(PID.TID 0000.0001) %MON dynstat_vvel_mean            =  -4.1816252826274E-04
(PID.TID 0000.0001) %MON dynstat_vvel_sd              =   1.3488091316545E-02
(PID.TID 0000.0001) %MON dynstat_vvel_del2            =   1.8179710783195E-03
(PID.TID 0000.0001) %MON dynstat_wvel_max             =   9.1031436751975E-05
(PID.TID 0000.0001) %MON dynstat_wvel_min             =  -1.7746436385242E-04
(PID.TID 0000.0001) %MON dynstat_wvel_mean            =  -1.0531387985817E-09
(PID.TID 0000.0001) %MON dynstat_wvel_sd              =   4.6227723571174E-06
(PID.TID 0000.0001) %MON dynstat_wvel_del2            =   1.1331068157948E-06
(PID.TID 0000.0001) %MON dynstat_theta_max            =   2.9906591664432E+01
(PID.TID 0000.0001) %MON dynstat_theta_min            =  -5.4122942779104E+00
(PID.TID 0000.0001) %MON dynstat_theta_mean           =   3.5035043559863E+00
(PID.TID 0000.0001) %MON dynstat_theta_sd             =   4.7501851917373E+00
(PID.TID 0000.0001) %MON dynstat_theta_del2           =   9.5713462699291E-02
(PID.TID 0000.0001) %MON dynstat_salt_max             =   4.0839858288838E+01
(PID.TID 0000.0001) %MON dynstat_salt_min             =   1.8040956286262E+01
(PID.TID 0000.0001) %MON dynstat_salt_mean            =   3.4756108795413E+01
(PID.TID 0000.0001) %MON dynstat_salt_sd              =   5.1181414592767E-01
(PID.TID 0000.0001) %MON dynstat_salt_del2            =   2.0010354269930E-02
(PID.TID 0000.0001) %MON extforcing_qnet_max          =   8.1253452746844E+02
(PID.TID 0000.0001) %MON extforcing_qnet_min          =  -2.3403803434918E+02
(PID.TID 0000.0001) %MON extforcing_qnet_mean         =  -4.5057300904839E+00
(PID.TID 0000.0001) %MON extforcing_qnet_sd           =   1.2016363865697E+02
(PID.TID 0000.0001) %MON extforcing_qnet_del2         =   1.2785698712410E+01
(PID.TID 0000.0001) %MON extforcing_qsw_max           =   0.0000000000000E+00
(PID.TID 0000.0001) %MON extforcing_qsw_min           =   0.0000000000000E+00
(PID.TID 0000.0001) %MON extforcing_qsw_mean          =   0.0000000000000E+00
(PID.TID 0000.0001) %MON extforcing_qsw_sd            =   0.0000000000000E+00
(PID.TID 0000.0001) %MON extforcing_qsw_del2          =   0.0000000000000E+00
(PID.TID 0000.0001) %MON extforcing_empmr_max         =   3.8709886013761E-07
(PID.TID 0000.0001) %MON extforcing_empmr_min         =  -3.1904380081924E-07
(PID.TID 0000.0001) %MON extforcing_empmr_mean        =   2.7416948103866E-10
(PID.TID 0000.0001) %MON extforcing_empmr_sd          =   5.2047345216603E-08
(PID.TID 0000.0001) %MON extforcing_empmr_del2        =   8.5178379009678E-09
(PID.TID 0000.0001) %MON extforcing_fu_max            =   2.4839906243671E-01
(PID.TID 0000.0001) %MON extforcing_fu_min            =  -2.1105082572846E-01
(PID.TID 0000.0001) %MON extforcing_fu_mean           =  -1.5000159434818E-03
(PID.TID 0000.0001) %MON extforcing_fu_sd             =   6.1975901730832E-02
(PID.TID 0000.0001) %MON extforcing_fu_del2           =   3.5288759776386E-03
(PID.TID 0000.0001) %MON extforcing_fv_max            =   2.8769312088010E-01
(PID.TID 0000.0001) %MON extforcing_fv_min            =  -3.3716267516111E-01
(PID.TID 0000.0001) %MON extforcing_fv_mean           =  -5.5566520035922E-03
(PID.TID 0000.0001) %MON extforcing_fv_sd             =   6.9944844453768E-02
(PID.TID 0000.0001) %MON extforcing_fv_del2           =   3.4634871130626E-03
(PID.TID 0000.0001) %MON advcfl_uvel_max              =   7.5429659715504E-02
(PID.TID 0000.0001) %MON advcfl_vvel_max              =   8.4710961936099E-02
(PID.TID 0000.0001) %MON advcfl_wvel_max              =   5.7860079384337E-02
(PID.TID 0000.0001) %MON advcfl_W_hf_max              =   1.1805413909966E-01
(PID.TID 0000.0001) %MON pe_b_mean                    =  -1.8988742190424E-03
(PID.TID 0000.0001) %MON ke_max                       =   3.5228636104482E-02
(PID.TID 0000.0001) %MON ke_mean                      =   1.6204124367248E-04
(PID.TID 0000.0001) %MON ke_vol                       =   1.3395910481255E+18
(PID.TID 0000.0001) %MON vort_r_min                   =  -1.2739704334507E-06
(PID.TID 0000.0001) %MON vort_r_max                   =   1.4100494886259E-06
(PID.TID 0000.0001) %MON vort_a_mean                  =  -2.0493733748264E-05
(PID.TID 0000.0001) %MON vort_a_sd                    =   7.5054012873938E-05
(PID.TID 0000.0001) %MON vort_p_mean                  =  -2.4719482127138E-05
(PID.TID 0000.0001) %MON vort_p_sd                    =   1.2782276877746E-04
(PID.TID 0000.0001) %MON surfExpan_theta_mean         =   8.5048643541355E-08
(PID.TID 0000.0001) %MON surfExpan_salt_mean          =   1.9670542024381E-08
(PID.TID 0000.0001) // =======================================================
(PID.TID 0000.0001) // End MONITOR dynamic field statistics
(PID.TID 0000.0001) // =======================================================
(PID.TID 0000.0001) // =======================================================
(PID.TID 0000.0001) // Begin MONITOR Therm.SeaIce statistics
(PID.TID 0000.0001) // =======================================================
(PID.TID 0000.0001) %MON thSI_time_sec                =   3.1116096000000E+09
(PID.TID 0000.0001) %MON thSI_Ice_Area_G              =   2.4686476979602E+13
(PID.TID 0000.0001) %MON thSI_Ice_Area_S              =   1.1507748015029E+13
(PID.TID 0000.0001) %MON thSI_Ice_Area_N              =   1.3178728964573E+13
(PID.TID 0000.0001) %MON thSI_IceH_ave_G              =   4.5825738405346E+00
(PID.TID 0000.0001) %MON thSI_IceH_ave_S              =   5.8522758354876E+00
(PID.TID 0000.0001) %MON thSI_IceH_ave_N              =   3.4738621695247E+00
(PID.TID 0000.0001) %MON thSI_IceH_max_S              =   1.0000000000000E+01
(PID.TID 0000.0001) %MON thSI_IceH_max_N              =   1.0000000000000E+01
(PID.TID 0000.0001) %MON thSI_SnwH_ave_G              =   1.0126774552628E+00
(PID.TID 0000.0001) %MON thSI_SnwH_ave_S              =   1.7420625514746E+00
(PID.TID 0000.0001) %MON thSI_SnwH_ave_N              =   3.7577385737503E-01
(PID.TID 0000.0001) %MON thSI_SnwH_max_S              =   4.0920902740183E+00
(PID.TID 0000.0001) %MON thSI_SnwH_max_N              =   4.0935369268626E+00
(PID.TID 0000.0001) %MON thSI_TotEnerg_G              =  -3.7908928394572E+22
(PID.TID 0000.0001) %MON thSI_Tsrf_ave_G              =  -1.7806615103134E+01
(PID.TID 0000.0001) %MON thSI_Tsrf_ave_S              =  -1.4857726149324E-01
(PID.TID 0000.0001) %MON thSI_Tsrf_ave_N              =  -3.3225723460829E+01
(PID.TID 0000.0001) %MON thSI_Tsrf_min_S              =  -5.5142889394121E+00
(PID.TID 0000.0001) %MON thSI_Tsrf_min_N              =  -4.7708352898077E+01
(PID.TID 0000.0001) %MON thSI_Tsrf_max_S              =   0.0000000000000E+00
(PID.TID 0000.0001) %MON thSI_Tsrf_max_N              =  -7.4675587278860E+00
(PID.TID 0000.0001) %MON thSI_Tic1_ave_G              =  -8.6699795778919E+00
(PID.TID 0000.0001) %MON thSI_Tic1_ave_S              =  -4.8627890502630E+00
(PID.TID 0000.0001) %MON thSI_Tic1_ave_N              =  -1.4270567672581E+01
(PID.TID 0000.0001) %MON thSI_Tic1_min_S              =  -1.4667211522088E+01
(PID.TID 0000.0001) %MON thSI_Tic1_min_N              =  -2.1511674433737E+01
(PID.TID 0000.0001) %MON thSI_Tic1_max_S              =  -1.6011319542555E-01
(PID.TID 0000.0001) %MON thSI_Tic1_max_N              =  -7.3385838712836E-01
(PID.TID 0000.0001) %MON thSI_Tic2_ave_G              =  -3.9285508868693E+00
(PID.TID 0000.0001) %MON thSI_Tic2_ave_S              =  -3.0656022542630E+00
(PID.TID 0000.0001) %MON thSI_Tic2_ave_N              =  -5.1979961124313E+00
(PID.TID 0000.0001) %MON thSI_Tic2_min_S              =  -8.4275544761044E+00
(PID.TID 0000.0001) %MON thSI_Tic2_min_N              =  -7.8522889780807E+00
(PID.TID 0000.0001) %MON thSI_Tic2_max_S              =  -9.4414885128719E-01
(PID.TID 0000.0001) %MON thSI_Tic2_max_N              =  -1.3610433502618E+00
(PID.TID 0000.0001) // =======================================================
(PID.TID 0000.0001) // End MONITOR Therm.SeaIce statistics
(PID.TID 0000.0001) // =======================================================
 cg2d: Sum(rhs),rhsMax =   3.90617994840730E+02  2.30944877029315E+02
(PID.TID 0000.0001)                    cg2d_init_res =    2.59421721060060E+00
(PID.TID 0000.0001)                       cg2d_iters =    70
(PID.TID 0000.0001)                         cg2d_res =    4.89055364573025E-07
(PID.TID 0000.0001) // =======================================================
(PID.TID 0000.0001) // Begin MONITOR dynamic field statistics
(PID.TID 0000.0001) // =======================================================
(PID.TID 0000.0001) %MON time_tsnumber                =                 36015
(PID.TID 0000.0001) %MON time_secondsf                =   3.1116960000000E+09
(PID.TID 0000.0001) %MON dynstat_eta_max              =   7.1505025623680E-01
(PID.TID 0000.0001) %MON dynstat_eta_min              =  -1.1953871148502E+01
(PID.TID 0000.0001) %MON dynstat_eta_mean             =  -5.8098295239128E-01
(PID.TID 0000.0001) %MON dynstat_eta_sd               =   1.6910131873589E+00
(PID.TID 0000.0001) %MON dynstat_eta_del2             =   9.6535581647509E-02
(PID.TID 0000.0001) %MON dynstat_uvel_max             =   1.7354885107844E-01
(PID.TID 0000.0001) %MON dynstat_uvel_min             =  -2.6546409817150E-01
(PID.TID 0000.0001) %MON dynstat_uvel_mean            =  -5.2139492780859E-04
(PID.TID 0000.0001) %MON dynstat_uvel_sd              =   1.2982663255784E-02
(PID.TID 0000.0001) %MON dynstat_uvel_del2            =   1.7899513155464E-03
(PID.TID 0000.0001) %MON dynstat_vvel_max             =   1.9399670063100E-01
(PID.TID 0000.0001) %MON dynstat_vvel_min             =  -2.1154652367938E-01
(PID.TID 0000.0001) %MON dynstat_vvel_mean            =  -4.1764366367589E-04
(PID.TID 0000.0001) %MON dynstat_vvel_sd              =   1.3486799952039E-02
(PID.TID 0000.0001) %MON dynstat_vvel_del2            =   1.8171645616649E-03
(PID.TID 0000.0001) %MON dynstat_wvel_max             =   9.1603787059935E-05
(PID.TID 0000.0001) %MON dynstat_wvel_min             =  -1.7723946254933E-04
(PID.TID 0000.0001) %MON dynstat_wvel_mean            =  -1.0463211352427E-09
(PID.TID 0000.0001) %MON dynstat_wvel_sd              =   4.6225313649275E-06
(PID.TID 0000.0001) %MON dynstat_wvel_del2            =   1.1329448413172E-06
(PID.TID 0000.0001) %MON dynstat_theta_max            =   2.9893187124936E+01
(PID.TID 0000.0001) %MON dynstat_theta_min            =  -5.4041042832317E+00
(PID.TID 0000.0001) %MON dynstat_theta_mean           =   3.5035601637525E+00
(PID.TID 0000.0001) %MON dynstat_theta_sd             =   4.7503003163867E+00
(PID.TID 0000.0001) %MON dynstat_theta_del2           =   9.5716450840647E-02
(PID.TID 0000.0001) %MON dynstat_salt_max             =   4.0840593708748E+01
(PID.TID 0000.0001) %MON dynstat_salt_min             =   1.8093820608745E+01
(PID.TID 0000.0001) %MON dynstat_salt_mean            =   3.4756109958298E+01
(PID.TID 0000.0001) %MON dynstat_salt_sd              =   5.1180493363278E-01
(PID.TID 0000.0001) %MON dynstat_salt_del2            =   2.0002806894228E-02
(PID.TID 0000.0001) %MON extforcing_qnet_max          =   8.1560777206766E+02
(PID.TID 0000.0001) %MON extforcing_qnet_min          =  -2.3366570091037E+02
(PID.TID 0000.0001) %MON extforcing_qnet_mean         =  -4.5048941650721E+00
(PID.TID 0000.0001) %MON extforcing_qnet_sd           =   1.2022128136455E+02
(PID.TID 0000.0001) %MON extforcing_qnet_del2         =   1.2856501971095E+01
(PID.TID 0000.0001) %MON extforcing_qsw_max           =   0.0000000000000E+00
(PID.TID 0000.0001) %MON extforcing_qsw_min           =   0.0000000000000E+00
(PID.TID 0000.0001) %MON extforcing_qsw_mean          =   0.0000000000000E+00
(PID.TID 0000.0001) %MON extforcing_qsw_sd            =   0.0000000000000E+00
(PID.TID 0000.0001) %MON extforcing_qsw_del2          =   0.0000000000000E+00
(PID.TID 0000.0001) %MON extforcing_empmr_max         =   3.8740773835819E-07
(PID.TID 0000.0001) %MON extforcing_empmr_min         =  -3.1909079773985E-07
(PID.TID 0000.0001) %MON extforcing_empmr_mean        =   2.1152668229777E-10
(PID.TID 0000.0001) %MON extforcing_empmr_sd          =   5.1831817339851E-08
(PID.TID 0000.0001) %MON extforcing_empmr_del2        =   8.5099607935879E-09
(PID.TID 0000.0001) %MON extforcing_fu_max            =   2.4866343693550E-01
(PID.TID 0000.0001) %MON extforcing_fu_min            =  -2.1320418300184E-01
(PID.TID 0000.0001) %MON extforcing_fu_mean           =  -1.5022246178615E-03
(PID.TID 0000.0001) %MON extforcing_fu_sd             =   6.2107824825911E-02
(PID.TID 0000.0001) %MON extforcing_fu_del2           =   3.5566378701449E-03
(PID.TID 0000.0001) %MON extforcing_fv_max            =   2.9037636245273E-01
(PID.TID 0000.0001) %MON extforcing_fv_min            =  -3.3795057909504E-01
(PID.TID 0000.0001) %MON extforcing_fv_mean           =  -5.6178046202507E-03
(PID.TID 0000.0001) %MON extforcing_fv_sd             =   7.0208786924108E-02
(PID.TID 0000.0001) %MON extforcing_fv_del2           =   3.4895232834299E-03
(PID.TID 0000.0001) %MON advcfl_uvel_max              =   7.5290653746697E-02
(PID.TID 0000.0001) %MON advcfl_vvel_max              =   8.4560428737981E-02
(PID.TID 0000.0001) %MON advcfl_wvel_max              =   5.7786753072689E-02
(PID.TID 0000.0001) %MON advcfl_W_hf_max              =   1.1664438262887E-01
(PID.TID 0000.0001) %MON pe_b_mean                    =  -1.8979558295538E-03
(PID.TID 0000.0001) %MON ke_max                       =   3.5088233702421E-02
(PID.TID 0000.0001) %MON ke_mean                      =   1.6202678429602E-04
(PID.TID 0000.0001) %MON ke_vol                       =   1.3395910397971E+18
(PID.TID 0000.0001) %MON vort_r_min                   =  -1.2791486566849E-06
(PID.TID 0000.0001) %MON vort_r_max                   =   1.4127778700734E-06
(PID.TID 0000.0001) %MON vort_a_mean                  =  -2.0493733748264E-05
(PID.TID 0000.0001) %MON vort_a_sd                    =   7.5054012814598E-05
(PID.TID 0000.0001) %MON vort_p_mean                  =  -2.4719481902903E-05
(PID.TID 0000.0001) %MON vort_p_sd                    =   1.2782277625142E-04
(PID.TID 0000.0001) %MON surfExpan_theta_mean         =   8.4299048449154E-08
(PID.TID 0000.0001) %MON surfExpan_salt_mean          =   1.9685554111388E-08
(PID.TID 0000.0001) // =======================================================
(PID.TID 0000.0001) // End MONITOR dynamic field statistics
(PID.TID 0000.0001) // =======================================================
(PID.TID 0000.0001) // =======================================================
(PID.TID 0000.0001) // Begin MONITOR Therm.SeaIce statistics
(PID.TID 0000.0001) // =======================================================
(PID.TID 0000.0001) %MON thSI_time_sec                =   3.1116960000000E+09
(PID.TID 0000.0001) %MON thSI_Ice_Area_G              =   2.4663642632553E+13
(PID.TID 0000.0001) %MON thSI_Ice_Area_S              =   1.1470361491358E+13
(PID.TID 0000.0001) %MON thSI_Ice_Area_N              =   1.3193281141195E+13
(PID.TID 0000.0001) %MON thSI_IceH_ave_G              =   4.5869069569176E+00
(PID.TID 0000.0001) %MON thSI_IceH_ave_S              =   5.8638575413905E+00
(PID.TID 0000.0001) %MON thSI_IceH_ave_N              =   3.4767142267127E+00
(PID.TID 0000.0001) %MON thSI_IceH_max_S              =   1.0000000000000E+01
(PID.TID 0000.0001) %MON thSI_IceH_max_N              =   1.0000000000000E+01
(PID.TID 0000.0001) %MON thSI_SnwH_ave_G              =   1.0106399011379E+00
(PID.TID 0000.0001) %MON thSI_SnwH_ave_S              =   1.7380380433615E+00
(PID.TID 0000.0001) %MON thSI_SnwH_ave_N              =   3.7823318213040E-01
(PID.TID 0000.0001) %MON thSI_SnwH_max_S              =   4.0920894858542E+00
(PID.TID 0000.0001) %MON thSI_SnwH_max_N              =   4.0935496735725E+00
(PID.TID 0000.0001) %MON thSI_TotEnerg_G              =  -3.7904100300557E+22
(PID.TID 0000.0001) %MON thSI_Tsrf_ave_G              =  -1.7892036352911E+01
(PID.TID 0000.0001) %MON thSI_Tsrf_ave_S              =  -1.3195740862291E-01
(PID.TID 0000.0001) %MON thSI_Tsrf_ave_N              =  -3.3332814384234E+01
(PID.TID 0000.0001) %MON thSI_Tsrf_min_S              =  -5.5301703581287E+00
(PID.TID 0000.0001) %MON thSI_Tsrf_min_N              =  -4.7823701693193E+01
(PID.TID 0000.0001) %MON thSI_Tsrf_max_S              =   0.0000000000000E+00
(PID.TID 0000.0001) %MON thSI_Tsrf_max_N              =  -7.7287560644323E+00
(PID.TID 0000.0001) %MON thSI_Tic1_ave_G              =  -8.6918928902377E+00
(PID.TID 0000.0001) %MON thSI_Tic1_ave_S              =  -4.8429071114861E+00
(PID.TID 0000.0001) %MON thSI_Tic1_ave_N              =  -1.4335866969381E+01
(PID.TID 0000.0001) %MON thSI_Tic1_min_S              =  -1.4535860592883E+01
(PID.TID 0000.0001) %MON thSI_Tic1_min_N              =  -2.1576071684012E+01
(PID.TID 0000.0001) %MON thSI_Tic1_max_S              =  -1.5499856022930E-01
(PID.TID 0000.0001) %MON thSI_Tic1_max_N              =  -7.4702657476607E-01
(PID.TID 0000.0001) %MON thSI_Tic2_ave_G              =  -3.9388347166996E+00
(PID.TID 0000.0001) %MON thSI_Tic2_ave_S              =  -3.0618219166014E+00
(PID.TID 0000.0001) %MON thSI_Tic2_ave_N              =  -5.2248455765364E+00
(PID.TID 0000.0001) %MON thSI_Tic2_min_S              =  -8.3935792611395E+00
(PID.TID 0000.0001) %MON thSI_Tic2_min_N              =  -7.8775438498665E+00
(PID.TID 0000.0001) %MON thSI_Tic2_max_S              =  -1.0338740781387E+00
(PID.TID 0000.0001) %MON thSI_Tic2_max_N              =  -1.3643942482408E+00
(PID.TID 0000.0001) // =======================================================
(PID.TID 0000.0001) // End MONITOR Therm.SeaIce statistics
(PID.TID 0000.0001) // =======================================================
S/R BULKF_FIELDS_LOAD: Reading new data:    1    2     36015  3.111696000000E+09
(PID.TID 0000.0001)  MDSREADFIELD: opening global file: ncep_tair_cs.bin
(PID.TID 0000.0001)  MDSREADFIELD: opening global file: ncep_tair_cs.bin
(PID.TID 0000.0001)  MDSREADFIELD: opening global file: ncep_qair_cs.bin
(PID.TID 0000.0001)  MDSREADFIELD: opening global file: ncep_qair_cs.bin
(PID.TID 0000.0001)  MDSREADFIELD: opening global file: ncep_downsolar_cs.bin
(PID.TID 0000.0001)  MDSREADFIELD: opening global file: ncep_downsolar_cs.bin
(PID.TID 0000.0001)  MDSREADFIELD: opening global file: ncep_downlw_cs.bin
(PID.TID 0000.0001)  MDSREADFIELD: opening global file: ncep_downlw_cs.bin
(PID.TID 0000.0001)  MDSREADFIELD: opening global file: ncep_windspeed_cs.bin
(PID.TID 0000.0001)  MDSREADFIELD: opening global file: ncep_windspeed_cs.bin
(PID.TID 0000.0001)  MDSREADFIELD: opening global file: ncep_pr_scal_cs.bin
(PID.TID 0000.0001)  MDSREADFIELD: opening global file: ncep_pr_scal_cs.bin
S/R EXTERNAL_FIELDS_LOAD: Reading new data:    1    2     36015  3.111696000000E+09
(PID.TID 0000.0001)  MDSREADFIELD: opening global file: trenberth_taux.bin
(PID.TID 0000.0001)  MDSREADFIELD: opening global file: trenberth_taux.bin
(PID.TID 0000.0001)  MDSREADFIELD: opening global file: trenberth_tauy.bin
(PID.TID 0000.0001)  MDSREADFIELD: opening global file: trenberth_tauy.bin
(PID.TID 0000.0001)  MDSREADFIELD: opening global file: lev_surfT_cs_12m.bin
(PID.TID 0000.0001)  MDSREADFIELD: opening global file: lev_surfT_cs_12m.bin
(PID.TID 0000.0001)  MDSREADFIELD: opening global file: lev_surfS_cs_12m.bin
(PID.TID 0000.0001)  MDSREADFIELD: opening global file: lev_surfS_cs_12m.bin
 cg2d: Sum(rhs),rhsMax =   3.90625740650638E+02  2.31074954602745E+02
(PID.TID 0000.0001)                    cg2d_init_res =    2.55080098318611E+00
(PID.TID 0000.0001)                       cg2d_iters =    70
(PID.TID 0000.0001)                         cg2d_res =    4.72374370168263E-07
(PID.TID 0000.0001) // =======================================================
(PID.TID 0000.0001) // Begin MONITOR dynamic field statistics
(PID.TID 0000.0001) // =======================================================
(PID.TID 0000.0001) %MON time_tsnumber                =                 36016
(PID.TID 0000.0001) %MON time_secondsf                =   3.1117824000000E+09
(PID.TID 0000.0001) %MON dynstat_eta_max              =   7.1374804570965E-01
(PID.TID 0000.0001) %MON dynstat_eta_min              =  -1.1950653998647E+01
(PID.TID 0000.0001) %MON dynstat_eta_mean             =  -5.8099447306767E-01
(PID.TID 0000.0001) %MON dynstat_eta_sd               =   1.6905201144943E+00
(PID.TID 0000.0001) %MON dynstat_eta_del2             =   9.6546542824252E-02
(PID.TID 0000.0001) %MON dynstat_uvel_max             =   1.7322170350655E-01
(PID.TID 0000.0001) %MON dynstat_uvel_min             =  -2.6496033770610E-01
(PID.TID 0000.0001) %MON dynstat_uvel_mean            =  -5.2060212754978E-04
(PID.TID 0000.0001) %MON dynstat_uvel_sd              =   1.2982976343343E-02
(PID.TID 0000.0001) %MON dynstat_uvel_del2            =   1.7900424160477E-03
(PID.TID 0000.0001) %MON dynstat_vvel_max             =   1.9360458011876E-01
(PID.TID 0000.0001) %MON dynstat_vvel_min             =  -2.1157163457449E-01
(PID.TID 0000.0001) %MON dynstat_vvel_mean            =  -4.1711731437247E-04
(PID.TID 0000.0001) %MON dynstat_vvel_sd              =   1.3485195544164E-02
(PID.TID 0000.0001) %MON dynstat_vvel_del2            =   1.8164492545290E-03
(PID.TID 0000.0001) %MON dynstat_wvel_max             =   9.2124318408831E-05
(PID.TID 0000.0001) %MON dynstat_wvel_min             =  -1.7700787130998E-04
(PID.TID 0000.0001) %MON dynstat_wvel_mean            =  -1.0495798131976E-09
(PID.TID 0000.0001) %MON dynstat_wvel_sd              =   4.6222504026641E-06
(PID.TID 0000.0001) %MON dynstat_wvel_del2            =   1.1329549811868E-06
(PID.TID 0000.0001) %MON dynstat_theta_max            =   2.9879657414204E+01
(PID.TID 0000.0001) %MON dynstat_theta_min            =  -5.3957398650474E+00
(PID.TID 0000.0001) %MON dynstat_theta_mean           =   3.5036155696178E+00
(PID.TID 0000.0001) %MON dynstat_theta_sd             =   4.7504202478880E+00
(PID.TID 0000.0001) %MON dynstat_theta_del2           =   9.5763366501424E-02
(PID.TID 0000.0001) %MON dynstat_salt_max             =   4.0841202696904E+01
(PID.TID 0000.0001) %MON dynstat_salt_min             =   1.8095244514367E+01
(PID.TID 0000.0001) %MON dynstat_salt_mean            =   3.4756111083062E+01
(PID.TID 0000.0001) %MON dynstat_salt_sd              =   5.1179612880269E-01
(PID.TID 0000.0001) %MON dynstat_salt_del2            =   2.0006260301023E-02
(PID.TID 0000.0001) %MON extforcing_qnet_max          =   8.1866602156668E+02
(PID.TID 0000.0001) %MON extforcing_qnet_min          =  -2.3329500629680E+02
(PID.TID 0000.0001) %MON extforcing_qnet_mean         =  -4.4699347392941E+00
(PID.TID 0000.0001) %MON extforcing_qnet_sd           =   1.2032680277795E+02
(PID.TID 0000.0001) %MON extforcing_qnet_del2         =   1.2935248189220E+01
(PID.TID 0000.0001) %MON extforcing_qsw_max           =   0.0000000000000E+00
(PID.TID 0000.0001) %MON extforcing_qsw_min           =   0.0000000000000E+00
(PID.TID 0000.0001) %MON extforcing_qsw_mean          =   0.0000000000000E+00
(PID.TID 0000.0001) %MON extforcing_qsw_sd            =   0.0000000000000E+00
(PID.TID 0000.0001) %MON extforcing_qsw_del2          =   0.0000000000000E+00
(PID.TID 0000.0001) %MON extforcing_empmr_max         =   3.8772325020939E-07
(PID.TID 0000.0001) %MON extforcing_empmr_min         =  -3.1809841054464E-07
(PID.TID 0000.0001) %MON extforcing_empmr_mean        =   1.3800810252939E-10
(PID.TID 0000.0001) %MON extforcing_empmr_sd          =   5.1619159953317E-08
(PID.TID 0000.0001) %MON extforcing_empmr_del2        =   8.4935717649951E-09
(PID.TID 0000.0001) %MON extforcing_fu_max            =   2.4892781143428E-01
(PID.TID 0000.0001) %MON extforcing_fu_min            =  -2.1535754027523E-01
(PID.TID 0000.0001) %MON extforcing_fu_mean           =  -1.5044332200704E-03
(PID.TID 0000.0001) %MON extforcing_fu_sd             =   6.2251880660785E-02
(PID.TID 0000.0001) %MON extforcing_fu_del2           =   3.5863906188079E-03
(PID.TID 0000.0001) %MON extforcing_fv_max            =   2.9305960402537E-01
(PID.TID 0000.0001) %MON extforcing_fv_min            =  -3.3950131228473E-01
(PID.TID 0000.0001) %MON extforcing_fv_mean           =  -5.6789571620015E-03
(PID.TID 0000.0001) %MON extforcing_fv_sd             =   7.0480043104895E-02
(PID.TID 0000.0001) %MON extforcing_fv_del2           =   3.5172812437129E-03
(PID.TID 0000.0001) %MON advcfl_uvel_max              =   7.5147777723036E-02
(PID.TID 0000.0001) %MON advcfl_vvel_max              =   8.4389508930975E-02
(PID.TID 0000.0001) %MON advcfl_wvel_max              =   5.7711245589366E-02
(PID.TID 0000.0001) %MON advcfl_W_hf_max              =   1.1518770741462E-01
(PID.TID 0000.0001) %MON pe_b_mean                    =  -1.8970261287453E-03
(PID.TID 0000.0001) %MON ke_max                       =   3.4945341942007E-02
(PID.TID 0000.0001) %MON ke_mean                      =   1.6200987775361E-04
(PID.TID 0000.0001) %MON ke_vol                       =   1.3395910333717E+18
(PID.TID 0000.0001) %MON vort_r_min                   =  -1.2842673143516E-06
(PID.TID 0000.0001) %MON vort_r_max                   =   1.4152287247276E-06
(PID.TID 0000.0001) %MON vort_a_mean                  =  -2.0493733748264E-05
(PID.TID 0000.0001) %MON vort_a_sd                    =   7.5054012761138E-05
(PID.TID 0000.0001) %MON vort_p_mean                  =  -2.4719481655162E-05
(PID.TID 0000.0001) %MON vort_p_sd                    =   1.2782278267152E-04
(PID.TID 0000.0001) %MON surfExpan_theta_mean         =   8.3703178457548E-08
(PID.TID 0000.0001) %MON surfExpan_salt_mean          =   1.9709729991575E-08
(PID.TID 0000.0001) // =======================================================
(PID.TID 0000.0001) // End MONITOR dynamic field statistics
(PID.TID 0000.0001) // =======================================================
(PID.TID 0000.0001) // =======================================================
(PID.TID 0000.0001) // Begin MONITOR Therm.SeaIce statistics
(PID.TID 0000.0001) // =======================================================
(PID.TID 0000.0001) %MON thSI_time_sec                =   3.1117824000000E+09
(PID.TID 0000.0001) %MON thSI_Ice_Area_G              =   2.4636409912946E+13
(PID.TID 0000.0001) %MON thSI_Ice_Area_S              =   1.1430394530733E+13
(PID.TID 0000.0001) %MON thSI_Ice_Area_N              =   1.3206015382213E+13
(PID.TID 0000.0001) %MON thSI_IceH_ave_G              =   4.5919126563353E+00
(PID.TID 0000.0001) %MON thSI_IceH_ave_S              =   5.8767638537626E+00
(PID.TID 0000.0001) %MON thSI_IceH_ave_N              =   3.4798167155976E+00
(PID.TID 0000.0001) %MON thSI_IceH_max_S              =   1.0000000000000E+01
(PID.TID 0000.0001) %MON thSI_IceH_max_N              =   1.0000000000000E+01
(PID.TID 0000.0001) %MON thSI_SnwH_ave_G              =   1.0089041487649E+00
(PID.TID 0000.0001) %MON thSI_SnwH_ave_S              =   1.7346567414525E+00
(PID.TID 0000.0001) %MON thSI_SnwH_ave_N              =   3.8073295359153E-01
(PID.TID 0000.0001) %MON thSI_SnwH_max_S              =   4.0920886857304E+00
(PID.TID 0000.0001) %MON thSI_SnwH_max_N              =   4.0935624173254E+00
(PID.TID 0000.0001) %MON thSI_TotEnerg_G              =  -3.7898239783758E+22
(PID.TID 0000.0001) %MON thSI_Tsrf_ave_G              =  -1.7988411128275E+01
(PID.TID 0000.0001) %MON thSI_Tsrf_ave_S              =  -1.5256064237689E-01
(PID.TID 0000.0001) %MON thSI_Tsrf_ave_N              =  -3.3426134161642E+01
(PID.TID 0000.0001) %MON thSI_Tsrf_min_S              =  -5.5460150509485E+00
(PID.TID 0000.0001) %MON thSI_Tsrf_min_N              =  -4.7939112018808E+01
(PID.TID 0000.0001) %MON thSI_Tsrf_max_S              =   0.0000000000000E+00
(PID.TID 0000.0001) %MON thSI_Tsrf_max_N              =  -7.9483710751300E+00
(PID.TID 0000.0001) %MON thSI_Tic1_ave_G              =  -8.7115553073672E+00
(PID.TID 0000.0001) %MON thSI_Tic1_ave_S              =  -4.8198924089811E+00
(PID.TID 0000.0001) %MON thSI_Tic1_ave_N              =  -1.4400169831098E+01
(PID.TID 0000.0001) %MON thSI_Tic1_min_S              =  -1.4406002726413E+01
(PID.TID 0000.0001) %MON thSI_Tic1_min_N              =  -2.1676042797832E+01
(PID.TID 0000.0001) %MON thSI_Tic1_max_S              =  -1.5017097026336E-01
(PID.TID 0000.0001) %MON thSI_Tic1_max_N              =  -7.6063391490432E-01
(PID.TID 0000.0001) %MON thSI_Tic2_ave_G              =  -3.9489046898270E+00
(PID.TID 0000.0001) %MON thSI_Tic2_ave_S              =  -3.0578677014518E+00
(PID.TID 0000.0001) %MON thSI_Tic2_ave_N              =  -5.2513725771035E+00
(PID.TID 0000.0001) %MON thSI_Tic2_min_S              =  -8.3584099742914E+00
(PID.TID 0000.0001) %MON thSI_Tic2_min_N              =  -7.9019947865632E+00
(PID.TID 0000.0001) %MON thSI_Tic2_max_S              =  -1.0049937933691E+00
(PID.TID 0000.0001) %MON thSI_Tic2_max_N              =  -1.3678385227643E+00
(PID.TID 0000.0001) // =======================================================
(PID.TID 0000.0001) // End MONITOR Therm.SeaIce statistics
(PID.TID 0000.0001) // =======================================================
 cg2d: Sum(rhs),rhsMax =   3.90646377728444E+02  2.31200667482174E+02
(PID.TID 0000.0001)                    cg2d_init_res =    2.53643882565289E+00
(PID.TID 0000.0001)                       cg2d_iters =    70
(PID.TID 0000.0001)                         cg2d_res =    4.57173934179493E-07
(PID.TID 0000.0001) // =======================================================
(PID.TID 0000.0001) // Begin MONITOR dynamic field statistics
(PID.TID 0000.0001) // =======================================================
(PID.TID 0000.0001) %MON time_tsnumber                =                 36017
(PID.TID 0000.0001) %MON time_secondsf                =   3.1118688000000E+09
(PID.TID 0000.0001) %MON dynstat_eta_max              =   7.1257567189235E-01
(PID.TID 0000.0001) %MON dynstat_eta_min              =  -1.1947548555341E+01
(PID.TID 0000.0001) %MON dynstat_eta_mean             =  -5.8102516748152E-01
(PID.TID 0000.0001) %MON dynstat_eta_sd               =   1.6900702734359E+00
(PID.TID 0000.0001) %MON dynstat_eta_del2             =   9.6559825540441E-02
(PID.TID 0000.0001) %MON dynstat_uvel_max             =   1.7292199822217E-01
(PID.TID 0000.0001) %MON dynstat_uvel_min             =  -2.6444718027575E-01
(PID.TID 0000.0001) %MON dynstat_uvel_mean            =  -5.1979428761300E-04
(PID.TID 0000.0001) %MON dynstat_uvel_sd              =   1.2983483598234E-02
(PID.TID 0000.0001) %MON dynstat_uvel_del2            =   1.7901821227669E-03
(PID.TID 0000.0001) %MON dynstat_vvel_max             =   1.9316905687236E-01
(PID.TID 0000.0001) %MON dynstat_vvel_min             =  -2.1158535870915E-01
(PID.TID 0000.0001) %MON dynstat_vvel_mean            =  -4.1659275818772E-04
(PID.TID 0000.0001) %MON dynstat_vvel_sd              =   1.3482968976124E-02
(PID.TID 0000.0001) %MON dynstat_vvel_del2            =   1.8157965478718E-03
(PID.TID 0000.0001) %MON dynstat_wvel_max             =   9.2592837155857E-05
(PID.TID 0000.0001) %MON dynstat_wvel_min             =  -1.7677023256743E-04
(PID.TID 0000.0001) %MON dynstat_wvel_mean            =  -9.9737213463652E-10
(PID.TID 0000.0001) %MON dynstat_wvel_sd              =   4.6219126867905E-06
(PID.TID 0000.0001) %MON dynstat_wvel_del2            =   1.1330110162832E-06
(PID.TID 0000.0001) %MON dynstat_theta_max            =   2.9866155146212E+01
(PID.TID 0000.0001) %MON dynstat_theta_min            =  -5.3871975610575E+00
(PID.TID 0000.0001) %MON dynstat_theta_mean           =   3.5036719714234E+00
(PID.TID 0000.0001) %MON dynstat_theta_sd             =   4.7505504520413E+00
(PID.TID 0000.0001) %MON dynstat_theta_del2           =   9.5824165996842E-02
(PID.TID 0000.0001) %MON dynstat_salt_max             =   4.0841693396373E+01
(PID.TID 0000.0001) %MON dynstat_salt_min             =   1.8096662243907E+01
(PID.TID 0000.0001) %MON dynstat_salt_mean            =   3.4756112388551E+01
(PID.TID 0000.0001) %MON dynstat_salt_sd              =   5.1178720603332E-01
(PID.TID 0000.0001) %MON dynstat_salt_del2            =   2.0005351575746E-02
(PID.TID 0000.0001) %MON extforcing_qnet_max          =   8.1172254964447E+02
(PID.TID 0000.0001) %MON extforcing_qnet_min          =  -2.3175165585527E+02
(PID.TID 0000.0001) %MON extforcing_qnet_mean         =  -4.6159863786230E+00
(PID.TID 0000.0001) %MON extforcing_qnet_sd           =   1.1823624273891E+02
(PID.TID 0000.0001) %MON extforcing_qnet_del2         =   1.2820802264776E+01
(PID.TID 0000.0001) %MON extforcing_qsw_max           =   0.0000000000000E+00
(PID.TID 0000.0001) %MON extforcing_qsw_min           =   0.0000000000000E+00
(PID.TID 0000.0001) %MON extforcing_qsw_mean          =   0.0000000000000E+00
(PID.TID 0000.0001) %MON extforcing_qsw_sd            =   0.0000000000000E+00
(PID.TID 0000.0001) %MON extforcing_qsw_del2          =   0.0000000000000E+00
(PID.TID 0000.0001) %MON extforcing_empmr_max         =   3.8793279894501E-07
(PID.TID 0000.0001) %MON extforcing_empmr_min         =  -3.1436285256682E-07
(PID.TID 0000.0001) %MON extforcing_empmr_mean        =   3.6769349930730E-10
(PID.TID 0000.0001) %MON extforcing_empmr_sd          =   5.1532577270038E-08
(PID.TID 0000.0001) %MON extforcing_empmr_del2        =   8.5421829537798E-09
(PID.TID 0000.0001) %MON extforcing_fu_max            =   2.4586080052368E-01
(PID.TID 0000.0001) %MON extforcing_fu_min            =  -2.1357997216533E-01
(PID.TID 0000.0001) %MON extforcing_fu_mean           =  -1.5675394128258E-03
(PID.TID 0000.0001) %MON extforcing_fu_sd             =   6.2042031370506E-02
(PID.TID 0000.0001) %MON extforcing_fu_del2           =   3.5486979008902E-03
(PID.TID 0000.0001) %MON extforcing_fv_max            =   2.9225622243089E-01
(PID.TID 0000.0001) %MON extforcing_fv_min            =  -3.3606226010595E-01
(PID.TID 0000.0001) %MON extforcing_fv_mean           =  -5.5267954003535E-03
(PID.TID 0000.0001) %MON extforcing_fv_sd             =   7.0068321601704E-02
(PID.TID 0000.0001) %MON extforcing_fv_del2           =   3.4842187020941E-03
(PID.TID 0000.0001) %MON advcfl_uvel_max              =   7.5002236541865E-02
(PID.TID 0000.0001) %MON advcfl_vvel_max              =   8.4199670483614E-02
(PID.TID 0000.0001) %MON advcfl_wvel_max              =   5.7633766391796E-02
(PID.TID 0000.0001) %MON advcfl_W_hf_max              =   1.1368387157232E-01
(PID.TID 0000.0001) %MON pe_b_mean                    =  -1.8962890518528E-03
(PID.TID 0000.0001) %MON ke_max                       =   3.4802347694101E-02
(PID.TID 0000.0001) %MON ke_mean                      =   1.6198750049190E-04
(PID.TID 0000.0001) %MON ke_vol                       =   1.3395910291794E+18
(PID.TID 0000.0001) %MON vort_r_min                   =  -1.2891315849558E-06
(PID.TID 0000.0001) %MON vort_r_max                   =   1.4171598359123E-06
(PID.TID 0000.0001) %MON vort_a_mean                  =  -2.0493733748264E-05
(PID.TID 0000.0001) %MON vort_a_sd                    =   7.5054012719185E-05
(PID.TID 0000.0001) %MON vort_p_mean                  =  -2.4719481375665E-05
(PID.TID 0000.0001) %MON vort_p_sd                    =   1.2782278785350E-04
(PID.TID 0000.0001) %MON surfExpan_theta_mean         =   8.2717677735753E-08
(PID.TID 0000.0001) %MON surfExpan_salt_mean          =   1.9594882830953E-08
(PID.TID 0000.0001) // =======================================================
(PID.TID 0000.0001) // End MONITOR dynamic field statistics
(PID.TID 0000.0001) // =======================================================
(PID.TID 0000.0001) // =======================================================
(PID.TID 0000.0001) // Begin MONITOR Therm.SeaIce statistics
(PID.TID 0000.0001) // =======================================================
(PID.TID 0000.0001) %MON thSI_time_sec                =   3.1118688000000E+09
(PID.TID 0000.0001) %MON thSI_Ice_Area_G              =   2.4634747739121E+13
(PID.TID 0000.0001) %MON thSI_Ice_Area_S              =   1.1393419937371E+13
(PID.TID 0000.0001) %MON thSI_Ice_Area_N              =   1.3241327801750E+13
(PID.TID 0000.0001) %MON thSI_IceH_ave_G              =   4.5923820337029E+00
(PID.TID 0000.0001) %MON thSI_IceH_ave_S              =   5.8884028094128E+00
(PID.TID 0000.0001) %MON thSI_IceH_ave_N              =   3.4772288431544E+00
(PID.TID 0000.0001) %MON thSI_IceH_max_S              =   1.0000000000000E+01
(PID.TID 0000.0001) %MON thSI_IceH_max_N              =   1.0000000000000E+01
(PID.TID 0000.0001) %MON thSI_SnwH_ave_G              =   1.0064633191620E+00
(PID.TID 0000.0001) %MON thSI_SnwH_ave_S              =   1.7315495555199E+00
(PID.TID 0000.0001) %MON thSI_SnwH_ave_N              =   3.8256727902767E-01
(PID.TID 0000.0001) %MON thSI_SnwH_max_S              =   4.0921011542377E+00
(PID.TID 0000.0001) %MON thSI_SnwH_max_N              =   4.0935603968274E+00
(PID.TID 0000.0001) %MON thSI_TotEnerg_G              =  -3.7894840916263E+22
(PID.TID 0000.0001) %MON thSI_Tsrf_ave_G              =  -1.8013558803043E+01
(PID.TID 0000.0001) %MON thSI_Tsrf_ave_S              =  -1.4856824039191E-01
(PID.TID 0000.0001) %MON thSI_Tsrf_ave_N              =  -3.3385381229383E+01
(PID.TID 0000.0001) %MON thSI_Tsrf_min_S              =  -5.7900560736191E+00
(PID.TID 0000.0001) %MON thSI_Tsrf_min_N              =  -4.7926257754697E+01
(PID.TID 0000.0001) %MON thSI_Tsrf_max_S              =   0.0000000000000E+00
(PID.TID 0000.0001) %MON thSI_Tsrf_max_N              =  -1.7864285343134E+00
(PID.TID 0000.0001) %MON thSI_Tic1_ave_G              =  -8.7321165238795E+00
(PID.TID 0000.0001) %MON thSI_Tic1_ave_S              =  -4.8006136265754E+00
(PID.TID 0000.0001) %MON thSI_Tic1_ave_N              =  -1.4460675725880E+01
(PID.TID 0000.0001) %MON thSI_Tic1_min_S              =  -1.4277621455090E+01
(PID.TID 0000.0001) %MON thSI_Tic1_min_N              =  -2.1773667532495E+01
(PID.TID 0000.0001) %MON thSI_Tic1_max_S              =  -1.4563648136397E-01
(PID.TID 0000.0001) %MON thSI_Tic1_max_N              =  -7.7459669568579E-01
(PID.TID 0000.0001) %MON thSI_Tic2_ave_G              =  -3.9587169144442E+00
(PID.TID 0000.0001) %MON thSI_Tic2_ave_S              =  -3.0539287633939E+00
(PID.TID 0000.0001) %MON thSI_Tic2_ave_N              =  -5.2770759806717E+00
(PID.TID 0000.0001) %MON thSI_Tic2_min_S              =  -8.3232734507111E+00
(PID.TID 0000.0001) %MON thSI_Tic2_min_N              =  -7.9256564830173E+00
(PID.TID 0000.0001) %MON thSI_Tic2_max_S              =  -9.8444640633420E-01
(PID.TID 0000.0001) %MON thSI_Tic2_max_N              =  -1.3713777839851E+00
(PID.TID 0000.0001) // =======================================================
(PID.TID 0000.0001) // End MONITOR Therm.SeaIce statistics
(PID.TID 0000.0001) // =======================================================
 cg2d: Sum(rhs),rhsMax =   3.90679781837114E+02  2.31320255378605E+02
(PID.TID 0000.0001)                    cg2d_init_res =    2.53465734716112E+00
(PID.TID 0000.0001)                       cg2d_iters =    69
(PID.TID 0000.0001)                         cg2d_res =    5.76114693888512E-07
(PID.TID 0000.0001) // =======================================================
(PID.TID 0000.0001) // Begin MONITOR dynamic field statistics
(PID.TID 0000.0001) // =======================================================
(PID.TID 0000.0001) %MON time_tsnumber                =                 36018
(PID.TID 0000.0001) %MON time_secondsf                =   3.1119552000000E+09
(PID.TID 0000.0001) %MON dynstat_eta_max              =   7.1147332980170E-01
(PID.TID 0000.0001) %MON dynstat_eta_min              =  -1.1944620696981E+01
(PID.TID 0000.0001) %MON dynstat_eta_mean             =  -5.8107485084976E-01
(PID.TID 0000.0001) %MON dynstat_eta_sd               =   1.6896625380851E+00
(PID.TID 0000.0001) %MON dynstat_eta_del2             =   9.6575845385474E-02
(PID.TID 0000.0001) %MON dynstat_uvel_max             =   1.7304258877568E-01
(PID.TID 0000.0001) %MON dynstat_uvel_min             =  -2.6392284561566E-01
(PID.TID 0000.0001) %MON dynstat_uvel_mean            =  -5.1897569590169E-04
(PID.TID 0000.0001) %MON dynstat_uvel_sd              =   1.2984101491834E-02
(PID.TID 0000.0001) %MON dynstat_uvel_del2            =   1.7903754070113E-03
(PID.TID 0000.0001) %MON dynstat_vvel_max             =   1.9269362100116E-01
(PID.TID 0000.0001) %MON dynstat_vvel_min             =  -2.1159076484653E-01
(PID.TID 0000.0001) %MON dynstat_vvel_mean            =  -4.1605385623169E-04
(PID.TID 0000.0001) %MON dynstat_vvel_sd              =   1.3480262950680E-02
(PID.TID 0000.0001) %MON dynstat_vvel_del2            =   1.8152092694575E-03
(PID.TID 0000.0001) %MON dynstat_wvel_max             =   9.3004482230799E-05
(PID.TID 0000.0001) %MON dynstat_wvel_min             =  -1.7653643167526E-04
(PID.TID 0000.0001) %MON dynstat_wvel_mean            =  -9.5836906147581E-10
(PID.TID 0000.0001) %MON dynstat_wvel_sd              =   4.6213994901325E-06
(PID.TID 0000.0001) %MON dynstat_wvel_del2            =   1.1329925797357E-06
(PID.TID 0000.0001) %MON dynstat_theta_max            =   2.9852720603714E+01
(PID.TID 0000.0001) %MON dynstat_theta_min            =  -5.3784915072951E+00
(PID.TID 0000.0001) %MON dynstat_theta_mean           =   3.5037295277787E+00
(PID.TID 0000.0001) %MON dynstat_theta_sd             =   4.7506890665583E+00
(PID.TID 0000.0001) %MON dynstat_theta_del2           =   9.5884782346820E-02
(PID.TID 0000.0001) %MON dynstat_salt_max             =   4.0842074481015E+01
(PID.TID 0000.0001) %MON dynstat_salt_min             =   1.8098077502972E+01
(PID.TID 0000.0001) %MON dynstat_salt_mean            =   3.4756113881948E+01
(PID.TID 0000.0001) %MON dynstat_salt_sd              =   5.1177740045253E-01
(PID.TID 0000.0001) %MON dynstat_salt_del2            =   2.0003079192990E-02
(PID.TID 0000.0001) %MON extforcing_qnet_max          =   8.0490375219661E+02
(PID.TID 0000.0001) %MON extforcing_qnet_min          =  -2.3021627012931E+02
(PID.TID 0000.0001) %MON extforcing_qnet_mean         =  -4.7834471940479E+00
(PID.TID 0000.0001) %MON extforcing_qnet_sd           =   1.1623915754367E+02
(PID.TID 0000.0001) %MON extforcing_qnet_del2         =   1.2737639139451E+01
(PID.TID 0000.0001) %MON extforcing_qsw_max           =   0.0000000000000E+00
(PID.TID 0000.0001) %MON extforcing_qsw_min           =   0.0000000000000E+00
(PID.TID 0000.0001) %MON extforcing_qsw_mean          =   0.0000000000000E+00
(PID.TID 0000.0001) %MON extforcing_qsw_sd            =   0.0000000000000E+00
(PID.TID 0000.0001) %MON extforcing_qsw_del2          =   0.0000000000000E+00
(PID.TID 0000.0001) %MON extforcing_empmr_max         =   8.8211554549080E-07
(PID.TID 0000.0001) %MON extforcing_empmr_min         =  -3.0996336506812E-07
(PID.TID 0000.0001) %MON extforcing_empmr_mean        =   5.9516534864781E-10
(PID.TID 0000.0001) %MON extforcing_empmr_sd          =   5.2942130182985E-08
(PID.TID 0000.0001) %MON extforcing_empmr_del2        =   8.6351476092631E-09
(PID.TID 0000.0001) %MON extforcing_fu_max            =   2.4279378961307E-01
(PID.TID 0000.0001) %MON extforcing_fu_min            =  -2.1180240405542E-01
(PID.TID 0000.0001) %MON extforcing_fu_mean           =  -1.6306457014569E-03
(PID.TID 0000.0001) %MON extforcing_fu_sd             =   6.1844577005243E-02
(PID.TID 0000.0001) %MON extforcing_fu_del2           =   3.5133153371273E-03
(PID.TID 0000.0001) %MON extforcing_fv_max            =   2.9145284083641E-01
(PID.TID 0000.0001) %MON extforcing_fv_min            =  -3.3262320792717E-01
(PID.TID 0000.0001) %MON extforcing_fv_mean           =  -5.3746338570634E-03
(PID.TID 0000.0001) %MON extforcing_fv_sd             =   6.9665585852992E-02
(PID.TID 0000.0001) %MON extforcing_fv_del2           =   3.4527246795856E-03
(PID.TID 0000.0001) %MON advcfl_uvel_max              =   7.4853525286323E-02
(PID.TID 0000.0001) %MON advcfl_vvel_max              =   8.3992434685398E-02
(PID.TID 0000.0001) %MON advcfl_wvel_max              =   5.7557538478274E-02
(PID.TID 0000.0001) %MON advcfl_W_hf_max              =   1.1213808844976E-01
(PID.TID 0000.0001) %MON pe_b_mean                    =  -1.8957040781686E-03
(PID.TID 0000.0001) %MON ke_max                       =   3.4658322372239E-02
(PID.TID 0000.0001) %MON ke_mean                      =   1.6196044115599E-04
(PID.TID 0000.0001) %MON ke_vol                       =   1.3395910180101E+18
(PID.TID 0000.0001) %MON vort_r_min                   =  -1.2937932330263E-06
(PID.TID 0000.0001) %MON vort_r_max                   =   1.4186235192642E-06
(PID.TID 0000.0001) %MON vort_a_mean                  =  -2.0493733748264E-05
(PID.TID 0000.0001) %MON vort_a_sd                    =   7.5054012695175E-05
(PID.TID 0000.0001) %MON vort_p_mean                  =  -2.4719481197800E-05
(PID.TID 0000.0001) %MON vort_p_sd                    =   1.2782279529841E-04
(PID.TID 0000.0001) %MON surfExpan_theta_mean         =   8.1893519310831E-08
(PID.TID 0000.0001) %MON surfExpan_salt_mean          =   1.9541152958283E-08
(PID.TID 0000.0001) // =======================================================
(PID.TID 0000.0001) // End MONITOR dynamic field statistics
(PID.TID 0000.0001) // =======================================================
(PID.TID 0000.0001) // =======================================================
(PID.TID 0000.0001) // Begin MONITOR Therm.SeaIce statistics
(PID.TID 0000.0001) // =======================================================
(PID.TID 0000.0001) %MON thSI_time_sec                =   3.1119552000000E+09
(PID.TID 0000.0001) %MON thSI_Ice_Area_G              =   2.4639055295887E+13
(PID.TID 0000.0001) %MON thSI_Ice_Area_S              =   1.1352875500148E+13
(PID.TID 0000.0001) %MON thSI_Ice_Area_N              =   1.3286179795739E+13
(PID.TID 0000.0001) %MON thSI_IceH_ave_G              =   4.5919321583897E+00
(PID.TID 0000.0001) %MON thSI_IceH_ave_S              =   5.9019467590728E+00
(PID.TID 0000.0001) %MON thSI_IceH_ave_N              =   3.4725409644138E+00
(PID.TID 0000.0001) %MON thSI_IceH_max_S              =   1.0000000000000E+01
(PID.TID 0000.0001) %MON thSI_IceH_max_N              =   1.0000000000000E+01
(PID.TID 0000.0001) %MON thSI_SnwH_ave_G              =   1.0042015520962E+00
(PID.TID 0000.0001) %MON thSI_SnwH_ave_S              =   1.7298734733338E+00
(PID.TID 0000.0001) %MON thSI_SnwH_ave_N              =   3.8412391485045E-01
(PID.TID 0000.0001) %MON thSI_SnwH_max_S              =   4.0921171372843E+00
(PID.TID 0000.0001) %MON thSI_SnwH_max_N              =   4.0935565395413E+00
(PID.TID 0000.0001) %MON thSI_TotEnerg_G              =  -3.7894043848272E+22
(PID.TID 0000.0001) %MON thSI_Tsrf_ave_G              =  -1.8064830437495E+01
(PID.TID 0000.0001) %MON thSI_Tsrf_ave_S              =  -1.8663608489550E-01
(PID.TID 0000.0001) %MON thSI_Tsrf_ave_N              =  -3.3341525301854E+01
(PID.TID 0000.0001) %MON thSI_Tsrf_min_S              =  -6.0831347267681E+00
(PID.TID 0000.0001) %MON thSI_Tsrf_min_N              =  -4.7913109448363E+01
(PID.TID 0000.0001) %MON thSI_Tsrf_max_S              =   0.0000000000000E+00
(PID.TID 0000.0001) %MON thSI_Tsrf_max_N              =  -5.5461245987324E+00
(PID.TID 0000.0001) %MON thSI_Tic1_ave_G              =  -8.7502436284121E+00
(PID.TID 0000.0001) %MON thSI_Tic1_ave_S              =  -4.7785335904881E+00
(PID.TID 0000.0001) %MON thSI_Tic1_ave_N              =  -1.4518322554062E+01
(PID.TID 0000.0001) %MON thSI_Tic1_min_S              =  -1.3839050286952E+01
(PID.TID 0000.0001) %MON thSI_Tic1_min_N              =  -2.1869010079157E+01
(PID.TID 0000.0001) %MON thSI_Tic1_max_S              =  -1.4136852192689E-01
(PID.TID 0000.0001) %MON thSI_Tic1_max_N              =  -7.8892728741332E-01
(PID.TID 0000.0001) %MON thSI_Tic2_ave_G              =  -3.9683572917506E+00
(PID.TID 0000.0001) %MON thSI_Tic2_ave_S              =  -3.0499713017648E+00
(PID.TID 0000.0001) %MON thSI_Tic2_ave_N              =  -5.3021210418399E+00
(PID.TID 0000.0001) %MON thSI_Tic2_min_S              =  -8.2881848991254E+00
(PID.TID 0000.0001) %MON thSI_Tic2_min_N              =  -7.9485444898008E+00
(PID.TID 0000.0001) %MON thSI_Tic2_max_S              =  -9.5942604050094E-01
(PID.TID 0000.0001) %MON thSI_Tic2_max_N              =  -1.3750136803325E+00
(PID.TID 0000.0001) // =======================================================
(PID.TID 0000.0001) // End MONITOR Therm.SeaIce statistics
(PID.TID 0000.0001) // =======================================================
 cg2d: Sum(rhs),rhsMax =   3.90721589173199E+02  2.31431726061306E+02
(PID.TID 0000.0001)                    cg2d_init_res =    2.48947708697855E+00
(PID.TID 0000.0001)                       cg2d_iters =    69
(PID.TID 0000.0001)                         cg2d_res =    5.63252253637356E-07
(PID.TID 0000.0001) // =======================================================
(PID.TID 0000.0001) // Begin MONITOR dynamic field statistics
(PID.TID 0000.0001) // =======================================================
(PID.TID 0000.0001) %MON time_tsnumber                =                 36019
(PID.TID 0000.0001) %MON time_secondsf                =   3.1120416000000E+09
(PID.TID 0000.0001) %MON dynstat_eta_max              =   7.1040905995599E-01
(PID.TID 0000.0001) %MON dynstat_eta_min              =  -1.1941888356400E+01
(PID.TID 0000.0001) %MON dynstat_eta_mean             =  -5.8113703269973E-01
(PID.TID 0000.0001) %MON dynstat_eta_sd               =   1.6893006267671E+00
(PID.TID 0000.0001) %MON dynstat_eta_del2             =   9.6585001741800E-02
(PID.TID 0000.0001) %MON dynstat_uvel_max             =   1.7310433007013E-01
(PID.TID 0000.0001) %MON dynstat_uvel_min             =  -2.6338708991589E-01
(PID.TID 0000.0001) %MON dynstat_uvel_mean            =  -5.1816518797717E-04
(PID.TID 0000.0001) %MON dynstat_uvel_sd              =   1.2984788047202E-02
(PID.TID 0000.0001) %MON dynstat_uvel_del2            =   1.7904826769630E-03
(PID.TID 0000.0001) %MON dynstat_vvel_max             =   1.9218111742526E-01
(PID.TID 0000.0001) %MON dynstat_vvel_min             =  -2.1158819507074E-01
(PID.TID 0000.0001) %MON dynstat_vvel_mean            =  -4.1548020243276E-04
(PID.TID 0000.0001) %MON dynstat_vvel_sd              =   1.3477142591265E-02
(PID.TID 0000.0001) %MON dynstat_vvel_del2            =   1.8145989199108E-03
(PID.TID 0000.0001) %MON dynstat_wvel_max             =   9.3351673384861E-05
(PID.TID 0000.0001) %MON dynstat_wvel_min             =  -1.7631238231940E-04
(PID.TID 0000.0001) %MON dynstat_wvel_mean            =  -8.9560631845913E-10
(PID.TID 0000.0001) %MON dynstat_wvel_sd              =   4.6207330993625E-06
(PID.TID 0000.0001) %MON dynstat_wvel_del2            =   1.1329200211567E-06
(PID.TID 0000.0001) %MON dynstat_theta_max            =   2.9839381486352E+01
(PID.TID 0000.0001) %MON dynstat_theta_min            =  -5.3696358727099E+00
(PID.TID 0000.0001) %MON dynstat_theta_mean           =   3.5037878695923E+00
(PID.TID 0000.0001) %MON dynstat_theta_sd             =   4.7508362398985E+00
(PID.TID 0000.0001) %MON dynstat_theta_del2           =   9.5980420171425E-02
(PID.TID 0000.0001) %MON dynstat_salt_max             =   4.0842351869509E+01
(PID.TID 0000.0001) %MON dynstat_salt_min             =   1.8099494636999E+01
(PID.TID 0000.0001) %MON dynstat_salt_mean            =   3.4756115516997E+01
(PID.TID 0000.0001) %MON dynstat_salt_sd              =   5.1176737412128E-01
(PID.TID 0000.0001) %MON dynstat_salt_del2            =   2.0022879319501E-02
(PID.TID 0000.0001) %MON extforcing_qnet_max          =   7.9820269287944E+02
(PID.TID 0000.0001) %MON extforcing_qnet_min          =  -2.2866501490334E+02
(PID.TID 0000.0001) %MON extforcing_qnet_mean         =  -4.8908186539560E+00
(PID.TID 0000.0001) %MON extforcing_qnet_sd           =   1.1438630497861E+02
(PID.TID 0000.0001) %MON extforcing_qnet_del2         =   1.2616092068973E+01
(PID.TID 0000.0001) %MON extforcing_qsw_max           =   0.0000000000000E+00
(PID.TID 0000.0001) %MON extforcing_qsw_min           =   0.0000000000000E+00
(PID.TID 0000.0001) %MON extforcing_qsw_mean          =   0.0000000000000E+00
(PID.TID 0000.0001) %MON extforcing_qsw_sd            =   0.0000000000000E+00
(PID.TID 0000.0001) %MON extforcing_qsw_del2          =   0.0000000000000E+00
(PID.TID 0000.0001) %MON extforcing_empmr_max         =   6.5714072035578E-07
(PID.TID 0000.0001) %MON extforcing_empmr_min         =  -3.0019627970721E-07
(PID.TID 0000.0001) %MON extforcing_empmr_mean        =   7.4488674441145E-10
(PID.TID 0000.0001) %MON extforcing_empmr_sd          =   5.2186168842874E-08
(PID.TID 0000.0001) %MON extforcing_empmr_del2        =   8.5834619862143E-09
(PID.TID 0000.0001) %MON extforcing_fu_max            =   2.3972677870247E-01
(PID.TID 0000.0001) %MON extforcing_fu_min            =  -2.1002483594552E-01
(PID.TID 0000.0001) %MON extforcing_fu_mean           =  -1.6937520788610E-03
(PID.TID 0000.0001) %MON extforcing_fu_sd             =   6.1659636640806E-02
(PID.TID 0000.0001) %MON extforcing_fu_del2           =   3.4804689803162E-03
(PID.TID 0000.0001) %MON extforcing_fv_max            =   2.9064945924193E-01
(PID.TID 0000.0001) %MON extforcing_fv_min            =  -3.2918415574839E-01
(PID.TID 0000.0001) %MON extforcing_fv_mean           =  -5.2224724537476E-03
(PID.TID 0000.0001) %MON extforcing_fv_sd             =   6.9271992684301E-02
(PID.TID 0000.0001) %MON extforcing_fv_del2           =   3.4226173805692E-03
(PID.TID 0000.0001) %MON advcfl_uvel_max              =   7.4701574807288E-02
(PID.TID 0000.0001) %MON advcfl_vvel_max              =   8.3769041596925E-02
(PID.TID 0000.0001) %MON advcfl_wvel_max              =   5.7484489933572E-02
(PID.TID 0000.0001) %MON advcfl_W_hf_max              =   1.1055169922550E-01
(PID.TID 0000.0001) %MON pe_b_mean                    =  -1.8952492203353E-03
(PID.TID 0000.0001) %MON ke_max                       =   3.4513215919589E-02
(PID.TID 0000.0001) %MON ke_mean                      =   1.6192901831447E-04
(PID.TID 0000.0001) %MON ke_vol                       =   1.3395909999310E+18
(PID.TID 0000.0001) %MON vort_r_min                   =  -1.2982381598238E-06
(PID.TID 0000.0001) %MON vort_r_max                   =   1.4196064298895E-06
(PID.TID 0000.0001) %MON vort_a_mean                  =  -2.0493733748264E-05
(PID.TID 0000.0001) %MON vort_a_sd                    =   7.5054012690786E-05
(PID.TID 0000.0001) %MON vort_p_mean                  =  -2.4719481095931E-05
(PID.TID 0000.0001) %MON vort_p_sd                    =   1.2782280511403E-04
(PID.TID 0000.0001) %MON surfExpan_theta_mean         =   8.1209112152478E-08
(PID.TID 0000.0001) %MON surfExpan_salt_mean          =   1.9210237386150E-08
(PID.TID 0000.0001) // =======================================================
(PID.TID 0000.0001) // End MONITOR dynamic field statistics
(PID.TID 0000.0001) // =======================================================
(PID.TID 0000.0001) // =======================================================
(PID.TID 0000.0001) // Begin MONITOR Therm.SeaIce statistics
(PID.TID 0000.0001) // =======================================================
(PID.TID 0000.0001) %MON thSI_time_sec                =   3.1120416000000E+09
(PID.TID 0000.0001) %MON thSI_Ice_Area_G              =   2.4644818079899E+13
(PID.TID 0000.0001) %MON thSI_Ice_Area_S              =   1.1307260899088E+13
(PID.TID 0000.0001) %MON thSI_Ice_Area_N              =   1.3337557180811E+13
(PID.TID 0000.0001) %MON thSI_IceH_ave_G              =   4.5913198366466E+00
(PID.TID 0000.0001) %MON thSI_IceH_ave_S              =   5.9184164241189E+00
(PID.TID 0000.0001) %MON thSI_IceH_ave_N              =   3.4662391978600E+00
(PID.TID 0000.0001) %MON thSI_IceH_max_S              =   1.0000000000000E+01
(PID.TID 0000.0001) %MON thSI_IceH_max_N              =   1.0000000000000E+01
(PID.TID 0000.0001) %MON thSI_SnwH_ave_G              =   1.0022115359533E+00
(PID.TID 0000.0001) %MON thSI_SnwH_ave_S              =   1.7296607048065E+00
(PID.TID 0000.0001) %MON thSI_SnwH_ave_N              =   3.8549758814865E-01
(PID.TID 0000.0001) %MON thSI_SnwH_max_S              =   4.0921335392509E+00
(PID.TID 0000.0001) %MON thSI_SnwH_max_N              =   4.0935524541095E+00
(PID.TID 0000.0001) %MON thSI_TotEnerg_G              =  -3.7894532713325E+22
(PID.TID 0000.0001) %MON thSI_Tsrf_ave_G              =  -1.8107110732427E+01
(PID.TID 0000.0001) %MON thSI_Tsrf_ave_S              =  -2.2498406805464E-01
(PID.TID 0000.0001) %MON thSI_Tsrf_ave_N              =  -3.3267148577702E+01
(PID.TID 0000.0001) %MON thSI_Tsrf_min_S              =  -6.3853192489449E+00
(PID.TID 0000.0001) %MON thSI_Tsrf_min_N              =  -4.7899728355000E+01
(PID.TID 0000.0001) %MON thSI_Tsrf_max_S              =   0.0000000000000E+00
(PID.TID 0000.0001) %MON thSI_Tsrf_max_N              =  -1.7146757512941E+00
(PID.TID 0000.0001) %MON thSI_Tic1_ave_G              =  -8.7666007487203E+00
(PID.TID 0000.0001) %MON thSI_Tic1_ave_S              =  -4.7555632041239E+00
(PID.TID 0000.0001) %MON thSI_Tic1_ave_N              =  -1.4572705084280E+01
(PID.TID 0000.0001) %MON thSI_Tic1_min_S              =  -1.3719032431461E+01
(PID.TID 0000.0001) %MON thSI_Tic1_min_N              =  -2.1962132923622E+01
(PID.TID 0000.0001) %MON thSI_Tic1_max_S              =  -1.3734647400759E-01
(PID.TID 0000.0001) %MON thSI_Tic1_max_N              =  -8.0363866318508E-01
(PID.TID 0000.0001) %MON thSI_Tic2_ave_G              =  -3.9776430389201E+00
(PID.TID 0000.0001) %MON thSI_Tic2_ave_S              =  -3.0459617833715E+00
(PID.TID 0000.0001) %MON thSI_Tic2_ave_N              =  -5.3262812695663E+00
(PID.TID 0000.0001) %MON thSI_Tic2_min_S              =  -8.2520211890451E+00
(PID.TID 0000.0001) %MON thSI_Tic2_min_N              =  -7.9706750403046E+00
(PID.TID 0000.0001) %MON thSI_Tic2_max_S              =  -9.3450840614323E-01
(PID.TID 0000.0001) %MON thSI_Tic2_max_N              =  -1.3787480321567E+00
(PID.TID 0000.0001) // =======================================================
(PID.TID 0000.0001) // End MONITOR Therm.SeaIce statistics
(PID.TID 0000.0001) // =======================================================
 cg2d: Sum(rhs),rhsMax =   3.90755922586463E+02  2.31532921563781E+02
(PID.TID 0000.0001)                    cg2d_init_res =    2.46681106957044E+00
(PID.TID 0000.0001)                       cg2d_iters =    69
(PID.TID 0000.0001)                         cg2d_res =    5.46652053821632E-07
(PID.TID 0000.0001) // =======================================================
(PID.TID 0000.0001) // Begin MONITOR dynamic field statistics
(PID.TID 0000.0001) // =======================================================
(PID.TID 0000.0001) %MON time_tsnumber                =                 36020
(PID.TID 0000.0001) %MON time_secondsf                =   3.1121280000000E+09
(PID.TID 0000.0001) %MON dynstat_eta_max              =   7.0938931939128E-01
(PID.TID 0000.0001) %MON dynstat_eta_min              =  -1.1939347282404E+01
(PID.TID 0000.0001) %MON dynstat_eta_mean             =  -5.8118809826267E-01
(PID.TID 0000.0001) %MON dynstat_eta_sd               =   1.6889739636890E+00
(PID.TID 0000.0001) %MON dynstat_eta_del2             =   9.6594450858047E-02
(PID.TID 0000.0001) %MON dynstat_uvel_max             =   1.7310780943663E-01
(PID.TID 0000.0001) %MON dynstat_uvel_min             =  -2.6283975014027E-01
(PID.TID 0000.0001) %MON dynstat_uvel_mean            =  -5.1738149093759E-04
(PID.TID 0000.0001) %MON dynstat_uvel_sd              =   1.2985506008318E-02
(PID.TID 0000.0001) %MON dynstat_uvel_del2            =   1.7905206849653E-03
(PID.TID 0000.0001) %MON dynstat_vvel_max             =   1.9163420107351E-01
(PID.TID 0000.0001) %MON dynstat_vvel_min             =  -2.1157796348265E-01
(PID.TID 0000.0001) %MON dynstat_vvel_mean            =  -4.1486919726928E-04
(PID.TID 0000.0001) %MON dynstat_vvel_sd              =   1.3473672124677E-02
(PID.TID 0000.0001) %MON dynstat_vvel_del2            =   1.8140006908933E-03
(PID.TID 0000.0001) %MON dynstat_wvel_max             =   9.3630798890412E-05
(PID.TID 0000.0001) %MON dynstat_wvel_min             =  -1.7610579545275E-04
(PID.TID 0000.0001) %MON dynstat_wvel_mean            =  -8.4614526127677E-10
(PID.TID 0000.0001) %MON dynstat_wvel_sd              =   4.6197875492225E-06
(PID.TID 0000.0001) %MON dynstat_wvel_del2            =   1.1327373249949E-06
(PID.TID 0000.0001) %MON dynstat_theta_max            =   2.9826160864862E+01
(PID.TID 0000.0001) %MON dynstat_theta_min            =  -5.3606494304390E+00
(PID.TID 0000.0001) %MON dynstat_theta_mean           =   3.5038462182625E+00
(PID.TID 0000.0001) %MON dynstat_theta_sd             =   4.7509912464821E+00
(PID.TID 0000.0001) %MON dynstat_theta_del2           =   9.6027430480512E-02
(PID.TID 0000.0001) %MON dynstat_salt_max             =   4.0842531065576E+01
(PID.TID 0000.0001) %MON dynstat_salt_min             =   1.8100918573624E+01
(PID.TID 0000.0001) %MON dynstat_salt_mean            =   3.4756117084704E+01
(PID.TID 0000.0001) %MON dynstat_salt_sd              =   5.1175826276441E-01
(PID.TID 0000.0001) %MON dynstat_salt_del2            =   2.0028824114872E-02
(PID.TID 0000.0001) %MON extforcing_qnet_max          =   7.9161656906439E+02
(PID.TID 0000.0001) %MON extforcing_qnet_min          =  -2.2676619270027E+02
(PID.TID 0000.0001) %MON extforcing_qnet_mean         =  -4.8794800857104E+00
(PID.TID 0000.0001) %MON extforcing_qnet_sd           =   1.1269626620241E+02
(PID.TID 0000.0001) %MON extforcing_qnet_del2         =   1.2546929168265E+01
(PID.TID 0000.0001) %MON extforcing_qsw_max           =   0.0000000000000E+00
(PID.TID 0000.0001) %MON extforcing_qsw_min           =   0.0000000000000E+00
(PID.TID 0000.0001) %MON extforcing_qsw_mean          =   0.0000000000000E+00
(PID.TID 0000.0001) %MON extforcing_qsw_sd            =   0.0000000000000E+00
(PID.TID 0000.0001) %MON extforcing_qsw_del2          =   0.0000000000000E+00
(PID.TID 0000.0001) %MON extforcing_empmr_max         =   5.0234000919877E-07
(PID.TID 0000.0001) %MON extforcing_empmr_min         =  -3.0031063311187E-07
(PID.TID 0000.0001) %MON extforcing_empmr_mean        =   6.1172288948385E-10
(PID.TID 0000.0001) %MON extforcing_empmr_sd          =   5.0116615512558E-08
(PID.TID 0000.0001) %MON extforcing_empmr_del2        =   8.3738862459194E-09
(PID.TID 0000.0001) %MON extforcing_fu_max            =   2.3665976779186E-01
(PID.TID 0000.0001) %MON extforcing_fu_min            =  -2.0824726783562E-01
(PID.TID 0000.0001) %MON extforcing_fu_mean           =  -1.7568585249990E-03
(PID.TID 0000.0001) %MON extforcing_fu_sd             =   6.1487323200427E-02
(PID.TID 0000.0001) %MON extforcing_fu_del2           =   3.4499957832840E-03
(PID.TID 0000.0001) %MON extforcing_fv_max            =   2.8984607764745E-01
(PID.TID 0000.0001) %MON extforcing_fv_min            =  -3.2574510356961E-01
(PID.TID 0000.0001) %MON extforcing_fv_mean           =  -5.0703111326166E-03
(PID.TID 0000.0001) %MON extforcing_fv_sd             =   6.8887698858752E-02
(PID.TID 0000.0001) %MON extforcing_fv_del2           =   3.3948587952260E-03
(PID.TID 0000.0001) %MON advcfl_uvel_max              =   7.4546338864605E-02
(PID.TID 0000.0001) %MON advcfl_vvel_max              =   8.3530648464270E-02
(PID.TID 0000.0001) %MON advcfl_wvel_max              =   5.7417134819312E-02
(PID.TID 0000.0001) %MON advcfl_W_hf_max              =   1.0892597032849E-01
(PID.TID 0000.0001) %MON pe_b_mean                    =  -1.8948889291846E-03
(PID.TID 0000.0001) %MON ke_max                       =   3.4366991544989E-02
(PID.TID 0000.0001) %MON ke_mean                      =   1.6189360164829E-04
(PID.TID 0000.0001) %MON ke_vol                       =   1.3395909773039E+18
(PID.TID 0000.0001) %MON vort_r_min                   =  -1.3024550257621E-06
(PID.TID 0000.0001) %MON vort_r_max                   =   1.4201245289520E-06
(PID.TID 0000.0001) %MON vort_a_mean                  =  -2.0493733748264E-05
(PID.TID 0000.0001) %MON vort_a_sd                    =   7.5054012704079E-05
(PID.TID 0000.0001) %MON vort_p_mean                  =  -2.4719481081480E-05
(PID.TID 0000.0001) %MON vort_p_sd                    =   1.2782281577325E-04
(PID.TID 0000.0001) %MON surfExpan_theta_mean         =   8.1524946220500E-08
(PID.TID 0000.0001) %MON surfExpan_salt_mean          =   1.9296908065279E-08
(PID.TID 0000.0001) // =======================================================
(PID.TID 0000.0001) // End MONITOR dynamic field statistics
(PID.TID 0000.0001) // =======================================================
(PID.TID 0000.0001) // =======================================================
(PID.TID 0000.0001) // Begin MONITOR Therm.SeaIce statistics
(PID.TID 0000.0001) // =======================================================
(PID.TID 0000.0001) %MON thSI_time_sec                =   3.1121280000000E+09
(PID.TID 0000.0001) %MON thSI_Ice_Area_G              =   2.4631832179112E+13
(PID.TID 0000.0001) %MON thSI_Ice_Area_S              =   1.1269924996702E+13
(PID.TID 0000.0001) %MON thSI_Ice_Area_N              =   1.3361907182410E+13
(PID.TID 0000.0001) %MON thSI_IceH_ave_G              =   4.5938935027996E+00
(PID.TID 0000.0001) %MON thSI_IceH_ave_S              =   5.9308303213494E+00
(PID.TID 0000.0001) %MON thSI_IceH_ave_N              =   3.4662717146300E+00
(PID.TID 0000.0001) %MON thSI_IceH_max_S              =   1.0000000000000E+01
(PID.TID 0000.0001) %MON thSI_IceH_max_N              =   1.0000000000000E+01
(PID.TID 0000.0001) %MON thSI_SnwH_ave_G              =   1.0013256482150E+00
(PID.TID 0000.0001) %MON thSI_SnwH_ave_S              =   1.7288848041755E+00
(PID.TID 0000.0001) %MON thSI_SnwH_ave_N              =   3.8767544047122E-01
(PID.TID 0000.0001) %MON thSI_SnwH_max_S              =   4.0921498306142E+00
(PID.TID 0000.0001) %MON thSI_SnwH_max_N              =   4.0935483414788E+00
(PID.TID 0000.0001) %MON thSI_TotEnerg_G              =  -3.7893921001199E+22
(PID.TID 0000.0001) %MON thSI_Tsrf_ave_G              =  -1.8146680437033E+01
(PID.TID 0000.0001) %MON thSI_Tsrf_ave_S              =  -2.3490219715219E-01
(PID.TID 0000.0001) %MON thSI_Tsrf_ave_N              =  -3.3254134377946E+01
(PID.TID 0000.0001) %MON thSI_Tsrf_min_S              =  -6.6878788258459E+00
(PID.TID 0000.0001) %MON thSI_Tsrf_min_N              =  -4.7886110978508E+01
(PID.TID 0000.0001) %MON thSI_Tsrf_max_S              =   0.0000000000000E+00
(PID.TID 0000.0001) %MON thSI_Tsrf_max_N              =  -4.9666145996507E+00
(PID.TID 0000.0001) %MON thSI_Tic1_ave_G              =  -8.7856044178495E+00
(PID.TID 0000.0001) %MON thSI_Tic1_ave_S              =  -4.7381676677058E+00
(PID.TID 0000.0001) %MON thSI_Tic1_ave_N              =  -1.4626582032001E+01
(PID.TID 0000.0001) %MON thSI_Tic1_min_S              =  -1.3603644851410E+01
(PID.TID 0000.0001) %MON thSI_Tic1_min_N              =  -2.2053096698543E+01
(PID.TID 0000.0001) %MON thSI_Tic1_max_S              =  -1.3355195951150E-01
(PID.TID 0000.0001) %MON thSI_Tic1_max_N              =  -8.1874424317970E-01
(PID.TID 0000.0001) %MON thSI_Tic2_ave_G              =  -3.9867530377133E+00
(PID.TID 0000.0001) %MON thSI_Tic2_ave_S              =  -3.0418783842456E+00
(PID.TID 0000.0001) %MON thSI_Tic2_ave_N              =  -5.3503300470112E+00
(PID.TID 0000.0001) %MON thSI_Tic2_min_S              =  -8.2159586024980E+00
(PID.TID 0000.0001) %MON thSI_Tic2_min_N              =  -7.9920648964409E+00
(PID.TID 0000.0001) %MON thSI_Tic2_max_S              =  -9.1012713859489E-01
(PID.TID 0000.0001) %MON thSI_Tic2_max_N              =  -1.3825828314333E+00
(PID.TID 0000.0001) // =======================================================
(PID.TID 0000.0001) // End MONITOR Therm.SeaIce statistics
(PID.TID 0000.0001) // =======================================================
 Compute Stats, Diag. #  23  ETAN      vol(  0 ): 3.639E+15  Parms: SM      M1      
 Compute Stats, Diag. #  30  UVEL      vol(  0 ): 1.231E+19  Parms: UU   031MR      
 Compute Stats, Diag. #  31  VVEL      vol(  0 ): 1.243E+19  Parms: VV   030MR      
 Compute Stats, Diag. #  32  WVEL      vol(  0 ): 1.315E+19  Parms: WM      LR      
 Compute Stats, Diag. #  26  THETA     vol(  0 ): 1.340E+19  Parms: SM      MR      
 Compute Stats, Diag. #  27  SALT      vol(  0 ): 1.340E+19  Parms: SM      MR      
 Compute Stats, Diag. #  70  CONVADJ   vol(  0 ): 1.315E+19  Parms: SM      LR      
 Compute Stats, Diag. #  25  DETADT2   vol(  0 ): 3.639E+15  Parms: SM      M1      
 Compute Stats, Diag. # 181  SI_Fract  vol(  0 ): 3.639E+15  Parms: SM P    M1      
 Compute Stats, Diag. # 181  SI_Fract  vol(  1 ): 1.289E+15  Parms: SM P    M1      
 Compute Stats, Diag. # 181  SI_Fract  vol(  3 ): 7.935E+14  Parms: SM P    M1      
 Compute Stats, Diag. # 182  SI_Thick  vol(  0 ): 2.468E+14  Parms: SM PC181M1      
    use Counter Mate  # 181  SI_Fract  vol(  0 ): 3.639E+15 integral 2.468E+14
 Compute Stats, Diag. # 182  SI_Thick  vol(  1 ): 1.149E+14  Parms: SM PC181M1      
    use Counter Mate  # 181  SI_Fract  vol(  1 ): 1.289E+15 integral 1.149E+14
 Compute Stats, Diag. # 182  SI_Thick  vol(  3 ): 1.319E+14  Parms: SM PC181M1      
    use Counter Mate  # 181  SI_Fract  vol(  3 ): 7.935E+14 integral 1.319E+14
 Compute Stats, Diag. # 183  SI_SnowH  vol(  0 ): 2.468E+14  Parms: SM PC181M1      
    use Counter Mate  # 181  SI_Fract  vol(  0 ): 3.639E+15 integral 2.468E+14
 Compute Stats, Diag. # 183  SI_SnowH  vol(  1 ): 1.149E+14  Parms: SM PC181M1      
    use Counter Mate  # 181  SI_Fract  vol(  1 ): 1.289E+15 integral 1.149E+14
 Compute Stats, Diag. # 183  SI_SnowH  vol(  3 ): 1.319E+14  Parms: SM PC181M1      
    use Counter Mate  # 181  SI_Fract  vol(  3 ): 7.935E+14 integral 1.319E+14
 Compute Stats, Diag. # 184  SI_Tsrf   vol(  0 ): 2.468E+14  Parms: SM  C181M1      
    use Counter Mate  # 181  SI_Fract  vol(  0 ): 3.639E+15 integral 2.468E+14
 Compute Stats, Diag. # 184  SI_Tsrf   vol(  1 ): 1.149E+14  Parms: SM  C181M1      
    use Counter Mate  # 181  SI_Fract  vol(  1 ): 1.289E+15 integral 1.149E+14
 Compute Stats, Diag. # 184  SI_Tsrf   vol(  3 ): 1.319E+14  Parms: SM  C181M1      
    use Counter Mate  # 181  SI_Fract  vol(  3 ): 7.935E+14 integral 1.319E+14
 Compute Stats, Diag. # 185  SI_Tice1  vol(  0 ): 2.468E+14  Parms: SM  C181M1      
    use Counter Mate  # 181  SI_Fract  vol(  0 ): 3.639E+15 integral 2.468E+14
 Compute Stats, Diag. # 185  SI_Tice1  vol(  1 ): 1.149E+14  Parms: SM  C181M1      
    use Counter Mate  # 181  SI_Fract  vol(  1 ): 1.289E+15 integral 1.149E+14
 Compute Stats, Diag. # 185  SI_Tice1  vol(  3 ): 1.319E+14  Parms: SM  C181M1      
    use Counter Mate  # 181  SI_Fract  vol(  3 ): 7.935E+14 integral 1.319E+14
 Compute Stats, Diag. # 186  SI_Tice2  vol(  0 ): 2.468E+14  Parms: SM  C181M1      
    use Counter Mate  # 181  SI_Fract  vol(  0 ): 3.639E+15 integral 2.468E+14
 Compute Stats, Diag. # 186  SI_Tice2  vol(  1 ): 1.149E+14  Parms: SM  C181M1      
    use Counter Mate  # 181  SI_Fract  vol(  1 ): 1.289E+15 integral 1.149E+14
 Compute Stats, Diag. # 186  SI_Tice2  vol(  3 ): 1.319E+14  Parms: SM  C181M1      
    use Counter Mate  # 181  SI_Fract  vol(  3 ): 7.935E+14 integral 1.319E+14
 Compute Stats, Diag. # 187  SI_Qice1  vol(  0 ): 1.131E+15  Parms: SM  C182M1      
    use Counter Mate  # 182  SI_Thick  vol(  0 ): 2.468E+14 integral 1.131E+15
 Compute Stats, Diag. # 187  SI_Qice1  vol(  1 ): 6.730E+14  Parms: SM  C182M1      
    use Counter Mate  # 182  SI_Thick  vol(  1 ): 1.149E+14 integral 6.730E+14
 Compute Stats, Diag. # 187  SI_Qice1  vol(  3 ): 4.582E+14  Parms: SM  C182M1      
    use Counter Mate  # 182  SI_Thick  vol(  3 ): 1.319E+14 integral 4.582E+14
 Compute Stats, Diag. # 188  SI_Qice2  vol(  0 ): 1.131E+15  Parms: SM  C182M1      
    use Counter Mate  # 182  SI_Thick  vol(  0 ): 2.468E+14 integral 1.131E+15
 Compute Stats, Diag. # 188  SI_Qice2  vol(  1 ): 6.730E+14  Parms: SM  C182M1      
    use Counter Mate  # 182  SI_Thick  vol(  1 ): 1.149E+14 integral 6.730E+14
 Compute Stats, Diag. # 188  SI_Qice2  vol(  3 ): 4.582E+14  Parms: SM  C182M1      
    use Counter Mate  # 182  SI_Thick  vol(  3 ): 1.319E+14 integral 4.582E+14
 Compute Stats, Diag. # 191  SIsnwPrc  vol(  0 ): 2.468E+14  Parms: SM  C181M1      
    use Counter Mate  # 181  SI_Fract  vol(  0 ): 3.639E+15 integral 2.468E+14
 Compute Stats, Diag. # 191  SIsnwPrc  vol(  1 ): 1.149E+14  Parms: SM  C181M1      
    use Counter Mate  # 181  SI_Fract  vol(  1 ): 1.289E+15 integral 1.149E+14
 Compute Stats, Diag. # 191  SIsnwPrc  vol(  3 ): 1.319E+14  Parms: SM  C181M1      
    use Counter Mate  # 181  SI_Fract  vol(  3 ): 7.935E+14 integral 1.319E+14
 Compute Stats, Diag. # 189  SIalbedo  vol(  0 ): 2.468E+14  Parms: SM PC181M1      
    use Counter Mate  # 181  SI_Fract  vol(  0 ): 3.639E+15 integral 2.468E+14
 Compute Stats, Diag. # 189  SIalbedo  vol(  1 ): 1.149E+14  Parms: SM PC181M1      
    use Counter Mate  # 181  SI_Fract  vol(  1 ): 1.289E+15 integral 1.149E+14
 Compute Stats, Diag. # 189  SIalbedo  vol(  3 ): 1.319E+14  Parms: SM PC181M1      
    use Counter Mate  # 181  SI_Fract  vol(  3 ): 7.935E+14 integral 1.319E+14
 Compute Stats, Diag. # 190  SIsnwAge  vol(  0 ): 3.639E+15  Parms: SM P    M1      
 Compute Stats, Diag. # 190  SIsnwAge  vol(  1 ): 1.289E+15  Parms: SM P    M1      
 Compute Stats, Diag. # 190  SIsnwAge  vol(  3 ): 7.935E+14  Parms: SM P    M1      
 Compute Stats, Diag. # 194  SIflx2oc  vol(  0 ): 3.639E+15  Parms: SM      M1      
 Compute Stats, Diag. # 194  SIflx2oc  vol(  1 ): 1.289E+15  Parms: SM      M1      
 Compute Stats, Diag. # 194  SIflx2oc  vol(  3 ): 7.935E+14  Parms: SM      M1      
 Compute Stats, Diag. # 195  SIfrw2oc  vol(  0 ): 3.639E+15  Parms: SM      M1      
 Compute Stats, Diag. # 195  SIfrw2oc  vol(  1 ): 1.289E+15  Parms: SM      M1      
 Compute Stats, Diag. # 195  SIfrw2oc  vol(  3 ): 7.935E+14  Parms: SM      M1      
 Compute Stats, Diag. # 196  SIsaltFx  vol(  0 ): 3.639E+15  Parms: SM      M1      
 Compute Stats, Diag. # 196  SIsaltFx  vol(  1 ): 1.289E+15  Parms: SM      M1      
 Compute Stats, Diag. # 196  SIsaltFx  vol(  3 ): 7.935E+14  Parms: SM      M1      
 Compute Stats, Diag. # 192  SIflxAtm  vol(  0 ): 3.639E+15  Parms: SM      M1      
 Compute Stats, Diag. # 192  SIflxAtm  vol(  1 ): 1.289E+15  Parms: SM      M1      
 Compute Stats, Diag. # 192  SIflxAtm  vol(  3 ): 7.935E+14  Parms: SM      M1      
 Compute Stats, Diag. # 193  SIfrwAtm  vol(  0 ): 3.639E+15  Parms: SM      M1      
 Compute Stats, Diag. # 193  SIfrwAtm  vol(  1 ): 1.289E+15  Parms: SM      M1      
 Compute Stats, Diag. # 193  SIfrwAtm  vol(  3 ): 7.935E+14  Parms: SM      M1      
(PID.TID 0000.0001) %CHECKPOINT     36020 ckptA
(PID.TID 0000.0001) DIAGSTATS_CLOSE_IO: close file: dynStDiag.0000036000.txt , unit=     9
(PID.TID 0000.0001) DIAGSTATS_CLOSE_IO: close file: thSIceStDiag.0000036000.txt , unit=    10
(PID.TID 0000.0001)   Seconds in section "ALL                    [THE_MODEL_MAIN]":
(PID.TID 0000.0001)           User time:  61.7056218
(PID.TID 0000.0001)         System time:  0.815875981
(PID.TID 0000.0001)     Wall clock time:  64.064209
(PID.TID 0000.0001)          No. starts: 1
(PID.TID 0000.0001)           No. stops: 1
(PID.TID 0000.0001)   Seconds in section "INITIALISE_FIXED       [THE_MODEL_MAIN]":
(PID.TID 0000.0001)           User time:  0.583912005
(PID.TID 0000.0001)         System time:  0.130980004
(PID.TID 0000.0001)     Wall clock time:  0.916436911
(PID.TID 0000.0001)          No. starts: 1
(PID.TID 0000.0001)           No. stops: 1
(PID.TID 0000.0001)   Seconds in section "THE_MAIN_LOOP          [THE_MODEL_MAIN]":
(PID.TID 0000.0001)           User time:  60.8467497
(PID.TID 0000.0001)         System time:  0.512921974
(PID.TID 0000.0001)     Wall clock time:  62.099679
(PID.TID 0000.0001)          No. starts: 1
(PID.TID 0000.0001)           No. stops: 1
(PID.TID 0000.0001)   Seconds in section "INITIALISE_VARIA    [THE_MAIN_LOOP]":
(PID.TID 0000.0001)           User time:  1.14282596
(PID.TID 0000.0001)         System time:  0.19497101
(PID.TID 0000.0001)     Wall clock time:  1.57209706
(PID.TID 0000.0001)          No. starts: 1
(PID.TID 0000.0001)           No. stops: 1
(PID.TID 0000.0001)   Seconds in section "MAIN LOOP           [THE_MAIN_LOOP]":
(PID.TID 0000.0001)           User time:  59.2989857
(PID.TID 0000.0001)         System time:  0.18997097
(PID.TID 0000.0001)     Wall clock time:  59.9068441
(PID.TID 0000.0001)          No. starts: 1
(PID.TID 0000.0001)           No. stops: 1
(PID.TID 0000.0001)   Seconds in section "FORWARD_STEP        [THE_MAIN_LOOP]":
(PID.TID 0000.0001)           User time:  59.2989857
(PID.TID 0000.0001)         System time:  0.18997097
(PID.TID 0000.0001)     Wall clock time:  59.9061184
(PID.TID 0000.0001)          No. starts: 20
(PID.TID 0000.0001)           No. stops: 20
(PID.TID 0000.0001)   Seconds in section "DO_STATEVARS_DIAGS  [FORWARD_STEP]":
(PID.TID 0000.0001)           User time:  2.63259411
(PID.TID 0000.0001)         System time:  0.000999987125
(PID.TID 0000.0001)     Wall clock time:  2.63401294
(PID.TID 0000.0001)          No. starts: 60
(PID.TID 0000.0001)           No. stops: 60
(PID.TID 0000.0001)   Seconds in section "LOAD_FIELDS_DRIVER  [FORWARD_STEP]":
(PID.TID 0000.0001)           User time:  0.284963608
(PID.TID 0000.0001)         System time:  0.0219979882
(PID.TID 0000.0001)     Wall clock time:  0.502422333
(PID.TID 0000.0001)          No. starts: 20
(PID.TID 0000.0001)           No. stops: 20
(PID.TID 0000.0001)   Seconds in section "BULKF_FIELDS_LOAD  [LOAD_FLDS_DRIVER]":
(PID.TID 0000.0001)           User time:  0.201967001
(PID.TID 0000.0001)         System time:  0.0139989853
(PID.TID 0000.0001)     Wall clock time:  0.412443876
(PID.TID 0000.0001)          No. starts: 20
(PID.TID 0000.0001)           No. stops: 20
(PID.TID 0000.0001)   Seconds in section "EXTERNAL_FLDS_LOAD [LOAD_FLDS_DRIVER]":
(PID.TID 0000.0001)           User time:  0.0799944401
(PID.TID 0000.0001)         System time:  0.00699898601
(PID.TID 0000.0001)     Wall clock time:  0.0878050327
(PID.TID 0000.0001)          No. starts: 20
(PID.TID 0000.0001)           No. stops: 20
(PID.TID 0000.0001)   Seconds in section "BULKF_FORCING       [FORWARD_STEP]":
(PID.TID 0000.0001)           User time:  0.976845503
(PID.TID 0000.0001)         System time:  0.00199902058
(PID.TID 0000.0001)     Wall clock time:  0.97773242
(PID.TID 0000.0001)          No. starts: 20
(PID.TID 0000.0001)           No. stops: 20
(PID.TID 0000.0001)   Seconds in section "DO_ATMOSPHERIC_PHYS [FORWARD_STEP]":
(PID.TID 0000.0001)           User time:  0.
(PID.TID 0000.0001)         System time:  0.
(PID.TID 0000.0001)     Wall clock time:  0.000683784485
(PID.TID 0000.0001)          No. starts: 20
(PID.TID 0000.0001)           No. stops: 20
(PID.TID 0000.0001)   Seconds in section "DO_OCEANIC_PHYS     [FORWARD_STEP]":
(PID.TID 0000.0001)           User time:  7.94680023
(PID.TID 0000.0001)         System time:  0.
(PID.TID 0000.0001)     Wall clock time:  7.95277715
(PID.TID 0000.0001)          No. starts: 20
(PID.TID 0000.0001)           No. stops: 20
(PID.TID 0000.0001)   Seconds in section "THSICE_MAIN     [DO_OCEANIC_PHYS]":
(PID.TID 0000.0001)           User time:  0.533921719
(PID.TID 0000.0001)         System time:  0.
(PID.TID 0000.0001)     Wall clock time:  0.531331301
(PID.TID 0000.0001)          No. starts: 20
(PID.TID 0000.0001)           No. stops: 20
(PID.TID 0000.0001)   Seconds in section "DYNAMICS            [FORWARD_STEP]":
(PID.TID 0000.0001)           User time:  15.4196482
(PID.TID 0000.0001)         System time:  0.00600001216
(PID.TID 0000.0001)     Wall clock time:  15.4382017
(PID.TID 0000.0001)          No. starts: 20
(PID.TID 0000.0001)           No. stops: 20
(PID.TID 0000.0001)   Seconds in section "UPDATE_R_STAR       [FORWARD_STEP]":
(PID.TID 0000.0001)           User time:  0.851871014
(PID.TID 0000.0001)         System time:  0.
(PID.TID 0000.0001)     Wall clock time:  0.849266052
(PID.TID 0000.0001)          No. starts: 20
(PID.TID 0000.0001)           No. stops: 20
(PID.TID 0000.0001)   Seconds in section "UPDATE_CG2D         [FORWARD_STEP]":
(PID.TID 0000.0001)           User time:  0.366945505
(PID.TID 0000.0001)         System time:  0.
(PID.TID 0000.0001)     Wall clock time:  0.370597363
(PID.TID 0000.0001)          No. starts: 20
(PID.TID 0000.0001)           No. stops: 20
(PID.TID 0000.0001)   Seconds in section "SOLVE_FOR_PRESSURE  [FORWARD_STEP]":
(PID.TID 0000.0001)           User time:  6.41202426
(PID.TID 0000.0001)         System time:  0.000999987125
(PID.TID 0000.0001)     Wall clock time:  6.41627526
(PID.TID 0000.0001)          No. starts: 20
(PID.TID 0000.0001)           No. stops: 20
(PID.TID 0000.0001)   Seconds in section "MOM_CORRECTION_STEP [FORWARD_STEP]":
(PID.TID 0000.0001)           User time:  1.43978691
(PID.TID 0000.0001)         System time:  0.
(PID.TID 0000.0001)     Wall clock time:  1.43837738
(PID.TID 0000.0001)          No. starts: 20
(PID.TID 0000.0001)           No. stops: 20
(PID.TID 0000.0001)   Seconds in section "UPDATE_ETAH         [FORWARD_STEP]":
(PID.TID 0000.0001)           User time:  0.0139985085
(PID.TID 0000.0001)         System time:  0.
(PID.TID 0000.0001)     Wall clock time:  0.0116100311
(PID.TID 0000.0001)          No. starts: 20
(PID.TID 0000.0001)           No. stops: 20
(PID.TID 0000.0001)   Seconds in section "CALC_R_STAR         [FORWARD_STEP]":
(PID.TID 0000.0001)           User time:  0.175975323
(PID.TID 0000.0001)         System time:  0.
(PID.TID 0000.0001)     Wall clock time:  0.177800417
(PID.TID 0000.0001)          No. starts: 20
(PID.TID 0000.0001)           No. stops: 20
(PID.TID 0000.0001)   Seconds in section "BLOCKING_EXCHANGES  [FORWARD_STEP]":
(PID.TID 0000.0001)           User time:  1.23982096
(PID.TID 0000.0001)         System time:  0.000999987125
(PID.TID 0000.0001)     Wall clock time:  1.23816466
(PID.TID 0000.0001)          No. starts: 40
(PID.TID 0000.0001)           No. stops: 40
(PID.TID 0000.0001)   Seconds in section "THERMODYNAMICS      [FORWARD_STEP]":
(PID.TID 0000.0001)           User time:  11.768208
(PID.TID 0000.0001)         System time:  0.00499898195
(PID.TID 0000.0001)     Wall clock time:  11.7868097
(PID.TID 0000.0001)          No. starts: 20
(PID.TID 0000.0001)           No. stops: 20
(PID.TID 0000.0001)   Seconds in section "TRC_CORRECTION_STEP [FORWARD_STEP]":
(PID.TID 0000.0001)           User time:  0.210968018
(PID.TID 0000.0001)         System time:  0.
(PID.TID 0000.0001)     Wall clock time:  0.212596178
(PID.TID 0000.0001)          No. starts: 20
(PID.TID 0000.0001)           No. stops: 20
(PID.TID 0000.0001)   Seconds in section "DO_STATEVARS_TAVE   [FORWARD_STEP]":
(PID.TID 0000.0001)           User time:  3.78141546
(PID.TID 0000.0001)         System time:  0.
(PID.TID 0000.0001)     Wall clock time:  3.78511024
(PID.TID 0000.0001)          No. starts: 20
(PID.TID 0000.0001)           No. stops: 20
(PID.TID 0000.0001)   Seconds in section "MONITOR             [FORWARD_STEP]":
(PID.TID 0000.0001)           User time:  5.46117353
(PID.TID 0000.0001)         System time:  0.000999987125
(PID.TID 0000.0001)     Wall clock time:  5.46399999
(PID.TID 0000.0001)          No. starts: 20
(PID.TID 0000.0001)           No. stops: 20
(PID.TID 0000.0001)   Seconds in section "DO_THE_MODEL_IO     [FORWARD_STEP]":
(PID.TID 0000.0001)           User time:  0.295955658
(PID.TID 0000.0001)         System time:  0.148974985
(PID.TID 0000.0001)     Wall clock time:  0.632490873
(PID.TID 0000.0001)          No. starts: 20
(PID.TID 0000.0001)           No. stops: 20
(PID.TID 0000.0001)   Seconds in section "DO_WRITE_PICKUP     [FORWARD_STEP]":
(PID.TID 0000.0001)           User time:  0.
(PID.TID 0000.0001)         System time:  0.
(PID.TID 0000.0001)     Wall clock time:  0.000708341599
(PID.TID 0000.0001)          No. starts: 20
(PID.TID 0000.0001)           No. stops: 20
(PID.TID 0000.0001)   Seconds in section "DO_WRITE_PICKUP        [THE_MODEL_MAIN]":
(PID.TID 0000.0001)           User time:  0.273960114
(PID.TID 0000.0001)         System time:  0.171974003
(PID.TID 0000.0001)     Wall clock time:  1.04793382
(PID.TID 0000.0001)          No. starts: 1
(PID.TID 0000.0001)           No. stops: 1
(PID.TID 0000.0001) // ======================================================
(PID.TID 0000.0001) // Tile <-> Tile communication statistics
(PID.TID 0000.0001) // ======================================================
(PID.TID 0000.0001) // o Tile number: 000001
(PID.TID 0000.0001) //         No. X exchanges =              0
(PID.TID 0000.0001) //            Max. X spins =              0
(PID.TID 0000.0001) //            Min. X spins =     1000000000
(PID.TID 0000.0001) //          Total. X spins =              0
(PID.TID 0000.0001) //            Avg. X spins =       0.00E+00
(PID.TID 0000.0001) //         No. Y exchanges =              0
(PID.TID 0000.0001) //            Max. Y spins =              0
(PID.TID 0000.0001) //            Min. Y spins =     1000000000
(PID.TID 0000.0001) //          Total. Y spins =              0
(PID.TID 0000.0001) //            Avg. Y spins =       0.00E+00
(PID.TID 0000.0001) // o Tile number: 000002
(PID.TID 0000.0001) //         No. X exchanges =              0
(PID.TID 0000.0001) //            Max. X spins =              0
(PID.TID 0000.0001) //            Min. X spins =     1000000000
(PID.TID 0000.0001) //          Total. X spins =              0
(PID.TID 0000.0001) //            Avg. X spins =       0.00E+00
(PID.TID 0000.0001) //         No. Y exchanges =              0
(PID.TID 0000.0001) //            Max. Y spins =              0
(PID.TID 0000.0001) //            Min. Y spins =     1000000000
(PID.TID 0000.0001) //          Total. Y spins =              0
(PID.TID 0000.0001) //            Avg. Y spins =       0.00E+00
(PID.TID 0000.0001) // o Tile number: 000003
(PID.TID 0000.0001) //         No. X exchanges =              0
(PID.TID 0000.0001) //            Max. X spins =              0
(PID.TID 0000.0001) //            Min. X spins =     1000000000
(PID.TID 0000.0001) //          Total. X spins =              0
(PID.TID 0000.0001) //            Avg. X spins =       0.00E+00
(PID.TID 0000.0001) //         No. Y exchanges =              0
(PID.TID 0000.0001) //            Max. Y spins =              0
(PID.TID 0000.0001) //            Min. Y spins =     1000000000
(PID.TID 0000.0001) //          Total. Y spins =              0
(PID.TID 0000.0001) //            Avg. Y spins =       0.00E+00
(PID.TID 0000.0001) // o Tile number: 000004
(PID.TID 0000.0001) //         No. X exchanges =              0
(PID.TID 0000.0001) //            Max. X spins =              0
(PID.TID 0000.0001) //            Min. X spins =     1000000000
(PID.TID 0000.0001) //          Total. X spins =              0
(PID.TID 0000.0001) //            Avg. X spins =       0.00E+00
(PID.TID 0000.0001) //         No. Y exchanges =              0
(PID.TID 0000.0001) //            Max. Y spins =              0
(PID.TID 0000.0001) //            Min. Y spins =     1000000000
(PID.TID 0000.0001) //          Total. Y spins =              0
(PID.TID 0000.0001) //            Avg. Y spins =       0.00E+00
(PID.TID 0000.0001) // o Tile number: 000005
(PID.TID 0000.0001) //         No. X exchanges =              0
(PID.TID 0000.0001) //            Max. X spins =              0
(PID.TID 0000.0001) //            Min. X spins =     1000000000
(PID.TID 0000.0001) //          Total. X spins =              0
(PID.TID 0000.0001) //            Avg. X spins =       0.00E+00
(PID.TID 0000.0001) //         No. Y exchanges =              0
(PID.TID 0000.0001) //            Max. Y spins =              0
(PID.TID 0000.0001) //            Min. Y spins =     1000000000
(PID.TID 0000.0001) //          Total. Y spins =              0
(PID.TID 0000.0001) //            Avg. Y spins =       0.00E+00
(PID.TID 0000.0001) // o Tile number: 000006
(PID.TID 0000.0001) //         No. X exchanges =              0
(PID.TID 0000.0001) //            Max. X spins =              0
(PID.TID 0000.0001) //            Min. X spins =     1000000000
(PID.TID 0000.0001) //          Total. X spins =              0
(PID.TID 0000.0001) //            Avg. X spins =       0.00E+00
(PID.TID 0000.0001) //         No. Y exchanges =              0
(PID.TID 0000.0001) //            Max. Y spins =              0
(PID.TID 0000.0001) //            Min. Y spins =     1000000000
(PID.TID 0000.0001) //          Total. Y spins =              0
(PID.TID 0000.0001) //            Avg. Y spins =       0.00E+00
(PID.TID 0000.0001) // o Thread number: 000001
(PID.TID 0000.0001) //            No. barriers =          58290
(PID.TID 0000.0001) //      Max. barrier spins =              1
(PID.TID 0000.0001) //      Min. barrier spins =              1
(PID.TID 0000.0001) //     Total barrier spins =          58290
(PID.TID 0000.0001) //      Avg. barrier spins =       1.00E+00
